TITL C-2323482-8828-73 -0.000553257457996306 125000 -367.239836946557 0 0 60 (C1) n - 1
REM
REM in /home/bkarasulu/CARBON/AIRSS/Generating-Clusters/LCBOP/Higher-Symm/Only-C60/SD-CG/FIRE-HFTN
REM
REM
REM
REM
REM
REM ./C.cell (50c204cfd26239f34c78669fe23a5462)
REM
REM compiler GCC version 9.2.1 20190827 (Red Hat 9.2.1-1)
REM options -cpp -mtune=generic -march=x86-64 -g -O0 -fpre-include=/usr/include/finclude/math-vector-fortran.h
REM seed 1789488122 -1168702188 1723082253 -652651720 2097789696 599817309 1214774952 315188549 -1943419916 -283172740 448823890 1505842488 -137028792 -940822631 960678834 -1387394213 1369930061 -1525398385 1506409700 1418987444 -758813049 122814407 1294023784 574880312 -1314848137 108960732 2053113059 -2106985180 2123449530 1166429121 1176553052 18631594 -1288393125
REM
CELL 1.54180   50.00000   50.00000   50.00000   90.00000   90.00000   90.00000
LATT -1
SFAC C  
C      1  0.4977670000000  0.4836530000000  0.4008030000000 1.0
C      1  0.4245400000000  0.4783500000000  0.5521240000000 1.0
C      1  0.5784490000000  0.4824190000000  0.5504130000000 1.0
C      1  0.4448470000000  0.5694760000000  0.4816760000000 1.0
C      1  0.5144160000000  0.5724110000000  0.5451710000000 1.0
C      1  0.5426490000000  0.5632920000000  0.4641930000000 1.0
C      1  0.5133480000000  0.5062300000000  0.3607140000000 1.0
C      1  0.3800720000000  0.4979120000000  0.5556540000000 1.0
C      1  0.6121330000000  0.5031060000000  0.5788720000000 1.0
C      1  0.5162610000000  0.4280150000000  0.4665260000000 1.0
C      1  0.4617130000000  0.4228780000000  0.4998810000000 1.0
C      1  0.5186260000000  0.4153990000000  0.5317740000000 1.0
C      1  0.5890370000000  0.5051390000000  0.5633810000000 1.0
C      1  0.5083730000000  0.5065810000000  0.3881870000000 1.0
C      1  0.4062180000000  0.4987000000000  0.5460660000000 1.0
C      1  0.5179860000000  0.5058890000000  0.3350700000000 1.0
C      1  0.3556100000000  0.4971900000000  0.5646160000000 1.0
C      1  0.6337210000000  0.5011840000000  0.5933450000000 1.0
C      1  0.4471080000000  0.4647480000000  0.5486120000000 1.0
C      1  0.5613390000000  0.4668030000000  0.5371150000000 1.0
C      1  0.4897390000000  0.4665460000000  0.4197540000000 1.0
C      1  0.5540270000000  0.5409060000000  0.5468670000000 1.0
C      1  0.5128410000000  0.5417800000000  0.4285140000000 1.0
C      1  0.4366290000000  0.5331930000000  0.5180880000000 1.0
C      1  0.4900970000000  0.4357570000000  0.4594270000000 1.0
C      1  0.4719320000000  0.4300420000000  0.5250850000000 1.0
C      1  0.5322690000000  0.4337920000000  0.5152850000000 1.0
C      1  0.4700070000000  0.5364520000000  0.4551800000000 1.0
C      1  0.4777040000000  0.5368660000000  0.5429210000000 1.0
C      1  0.5478370000000  0.5267760000000  0.5008500000000 1.0
C      1  0.4543130000000  0.5156540000000  0.4670690000000 1.0
C      1  0.4871550000000  0.5222220000000  0.5651860000000 1.0
C      1  0.5496510000000  0.5049260000000  0.4833310000000 1.0
C      1  0.5417840000000  0.5228850000000  0.5281940000000 1.0
C      1  0.4961420000000  0.5281900000000  0.4469900000000 1.0
C      1  0.4629340000000  0.5227780000000  0.5229380000000 1.0
C      1  0.5139910000000  0.5298640000000  0.4031450000000 1.0
C      1  0.4151670000000  0.5198800000000  0.5300060000000 1.0
C      1  0.5759100000000  0.5299780000000  0.5604540000000 1.0
C      1  0.4875070000000  0.4837000000000  0.4643050000000 1.0
C      1  0.4867440000000  0.4774900000000  0.5230460000000 1.0
C      1  0.5153910000000  0.4793240000000  0.5274880000000 1.0
C      1  0.5109050000000  0.5095250000000  0.5641110000000 1.0
C      1  0.5335000000000  0.4983320000000  0.4631050000000 1.0
C      1  0.4676560000000  0.4950900000000  0.4812520000000 1.0
C      1  0.4725440000000  0.4987980000000  0.5093290000000 1.0
C      1  0.5240170000000  0.5037030000000  0.5396920000000 1.0
C      1  0.5067930000000  0.5033130000000  0.4568970000000 1.0
C      1  0.5478180000000  0.5519560000000  0.4879700000000 1.0
C      1  0.4609800000000  0.5623510000000  0.4612740000000 1.0
C      1  0.4902780000000  0.5619240000000  0.5394680000000 1.0
C      1  0.4689080000000  0.4245200000000  0.4741300000000 1.0
C      1  0.4921620000000  0.4140980000000  0.5364400000000 1.0
C      1  0.5326520000000  0.4289270000000  0.4876500000000 1.0
C      1  0.4695830000000  0.4570280000000  0.5337260000000 1.0
C      1  0.5364240000000  0.4597770000000  0.5256940000000 1.0
C      1  0.4868160000000  0.4610320000000  0.4472440000000 1.0
C      1  0.4343230000000  0.5566460000000  0.5027720000000 1.0
C      1  0.5396720000000  0.5647990000000  0.5506910000000 1.0
C      1  0.5309830000000  0.5598020000000  0.4402350000000 1.0
END
