TITL C-2323486-8761-7 3.21092713988372e-07 125000 -359.799897368264 0 0 60 (C1) n - 1
REM
REM in /home/bkarasulu/CARBON/AIRSS/Generating-Clusters/LCBOP/Higher-Symm/Only-C60/SD-CG/FIRE-HFTN
REM
REM
REM
REM
REM
REM ./C.cell (50c204cfd26239f34c78669fe23a5462)
REM
REM compiler GCC version 9.2.1 20190827 (Red Hat 9.2.1-1)
REM options -cpp -mtune=generic -march=x86-64 -g -O0 -fpre-include=/usr/include/finclude/math-vector-fortran.h
REM seed -305117866 1556562832 -509883393 -465838584 1717729940 -599325524 -144049618 -1041664610 -1407534544 1226127190 -368773142 -1492172495 -1801652096 532545899 1096959324 1059771206 -1688397619 -963022434 2147414647 -136855976 -563626120 -110492432 1590222400 2094237167 -1424623879 -1400710607 794415153 -25307377 -351144836 -2050754245 -1327909794 152918146 1365029578
REM
CELL 1.54180   50.00000   50.00000   50.00000   90.00000   90.00000   90.00000
LATT -1
SFAC C  
C      1  0.4850900000000  0.4809010000000  0.4837880000000 1.0
C      1  0.5236340000000  0.4916110000000  0.5131850000000 1.0
C      1  0.4889630000000  0.5285740000000  0.4856780000000 1.0
C      1  0.5133890000000  0.5154770000000  0.5231320000000 1.0
C      1  0.5149670000000  0.4884660000000  0.4827170000000 1.0
C      1  0.4773980000000  0.4898020000000  0.5105880000000 1.0
C      1  0.5130460000000  0.5174770000000  0.4756070000000 1.0
C      1  0.4851630000000  0.5185130000000  0.5145000000000 1.0
C      1  0.4722630000000  0.5366800000000  0.5583810000000 1.0
C      1  0.5300090000000  0.5333100000000  0.4374820000000 1.0
C      1  0.4732940000000  0.4620790000000  0.5528220000000 1.0
C      1  0.5246070000000  0.4586220000000  0.4467160000000 1.0
C      1  0.5277220000000  0.5380530000000  0.5607270000000 1.0
C      1  0.4733680000000  0.5349030000000  0.4412370000000 1.0
C      1  0.5275130000000  0.4624170000000  0.5533350000000 1.0
C      1  0.4704210000000  0.4620590000000  0.4424700000000 1.0
C      1  0.4813850000000  0.5107560000000  0.4287750000000 1.0
C      1  0.5199440000000  0.5123000000000  0.5697530000000 1.0
C      1  0.4803700000000  0.4842080000000  0.4288460000000 1.0
C      1  0.5199580000000  0.4857880000000  0.5667510000000 1.0
C      1  0.5204780000000  0.5084230000000  0.4276270000000 1.0
C      1  0.4809080000000  0.5118430000000  0.5677260000000 1.0
C      1  0.5191930000000  0.4818580000000  0.4311670000000 1.0
C      1  0.4812210000000  0.4855760000000  0.5653280000000 1.0
C      1  0.4205300000000  0.4869200000000  0.4726060000000 1.0
C      1  0.5776950000000  0.4883630000000  0.5263400000000 1.0
C      1  0.4223040000000  0.5139610000000  0.4725990000000 1.0
C      1  0.5740960000000  0.5153000000000  0.5267960000000 1.0
C      1  0.5761460000000  0.4860270000000  0.4710390000000 1.0
C      1  0.4240950000000  0.4849780000000  0.5262090000000 1.0
C      1  0.5776160000000  0.5129820000000  0.4737970000000 1.0
C      1  0.4256680000000  0.5122000000000  0.5265530000000 1.0
C      1  0.4828780000000  0.4371660000000  0.4366130000000 1.0
C      1  0.5140920000000  0.4387360000000  0.5619240000000 1.0
C      1  0.4881770000000  0.5574740000000  0.4316820000000 1.0
C      1  0.5126660000000  0.5593460000000  0.5729250000000 1.0
C      1  0.5099550000000  0.4353510000000  0.4391530000000 1.0
C      1  0.4867650000000  0.4386130000000  0.5621630000000 1.0
C      1  0.5153230000000  0.5561890000000  0.4287590000000 1.0
C      1  0.4852590000000  0.5587230000000  0.5715670000000 1.0
C      1  0.4681270000000  0.5393540000000  0.5280470000000 1.0
C      1  0.5352050000000  0.5320630000000  0.4660070000000 1.0
C      1  0.4682920000000  0.4632310000000  0.5230880000000 1.0
C      1  0.5302520000000  0.4621710000000  0.4762290000000 1.0
C      1  0.5301600000000  0.5399030000000  0.5297920000000 1.0
C      1  0.4663860000000  0.5345700000000  0.4695140000000 1.0
C      1  0.5340970000000  0.4649800000000  0.5244060000000 1.0
C      1  0.4643470000000  0.4675190000000  0.4695540000000 1.0
C      1  0.5601300000000  0.4669830000000  0.4846980000000 1.0
C      1  0.4394590000000  0.4646870000000  0.5124520000000 1.0
C      1  0.5577780000000  0.5312970000000  0.4835560000000 1.0
C      1  0.4413560000000  0.5329460000000  0.5139540000000 1.0
C      1  0.4388130000000  0.4676720000000  0.4829830000000 1.0
C      1  0.5627590000000  0.4673100000000  0.5141860000000 1.0
C      1  0.4414030000000  0.5317850000000  0.4840500000000 1.0
C      1  0.5561160000000  0.5335920000000  0.5133800000000 1.0
C      1  0.4852270000000  0.5645200000000  0.5210070000000 1.0
C      1  0.5129380000000  0.5634920000000  0.5206930000000 1.0
C      1  0.4904280000000  0.4434210000000  0.5101030000000 1.0
C      1  0.5191620000000  0.4464790000000  0.5032380000000 1.0
END
