TITL C-2323483-8886-290 12.4957683201892 125000 -350.908635782564 0 0 60 (C1) n - 1
REM
REM in /home/bkarasulu/CARBON/AIRSS/Generating-Clusters/LCBOP/Higher-Symm/Only-C60/SD-CG/FIRE-HFTN
REM
REM
REM
REM
REM
REM ./C.cell (50c204cfd26239f34c78669fe23a5462)
REM
REM compiler GCC version 9.2.1 20190827 (Red Hat 9.2.1-1)
REM options -cpp -mtune=generic -march=x86-64 -g -O0 -fpre-include=/usr/include/finclude/math-vector-fortran.h
REM seed -1209407036 1879613420 -1551893308 -384445164 678800193 -1587806178 -667583840 -500532337 -1486188564 -1811493357 72915531 -1284947606 -1095848310 555756929 725571187 -1929770017 -993229353 995991664 1540724666 1769116054 228953172 445873913 -366048985 -973708448 -2049088249 -146308239 1629094885 386796327 -440841099 -710929991 1949329283 794776019 910422636
REM
CELL 1.54180   50.00000   50.00000   50.00000   90.00000   90.00000   90.00000
LATT -1
SFAC C  
C      1  0.4970350000000  0.5790450000000  0.5001090000000 1.0
C      1  0.5116400000000  0.4820920000000  0.5743130000000 1.0
C      1  0.5438220000000  0.4704640000000  0.4517740000000 1.0
C      1  0.5362040000000  0.5125100000000  0.5171070000000 1.0
C      1  0.5847180000000  0.3858480000000  0.5665180000000 1.0
C      1  0.5766150000000  0.5618530000000  0.3744780000000 1.0
C      1  0.5961420000000  0.5502060000000  0.3592710000000 1.0
C      1  0.5566640000000  0.4979160000000  0.5065140000000 1.0
C      1  0.5923430000000  0.3836320000000  0.5926930000000 1.0
C      1  0.5045300000000  0.5650600000000  0.5496850000000 1.0
C      1  0.5280750000000  0.4407210000000  0.5428020000000 1.0
C      1  0.5336300000000  0.5185260000000  0.4297270000000 1.0
C      1  0.4894120000000  0.4345780000000  0.5136860000000 1.0
C      1  0.4851780000000  0.5170040000000  0.4361960000000 1.0
C      1  0.4590570000000  0.5596340000000  0.5679820000000 1.0
C      1  0.5198610000000  0.4613880000000  0.5598470000000 1.0
C      1  0.5418390000000  0.4931760000000  0.4382210000000 1.0
C      1  0.4958940000000  0.5787890000000  0.5267620000000 1.0
C      1  0.5303480000000  0.5538920000000  0.5480330000000 1.0
C      1  0.5471360000000  0.4222340000000  0.5514560000000 1.0
C      1  0.5484790000000  0.5326550000000  0.4107970000000 1.0
C      1  0.4587750000000  0.5146880000000  0.4448800000000 1.0
C      1  0.4376540000000  0.5476650000000  0.5542230000000 1.0
C      1  0.4628740000000  0.4428900000000  0.5136470000000 1.0
C      1  0.6067390000000  0.3541520000000  0.5287090000000 1.0
C      1  0.5652350000000  0.6143890000000  0.3690470000000 1.0
C      1  0.4826870000000  0.5088630000000  0.5114720000000 1.0
C      1  0.5707880000000  0.5890530000000  0.3716030000000 1.0
C      1  0.5092480000000  0.5073770000000  0.5109120000000 1.0
C      1  0.5961680000000  0.3694010000000  0.5470110000000 1.0
C      1  0.4324910000000  0.5558970000000  0.5270730000000 1.0
C      1  0.4508160000000  0.4524950000000  0.5380310000000 1.0
C      1  0.4436960000000  0.4900760000000  0.4457320000000 1.0
C      1  0.5622560000000  0.5466950000000  0.3930750000000 1.0
C      1  0.5415770000000  0.5336220000000  0.5347990000000 1.0
C      1  0.5653870000000  0.4045840000000  0.5589620000000 1.0
C      1  0.5408670000000  0.4524680000000  0.4710560000000 1.0
C      1  0.5038350000000  0.5694020000000  0.4762490000000 1.0
C      1  0.5032470000000  0.5057100000000  0.5831740000000 1.0
C      1  0.4462450000000  0.4710330000000  0.4262760000000 1.0
C      1  0.4205990000000  0.5795990000000  0.5207840000000 1.0
C      1  0.4550730000000  0.4408420000000  0.5623260000000 1.0
C      1  0.4152370000000  0.4716240000000  0.5126200000000 1.0
C      1  0.4135580000000  0.5112340000000  0.4769580000000 1.0
C      1  0.4562600000000  0.5146070000000  0.5183260000000 1.0
C      1  0.4950070000000  0.5310120000000  0.5827640000000 1.0
C      1  0.5327030000000  0.4417350000000  0.4939100000000 1.0
C      1  0.5104000000000  0.5524460000000  0.4568330000000 1.0
C      1  0.4329610000000  0.5197790000000  0.5589550000000 1.0
C      1  0.4482230000000  0.4475930000000  0.4896100000000 1.0
C      1  0.4478990000000  0.5368950000000  0.4590800000000 1.0
C      1  0.5169390000000  0.4383070000000  0.5167370000000 1.0
C      1  0.5098430000000  0.5296620000000  0.4404540000000 1.0
C      1  0.4866180000000  0.5540500000000  0.5689230000000 1.0
C      1  0.4309450000000  0.5333760000000  0.4813940000000 1.0
C      1  0.4421330000000  0.5011460000000  0.5396830000000 1.0
C      1  0.4267010000000  0.4659670000000  0.4869430000000 1.0
C      1  0.4253050000000  0.4867690000000  0.4677070000000 1.0
C      1  0.4411180000000  0.5368200000000  0.5075500000000 1.0
C      1  0.4332730000000  0.4748540000000  0.5345410000000 1.0
END
