TITL C-2323489-8765-157 0.00108500185402268 125000 -353.325195998666 0 0 60 (C1) n - 1
REM
REM in /home/bkarasulu/CARBON/AIRSS/Generating-Clusters/LCBOP/Higher-Symm/Only-C60/SD-CG/FIRE-HFTN
REM
REM
REM
REM
REM
REM ./C.cell (50c204cfd26239f34c78669fe23a5462)
REM
REM compiler GCC version 9.2.1 20190827 (Red Hat 9.2.1-1)
REM options -cpp -mtune=generic -march=x86-64 -g -O0 -fpre-include=/usr/include/finclude/math-vector-fortran.h
REM seed -333806183 -1862059255 364911119 -1907359878 -459654496 178898324 2053646389 -1375761146 157918210 -1968925515 -1373770896 -1782352309 914729186 1633963390 -183895599 757505283 -2059768627 265007367 -1523834937 1560429722 221365475 764361139 311102970 1128278436 2867335 -648618942 -2041144677 379647657 696058878 -1676316196 -331785110 1365691965 -1171144058
REM
CELL 1.54180   50.00000   50.00000   50.00000   90.00000   90.00000   90.00000
LATT -1
SFAC C  
C      1  0.4737740000000  0.4689350000000  0.4682460000000 1.0
C      1  0.5284780000000  0.5304380000000  0.4691420000000 1.0
C      1  0.5043490000000  0.4638780000000  0.4220460000000 1.0
C      1  0.4987640000000  0.5365260000000  0.4227270000000 1.0
C      1  0.4782350000000  0.5646480000000  0.4890990000000 1.0
C      1  0.5254130000000  0.4349460000000  0.4876180000000 1.0
C      1  0.3841130000000  0.4400880000000  0.5151430000000 1.0
C      1  0.5905990000000  0.5647200000000  0.4990440000000 1.0
C      1  0.4923160000000  0.4892680000000  0.4273110000000 1.0
C      1  0.5106000000000  0.5109690000000  0.4276240000000 1.0
C      1  0.6007010000000  0.4821990000000  0.4871420000000 1.0
C      1  0.4008700000000  0.5216760000000  0.4858410000000 1.0
C      1  0.5318650000000  0.5795280000000  0.4638730000000 1.0
C      1  0.4716980000000  0.4198280000000  0.4625460000000 1.0
C      1  0.5302050000000  0.4781330000000  0.5650280000000 1.0
C      1  0.4715550000000  0.5178280000000  0.5622000000000 1.0
C      1  0.4794950000000  0.4801370000000  0.4945900000000 1.0
C      1  0.5214080000000  0.5184850000000  0.4946760000000 1.0
C      1  0.5315670000000  0.5460840000000  0.5420290000000 1.0
C      1  0.4803400000000  0.4452860000000  0.5489960000000 1.0
C      1  0.4020640000000  0.4581310000000  0.5207850000000 1.0
C      1  0.5733390000000  0.5514340000000  0.5133480000000 1.0
C      1  0.5289230000000  0.5082040000000  0.4500350000000 1.0
C      1  0.4737440000000  0.4915470000000  0.4495860000000 1.0
C      1  0.4413330000000  0.4944260000000  0.5297420000000 1.0
C      1  0.5574090000000  0.5068800000000  0.5314980000000 1.0
C      1  0.4945470000000  0.4331040000000  0.5295470000000 1.0
C      1  0.5122210000000  0.5627460000000  0.5295160000000 1.0
C      1  0.5026270000000  0.4837810000000  0.5703750000000 1.0
C      1  0.4988110000000  0.5136180000000  0.5698090000000 1.0
C      1  0.5187840000000  0.5558960000000  0.4603730000000 1.0
C      1  0.4843300000000  0.4437690000000  0.4593120000000 1.0
C      1  0.4788490000000  0.4713400000000  0.5592190000000 1.0
C      1  0.5235010000000  0.5257940000000  0.5611680000000 1.0
C      1  0.5426760000000  0.4558590000000  0.5536070000000 1.0
C      1  0.4588360000000  0.5411310000000  0.5533900000000 1.0
C      1  0.5645010000000  0.4533210000000  0.4689100000000 1.0
C      1  0.4389570000000  0.5481920000000  0.4683740000000 1.0
C      1  0.4718410000000  0.5162140000000  0.4654960000000 1.0
C      1  0.5304280000000  0.4833940000000  0.4657310000000 1.0
C      1  0.4963660000000  0.5257440000000  0.5056430000000 1.0
C      1  0.5048430000000  0.4726670000000  0.5053770000000 1.0
C      1  0.4204650000000  0.4764430000000  0.5260520000000 1.0
C      1  0.5552340000000  0.5359550000000  0.5275270000000 1.0
C      1  0.4473250000000  0.5418930000000  0.5289930000000 1.0
C      1  0.5546800000000  0.4583560000000  0.5295100000000 1.0
C      1  0.5751390000000  0.4727390000000  0.4882590000000 1.0
C      1  0.4270140000000  0.5293260000000  0.4872520000000 1.0
C      1  0.4937700000000  0.5532220000000  0.4453870000000 1.0
C      1  0.5095220000000  0.4469600000000  0.4444940000000 1.0
C      1  0.4726100000000  0.5097500000000  0.4962050000000 1.0
C      1  0.5285370000000  0.4893600000000  0.4963640000000 1.0
C      1  0.4602450000000  0.4925350000000  0.5516680000000 1.0
C      1  0.5424520000000  0.5029910000000  0.5568430000000 1.0
C      1  0.4936880000000  0.5537800000000  0.5101890000000 1.0
C      1  0.5092360000000  0.4446080000000  0.5086250000000 1.0
C      1  0.4692350000000  0.5476100000000  0.4636320000000 1.0
C      1  0.5342030000000  0.4527090000000  0.4630760000000 1.0
C      1  0.5553610000000  0.4828140000000  0.5106860000000 1.0
C      1  0.4460110000000  0.5181580000000  0.5094730000000 1.0
END
