TITL C-2323480-5884-405 6.51017088378225e-06 125000 -363.778104415995 0 0 60 (Ci) n - 1
REM
REM in /home/bkarasulu/CARBON/AIRSS/Generating-Clusters/LCBOP/Higher-Symm/Only-C60/SD-CG/FIRE-HFTN
REM
REM
REM
REM
REM
REM ./C.cell (50c204cfd26239f34c78669fe23a5462)
REM
REM compiler GCC version 9.2.1 20190827 (Red Hat 9.2.1-1)
REM options -cpp -mtune=generic -march=x86-64 -g -O0 -fpre-include=/usr/include/finclude/math-vector-fortran.h
REM seed 1012224796 489323572 640429842 -1771193575 1976223776 -434139652 -416737350 350964483 -981747839 198756466 997729772 2121967156 1140494683 465704913 -516138373 -224052525 -1790885529 -1872994527 812493968 1097475300 -1186991884 -1991316133 -1450294050 1676252591 -94876447 1410190850 -159929757 -149100754 -260092205 64074356 946924011 1460167780 294926224
REM
CELL 1.54180   50.00000   50.00000   50.00000   90.00000   90.00000   90.00000
LATT -1
SFAC C  
C      1  0.5137870000000  0.4587420000000  0.4438940000000 1.0
C      1  0.5133170000000  0.4444850000000  0.5410610000000 1.0
C      1  0.5140760000000  0.5408060000000  0.5551310000000 1.0
C      1  0.5139610000000  0.5551210000000  0.4590320000000 1.0
C      1  0.4863060000000  0.4588300000000  0.4438190000000 1.0
C      1  0.4858550000000  0.4446750000000  0.5410100000000 1.0
C      1  0.4866190000000  0.5410000000000  0.5551490000000 1.0
C      1  0.4865090000000  0.5552180000000  0.4590790000000 1.0
C      1  0.5665960000000  0.5230260000000  0.4964520000000 1.0
C      1  0.5657850000000  0.4958580000000  0.4783990000000 1.0
C      1  0.5653570000000  0.4782730000000  0.5031290000000 1.0
C      1  0.5658660000000  0.5023210000000  0.5216310000000 1.0
C      1  0.4342260000000  0.5215580000000  0.4958900000000 1.0
C      1  0.4346290000000  0.4968340000000  0.4782890000000 1.0
C      1  0.4342910000000  0.4783310000000  0.5023370000000 1.0
C      1  0.4336920000000  0.5035300000000  0.5230580000000 1.0
C      1  0.5136450000000  0.5212820000000  0.4002880000000 1.0
C      1  0.5132410000000  0.3997330000000  0.4791180000000 1.0
C      1  0.5140060000000  0.4792910000000  0.6005040000000 1.0
C      1  0.5126070000000  0.6002470000000  0.5210100000000 1.0
C      1  0.4870060000000  0.5213250000000  0.4001820000000 1.0
C      1  0.4866060000000  0.3997880000000  0.4790700000000 1.0
C      1  0.4873720000000  0.4793480000000  0.6005940000000 1.0
C      1  0.4859720000000  0.6001080000000  0.5209750000000 1.0
C      1  0.5241680000000  0.5380480000000  0.4800220000000 1.0
C      1  0.5240320000000  0.4793130000000  0.4614230000000 1.0
C      1  0.5236850000000  0.4618580000000  0.5204200000000 1.0
C      1  0.5241480000000  0.5198970000000  0.5378870000000 1.0
C      1  0.4762760000000  0.5381070000000  0.4799920000000 1.0
C      1  0.4761020000000  0.4794650000000  0.4612910000000 1.0
C      1  0.4757880000000  0.4621490000000  0.5202790000000 1.0
C      1  0.4762200000000  0.5201680000000  0.5379880000000 1.0
C      1  0.4625510000000  0.5885640000000  0.5156610000000 1.0
C      1  0.4633970000000  0.5160850000000  0.4113820000000 1.0
C      1  0.4631490000000  0.4112960000000  0.4842860000000 1.0
C      1  0.4638730000000  0.4846260000000  0.5892050000000 1.0
C      1  0.5361970000000  0.5890060000000  0.5158080000000 1.0
C      1  0.5371530000000  0.5159610000000  0.4116590000000 1.0
C      1  0.5367130000000  0.4111620000000  0.4844480000000 1.0
C      1  0.5374210000000  0.4844790000000  0.5888980000000 1.0
C      1  0.4489560000000  0.5678640000000  0.5057270000000 1.0
C      1  0.4494110000000  0.5061180000000  0.4318120000000 1.0
C      1  0.4493900000000  0.4319690000000  0.4940290000000 1.0
C      1  0.4499790000000  0.4943690000000  0.5686270000000 1.0
C      1  0.5502820000000  0.5685650000000  0.5060380000000 1.0
C      1  0.5509860000000  0.5059060000000  0.4321490000000 1.0
C      1  0.5504200000000  0.4318080000000  0.4943280000000 1.0
C      1  0.5510210000000  0.4941570000000  0.5680890000000 1.0
C      1  0.5484470000000  0.5063530000000  0.5429840000000 1.0
C      1  0.5484250000000  0.5435930000000  0.4934170000000 1.0
C      1  0.5484120000000  0.4928780000000  0.4568360000000 1.0
C      1  0.5479260000000  0.4567650000000  0.5068110000000 1.0
C      1  0.4519290000000  0.5067860000000  0.5435580000000 1.0
C      1  0.4517250000000  0.5430150000000  0.4930830000000 1.0
C      1  0.4518680000000  0.4932410000000  0.4565880000000 1.0
C      1  0.4516950000000  0.4570040000000  0.5064200000000 1.0
C      1  0.5001820000000  0.5210940000000  0.4901620000000 1.0
C      1  0.4998870000000  0.4792530000000  0.5106760000000 1.0
C      1  0.5000880000000  0.5101510000000  0.5208210000000 1.0
C      1  0.5000530000000  0.4892000000000  0.4780970000000 1.0
END
