TITL C-2323481-8605-471 19248.2639720393 125000 -335.987392721008 0 0 60 (C1) n - 1
REM
REM in /home/bkarasulu/CARBON/AIRSS/Generating-Clusters/LCBOP/Higher-Symm/Only-C60/SD-CG/FIRE-HFTN
REM
REM
REM
REM
REM
REM ./C.cell (50c204cfd26239f34c78669fe23a5462)
REM
REM compiler GCC version 9.2.1 20190827 (Red Hat 9.2.1-1)
REM options -cpp -mtune=generic -march=x86-64 -g -O0 -fpre-include=/usr/include/finclude/math-vector-fortran.h
REM seed -408683566 -591133002 1137453252 -649052299 774095930 933056525 -912788415 -517241884 1382521877 -1872860743 -1996658421 -362975013 1500590332 -1032518961 308090409 -1031438186 -2093702342 103644800 -1725538744 164738336 1778587207 -263418686 -863625982 12957685 587085512 -877814334 -838588207 1502488646 -1714245024 -1508254977 -95105970 -938410897 273533212
REM
CELL 1.54180   50.00000   50.00000   50.00000   90.00000   90.00000   90.00000
LATT -1
SFAC C  
C      1  0.4911440000000  0.4770890000000  0.4835250000000 1.0
C      1  0.4857560000000  0.5247970000000  0.4963340000000 1.0
C      1  0.5273970000000  0.5125400000000  0.4867230000000 1.0
C      1  0.4737840000000  0.5142720000000  0.5608190000000 1.0
C      1  0.5268140000000  0.5164460000000  0.5650400000000 1.0
C      1  0.5018660000000  0.4714490000000  0.5599080000000 1.0
C      1  0.5741380000000  0.5495960000000  0.5060700000000 1.0
C      1  0.5147450000000  0.4149270000000  0.4948460000000 1.0
C      1  0.4183750000000  0.5353480000000  0.5007850000000 1.0
C      1  0.5537870000000  0.5517720000000  0.4864630000000 1.0
C      1  0.5201610000000  0.4366960000000  0.4778240000000 1.0
C      1  0.4255600000000  0.5157230000000  0.4815520000000 1.0
C      1  0.5085340000000  0.5373780000000  0.4842910000000 1.0
C      1  0.5207100000000  0.4850530000000  0.4803730000000 1.0
C      1  0.4729010000000  0.5016110000000  0.4844180000000 1.0
C      1  0.5382570000000  0.4722330000000  0.4397030000000 1.0
C      1  0.4422340000000  0.4737250000000  0.4428820000000 1.0
C      1  0.5078030000000  0.5411250000000  0.4387340000000 1.0
C      1  0.5334380000000  0.4599510000000  0.4900470000000 1.0
C      1  0.4452150000000  0.4979530000000  0.4934460000000 1.0
C      1  0.5266550000000  0.5570430000000  0.4981000000000 1.0
C      1  0.5498460000000  0.5252680000000  0.4697670000000 1.0
C      1  0.4951010000000  0.4508810000000  0.4643500000000 1.0
C      1  0.4384500000000  0.5237080000000  0.4568710000000 1.0
C      1  0.4568950000000  0.5584550000000  0.4904040000000 1.0
C      1  0.5789170000000  0.5011550000000  0.5002840000000 1.0
C      1  0.4685570000000  0.4239170000000  0.4972950000000 1.0
C      1  0.5335460000000  0.5334760000000  0.4445170000000 1.0
C      1  0.5116530000000  0.4634210000000  0.4400390000000 1.0
C      1  0.4413770000000  0.5008240000000  0.4397810000000 1.0
C      1  0.5238230000000  0.5083650000000  0.5169410000000 1.0
C      1  0.4842610000000  0.4674250000000  0.5130500000000 1.0
C      1  0.4971730000000  0.5207760000000  0.5225410000000 1.0
C      1  0.5485410000000  0.5325110000000  0.5429710000000 1.0
C      1  0.5032490000000  0.4496870000000  0.5273780000000 1.0
C      1  0.4518580000000  0.5244510000000  0.5359960000000 1.0
C      1  0.4819640000000  0.5465920000000  0.4457880000000 1.0
C      1  0.5607250000000  0.4825420000000  0.4525490000000 1.0
C      1  0.4478960000000  0.4504660000000  0.4558590000000 1.0
C      1  0.5699790000000  0.5271090000000  0.5232390000000 1.0
C      1  0.4942520000000  0.4229640000000  0.5135160000000 1.0
C      1  0.4429530000000  0.5446750000000  0.5140660000000 1.0
C      1  0.5694500000000  0.5026630000000  0.4724280000000 1.0
C      1  0.4687580000000  0.4373360000000  0.4706230000000 1.0
C      1  0.4581200000000  0.5452620000000  0.4623360000000 1.0
C      1  0.5534450000000  0.4396380000000  0.5318040000000 1.0
C      1  0.4159810000000  0.4865910000000  0.5334000000000 1.0
C      1  0.5320900000000  0.5837380000000  0.5416620000000 1.0
C      1  0.4652370000000  0.4777980000000  0.5316330000000 1.0
C      1  0.5008470000000  0.5437600000000  0.5395960000000 1.0
C      1  0.5339390000000  0.4860440000000  0.5316430000000 1.0
C      1  0.5328920000000  0.4580260000000  0.5203650000000 1.0
C      1  0.4427800000000  0.4952860000000  0.5235750000000 1.0
C      1  0.5260640000000  0.5571480000000  0.5298600000000 1.0
C      1  0.5253480000000  0.4877520000000  0.5592810000000 1.0
C      1  0.4773160000000  0.4851560000000  0.5566190000000 1.0
C      1  0.4993850000000  0.5298260000000  0.5651340000000 1.0
C      1  0.5956340000000  0.4822070000000  0.5099360000000 1.0
C      1  0.4456220000000  0.4125550000000  0.5072080000000 1.0
C      1  0.4667990000000  0.5838200000000  0.4938110000000 1.0
END
