TITL C-2323481-8605-234 -0.000321780155823969 125000 -361.422237797372 0 0 60 (C2) n - 1
REM
REM in /home/bkarasulu/CARBON/AIRSS/Generating-Clusters/LCBOP/Higher-Symm/Only-C60/SD-CG/FIRE-HFTN
REM
REM
REM
REM
REM
REM ./C.cell (50c204cfd26239f34c78669fe23a5462)
REM
REM compiler GCC version 9.2.1 20190827 (Red Hat 9.2.1-1)
REM options -cpp -mtune=generic -march=x86-64 -g -O0 -fpre-include=/usr/include/finclude/math-vector-fortran.h
REM seed 464701319 928943594 1152509756 -1939914378 535194184 -113938508 -154480874 -461915138 509405644 2020372637 946687776 -1892004300 -2118033502 528426619 753994831 -921843888 -312150950 -1613824043 1257133304 1581328484 29987661 52245488 -2026646951 -1427800662 -584679266 1151240282 -166768244 1230951541 -783742624 -673830878 7862438 117989133 -479318319
REM
CELL 1.54180   50.00000   50.00000   50.00000   90.00000   90.00000   90.00000
LATT -1
SFAC C  
C      1  0.4744850000000  0.5047030000000  0.4997220000000 1.0
C      1  0.5255150000000  0.4952970000000  0.4997170000000 1.0
C      1  0.5224350000000  0.4456010000000  0.5388350000000 1.0
C      1  0.4775710000000  0.5543950000000  0.5388440000000 1.0
C      1  0.5891270000000  0.4859070000000  0.4925480000000 1.0
C      1  0.4108720000000  0.5140930000000  0.4925640000000 1.0
C      1  0.4907180000000  0.5267250000000  0.4918220000000 1.0
C      1  0.5092810000000  0.4732750000000  0.4918180000000 1.0
C      1  0.4201680000000  0.4680970000000  0.4871700000000 1.0
C      1  0.5798300000000  0.5319040000000  0.4871590000000 1.0
C      1  0.5212140000000  0.5274390000000  0.4572540000000 1.0
C      1  0.4787790000000  0.4725650000000  0.4572550000000 1.0
C      1  0.5512390000000  0.4751480000000  0.4463540000000 1.0
C      1  0.4487520000000  0.5248570000000  0.4463640000000 1.0
C      1  0.5294710000000  0.4590250000000  0.4378440000000 1.0
C      1  0.4705180000000  0.5409800000000  0.4378520000000 1.0
C      1  0.5720400000000  0.5363360000000  0.5141980000000 1.0
C      1  0.4279630000000  0.4636620000000  0.5142080000000 1.0
C      1  0.5278220000000  0.5279580000000  0.5540680000000 1.0
C      1  0.4721870000000  0.4720380000000  0.5540710000000 1.0
C      1  0.5623270000000  0.5002950000000  0.4531030000000 1.0
C      1  0.4376650000000  0.4997090000000  0.4531130000000 1.0
C      1  0.4474900000000  0.4441440000000  0.5234960000000 1.0
C      1  0.5525140000000  0.5558540000000  0.5234920000000 1.0
C      1  0.4349900000000  0.6124910000000  0.5283600000000 1.0
C      1  0.5650150000000  0.3875060000000  0.5283410000000 1.0
C      1  0.4982810000000  0.4850860000000  0.5590690000000 1.0
C      1  0.5017290000000  0.5149090000000  0.5590700000000 1.0
C      1  0.5287660000000  0.5538550000000  0.5401300000000 1.0
C      1  0.4712400000000  0.4461420000000  0.5401310000000 1.0
C      1  0.5804470000000  0.5059840000000  0.4744820000000 1.0
C      1  0.4195490000000  0.4940180000000  0.4744950000000 1.0
C      1  0.4532640000000  0.4900270000000  0.5426010000000 1.0
C      1  0.5467430000000  0.5099700000000  0.5425940000000 1.0
C      1  0.4596200000000  0.5862590000000  0.4104040000000 1.0
C      1  0.5403650000000  0.4137480000000  0.4103910000000 1.0
C      1  0.4277640000000  0.4882930000000  0.5303090000000 1.0
C      1  0.5722420000000  0.5117040000000  0.5302980000000 1.0
C      1  0.4967170000000  0.4328290000000  0.5374360000000 1.0
C      1  0.5032890000000  0.5671680000000  0.5374410000000 1.0
C      1  0.4825840000000  0.4802810000000  0.4847870000000 1.0
C      1  0.5174140000000  0.5197200000000  0.4847860000000 1.0
C      1  0.4810150000000  0.5269490000000  0.5436900000000 1.0
C      1  0.5189930000000  0.4730470000000  0.5436850000000 1.0
C      1  0.5022510000000  0.4652890000000  0.4430070000000 1.0
C      1  0.4977400000000  0.5347160000000  0.4430100000000 1.0
C      1  0.4191910000000  0.5147900000000  0.5198540000000 1.0
C      1  0.5808120000000  0.4852090000000  0.5198390000000 1.0
C      1  0.4304300000000  0.5396640000000  0.5295580000000 1.0
C      1  0.5695750000000  0.4603340000000  0.5295430000000 1.0
C      1  0.4420220000000  0.5875030000000  0.5306570000000 1.0
C      1  0.5579830000000  0.4124950000000  0.5306400000000 1.0
C      1  0.4499830000000  0.5608620000000  0.5330320000000 1.0
C      1  0.5500220000000  0.4391350000000  0.5330190000000 1.0
C      1  0.5351560000000  0.4355940000000  0.4236130000000 1.0
C      1  0.4648310000000  0.5644120000000  0.4236240000000 1.0
C      1  0.5321980000000  0.4914470000000  0.5271370000000 1.0
C      1  0.4678060000000  0.5085510000000  0.5271430000000 1.0
C      1  0.4541040000000  0.4780070000000  0.4454800000000 1.0
C      1  0.5458870000000  0.5219970000000  0.4454740000000 1.0
END
