TITL C-2323484-8600-525 5.29637457708793e-06 125000 -382.013050377163 0 0 60 (Td) n - 1
REM
REM in /home/bkarasulu/CARBON/AIRSS/Generating-Clusters/LCBOP/Higher-Symm/Only-C60/SD-CG/FIRE-HFTN
REM
REM
REM
REM
REM
REM ./C.cell (50c204cfd26239f34c78669fe23a5462)
REM
REM compiler GCC version 9.2.1 20190827 (Red Hat 9.2.1-1)
REM options -cpp -mtune=generic -march=x86-64 -g -O0 -fpre-include=/usr/include/finclude/math-vector-fortran.h
REM seed 143436377 768569185 2146495433 1828065374 -61864302 259307432 979728916 2031949987 2016965017 2072793072 -182216423 -1057076837 1410756667 993650789 1301596757 1192211938 1774669277 -84515487 -51378779 -1519051437 -1854699202 1016184206 1251811252 -242869382 -1531228799 1579363648 1096609686 1915334759 2113840190 -509829206 403551727 -150152703 963785109
REM
CELL 1.54180   50.00000   50.00000   50.00000   90.00000   90.00000   90.00000
LATT -1
SFAC C  
C      1  0.4785170000000  0.5416750000000  0.4382220000000 1.0
C      1  0.5416750000000  0.4382210000000  0.4785160000000 1.0
C      1  0.4382220000000  0.4785170000000  0.5416750000000 1.0
C      1  0.4785160000000  0.4583250000000  0.5617780000000 1.0
C      1  0.5214840000000  0.5416750000000  0.5617780000000 1.0
C      1  0.5214840000000  0.4583250000000  0.4382220000000 1.0
C      1  0.5416750000000  0.5617780000000  0.5214840000000 1.0
C      1  0.4583250000000  0.4382220000000  0.5214840000000 1.0
C      1  0.4583250000000  0.5617780000000  0.4785160000000 1.0
C      1  0.4382220000000  0.5214840000000  0.4583250000000 1.0
C      1  0.5617780000000  0.4785160000000  0.4583250000000 1.0
C      1  0.5617780000000  0.5214840000000  0.5416750000000 1.0
C      1  0.4785160000000  0.4382220000000  0.5416750000000 1.0
C      1  0.5416750000000  0.4785160000000  0.4382220000000 1.0
C      1  0.4382220000000  0.5416750000000  0.4785160000000 1.0
C      1  0.4785170000000  0.5617780000000  0.4583250000000 1.0
C      1  0.5214840000000  0.5617780000000  0.5416750000000 1.0
C      1  0.5214840000000  0.4382210000000  0.4583250000000 1.0
C      1  0.5416750000000  0.5214840000000  0.5617780000000 1.0
C      1  0.4583250000000  0.5214840000000  0.4382220000000 1.0
C      1  0.4583250000000  0.4785170000000  0.5617780000000 1.0
C      1  0.4382210000000  0.4583250000000  0.5214840000000 1.0
C      1  0.5617780000000  0.4583250000000  0.4785160000000 1.0
C      1  0.5617780000000  0.5416750000000  0.5214840000000 1.0
C      1  0.4985380000000  0.5377440000000  0.5774760000000 1.0
C      1  0.5377440000000  0.5774760000000  0.4985370000000 1.0
C      1  0.5774760000000  0.4985370000000  0.5377440000000 1.0
C      1  0.4985380000000  0.4622560000000  0.4225240000000 1.0
C      1  0.5014630000000  0.5377440000000  0.4225240000000 1.0
C      1  0.5014620000000  0.4622560000000  0.5774760000000 1.0
C      1  0.5377440000000  0.4225240000000  0.5014630000000 1.0
C      1  0.4622560000000  0.5774760000000  0.5014620000000 1.0
C      1  0.4622560000000  0.4225240000000  0.4985380000000 1.0
C      1  0.5774760000000  0.5014620000000  0.4622560000000 1.0
C      1  0.4225240000000  0.4985380000000  0.4622560000000 1.0
C      1  0.4225240000000  0.5014630000000  0.5377440000000 1.0
C      1  0.4985380000000  0.5774760000000  0.5377440000000 1.0
C      1  0.5377440000000  0.4985380000000  0.5774760000000 1.0
C      1  0.5774760000000  0.5377440000000  0.4985380000000 1.0
C      1  0.4985370000000  0.4225240000000  0.4622560000000 1.0
C      1  0.5014620000000  0.4225240000000  0.5377440000000 1.0
C      1  0.5014630000000  0.5774760000000  0.4622560000000 1.0
C      1  0.5377440000000  0.5014620000000  0.4225240000000 1.0
C      1  0.4622560000000  0.5014630000000  0.5774760000000 1.0
C      1  0.4622560000000  0.4985380000000  0.4225240000000 1.0
C      1  0.5774760000000  0.4622560000000  0.5014630000000 1.0
C      1  0.4225240000000  0.4622560000000  0.4985380000000 1.0
C      1  0.4225240000000  0.5377440000000  0.5014620000000 1.0
C      1  0.4769050000000  0.5230950000000  0.5826230000000 1.0
C      1  0.5230950000000  0.5826230000000  0.4769050000000 1.0
C      1  0.5826230000000  0.4769050000000  0.5230950000000 1.0
C      1  0.5230950000000  0.5230940000000  0.4173770000000 1.0
C      1  0.5230950000000  0.4769050000000  0.5826230000000 1.0
C      1  0.5230940000000  0.4173770000000  0.5230950000000 1.0
C      1  0.4769060000000  0.5826230000000  0.5230950000000 1.0
C      1  0.4769050000000  0.4173770000000  0.4769050000000 1.0
C      1  0.5826230000000  0.5230940000000  0.4769050000000 1.0
C      1  0.4173770000000  0.4769060000000  0.4769050000000 1.0
C      1  0.4173770000000  0.5230950000000  0.5230950000000 1.0
C      1  0.4769050000000  0.4769050000000  0.4173770000000 1.0
END
