TITL C-2323478-8180-196 4.20338177203299e-05 125000 -350.543215687034 0 0 60 (Cs) n - 1
REM
REM in /home/bkarasulu/CARBON/AIRSS/Generating-Clusters/LCBOP/Higher-Symm/Only-C60/SD-CG/FIRE-HFTN
REM
REM
REM
REM
REM
REM ./C.cell (50c204cfd26239f34c78669fe23a5462)
REM
REM compiler GCC version 9.2.1 20190827 (Red Hat 9.2.1-1)
REM options -cpp -mtune=generic -march=x86-64 -g -O0 -fpre-include=/usr/include/finclude/math-vector-fortran.h
REM seed -120349486 -341299653 -264753180 2044928034 585797462 1489645859 2088737099 -43734136 -1730646051 660844219 1576113336 138564249 -929262380 -320195048 -1599993087 426131407 -1321474108 -956691496 196676938 843098536 -1795810883 1386030002 825983509 1017086589 -386070849 -85358769 -1863702923 1644684222 571951571 -567674907 1092783215 -486819896 1750012669
REM
CELL 1.54180   50.00000   50.00000   50.00000   90.00000   90.00000   90.00000
LATT -1
SFAC C  
C      1  0.4741710000000  0.5042880000000  0.5667820000000 1.0
C      1  0.4741710000000  0.5042730000000  0.4332170000000 1.0
C      1  0.4145640000000  0.4693530000000  0.5884610000000 1.0
C      1  0.4145630000000  0.4693330000000  0.4115470000000 1.0
C      1  0.5451630000000  0.5320530000000  0.5971130000000 1.0
C      1  0.5451620000000  0.5320320000000  0.4028790000000 1.0
C      1  0.5599420000000  0.5223850000000  0.5231320000000 1.0
C      1  0.5599410000000  0.5223790000000  0.4768630000000 1.0
C      1  0.5028870000000  0.4492430000000  0.4757950000000 1.0
C      1  0.5028870000000  0.4492480000000  0.5242160000000 1.0
C      1  0.5408980000000  0.4740830000000  0.5551110000000 1.0
C      1  0.5408970000000  0.4740700000000  0.4448940000000 1.0
C      1  0.5366910000000  0.5060380000000  0.5145510000000 1.0
C      1  0.5366910000000  0.5060350000000  0.4854470000000 1.0
C      1  0.5728650000000  0.4759250000000  0.5153840000000 1.0
C      1  0.5728650000000  0.4759220000000  0.4846210000000 1.0
C      1  0.4914200000000  0.5011080000000  0.4851460000000 1.0
C      1  0.4914200000000  0.5011120000000  0.5148540000000 1.0
C      1  0.4948920000000  0.4855060000000  0.4256090000000 1.0
C      1  0.4948930000000  0.4855220000000  0.5743940000000 1.0
C      1  0.5506610000000  0.4640670000000  0.5300860000000 1.0
C      1  0.5506610000000  0.4640610000000  0.4699210000000 1.0
C      1  0.4276490000000  0.4820140000000  0.5135090000000 1.0
C      1  0.4276490000000  0.4820110000000  0.4864950000000 1.0
C      1  0.4871480000000  0.4620070000000  0.4134500000000 1.0
C      1  0.4871490000000  0.4620260000000  0.5865580000000 1.0
C      1  0.5233740000000  0.4898490000000  0.4286980000000 1.0
C      1  0.5233750000000  0.4898650000000  0.5713040000000 1.0
C      1  0.4485820000000  0.4960600000000  0.5559780000000 1.0
C      1  0.4485810000000  0.4960480000000  0.4440230000000 1.0
C      1  0.5479040000000  0.5491730000000  0.4847660000000 1.0
C      1  0.5479040000000  0.5491760000000  0.5152220000000 1.0
C      1  0.4396210000000  0.5022850000000  0.5293190000000 1.0
C      1  0.4396200000000  0.5022790000000  0.4706810000000 1.0
C      1  0.4759050000000  0.5522420000000  0.5477870000000 1.0
C      1  0.4759050000000  0.5522310000000  0.4522020000000 1.0
C      1  0.4776290000000  0.5323220000000  0.4320620000000 1.0
C      1  0.4776290000000  0.5323370000000  0.5679310000000 1.0
C      1  0.5348440000000  0.5109280000000  0.4141600000000 1.0
C      1  0.5348450000000  0.5109470000000  0.5858370000000 1.0
C      1  0.5201180000000  0.5462460000000  0.5270910000000 1.0
C      1  0.5201180000000  0.5462400000000  0.4728990000000 1.0
C      1  0.4547000000000  0.5488920000000  0.5293740000000 1.0
C      1  0.4547000000000  0.5488860000000  0.4706150000000 1.0
C      1  0.5005380000000  0.5626450000000  0.4614250000000 1.0
C      1  0.5005380000000  0.5626530000000  0.5385610000000 1.0
C      1  0.5123210000000  0.5175050000000  0.5248760000000 1.0
C      1  0.5123210000000  0.5174990000000  0.4751200000000 1.0
C      1  0.4891260000000  0.4737370000000  0.5204860000000 1.0
C      1  0.4891260000000  0.4737320000000  0.4795190000000 1.0
C      1  0.4890940000000  0.4261910000000  0.5137900000000 1.0
C      1  0.4890940000000  0.4261880000000  0.4862260000000 1.0
C      1  0.5307300000000  0.4506620000000  0.4854400000000 1.0
C      1  0.5307300000000  0.4506650000000  0.5145710000000 1.0
C      1  0.4445820000000  0.5269990000000  0.5146230000000 1.0
C      1  0.4445820000000  0.5269960000000  0.4853710000000 1.0
C      1  0.4309790000000  0.4823050000000  0.5729080000000 1.0
C      1  0.4309780000000  0.4822890000000  0.4270960000000 1.0
C      1  0.5810030000000  0.5039170000000  0.5200110000000 1.0
C      1  0.5810030000000  0.5039130000000  0.4799880000000 1.0
END
