TITL C-2323487-9546-593 0.507192069885869 125000 -333.277793819834 0 0 60 (Td) n - 1
REM
REM in /home/bkarasulu/CARBON/AIRSS/Generating-Clusters/LCBOP/Higher-Symm/Only-C60/SD-CG/FIRE-HFTN
REM
REM
REM
REM
REM
REM ./C.cell (50c204cfd26239f34c78669fe23a5462)
REM
REM compiler GCC version 9.2.1 20190827 (Red Hat 9.2.1-1)
REM options -cpp -mtune=generic -march=x86-64 -g -O0 -fpre-include=/usr/include/finclude/math-vector-fortran.h
REM seed 225492646 -1972226355 47011161 -1432680682 2020604005 737873969 -418493604 -1283455509 -1492276412 1522602078 260230589 535003717 -1325891841 2037381680 -933151884 -603005520 -24886310 1607161973 -591799347 1131191248 -174346479 -182571547 277356431 8526366 -850122856 497633931 -1233360327 -732596362 -492802616 955121907 215307097 769961963 -1201016141
REM
CELL 1.54180   50.00000   50.00000   50.00000   90.00000   90.00000   90.00000
LATT -1
SFAC C  
C      1  0.5237890000000  0.4993610000000  0.4193870000000 1.0
C      1  0.4993610000000  0.4193870000000  0.5237890000000 1.0
C      1  0.4193870000000  0.5237890000000  0.4993610000000 1.0
C      1  0.4762110000000  0.5006390000000  0.4193870000000 1.0
C      1  0.5237890000000  0.5006390000000  0.5806130000000 1.0
C      1  0.4762110000000  0.4993610000000  0.5806130000000 1.0
C      1  0.5006390000000  0.5806130000000  0.5237890000000 1.0
C      1  0.4993610000000  0.5806130000000  0.4762110000000 1.0
C      1  0.5006390000000  0.4193870000000  0.4762110000000 1.0
C      1  0.5806130000000  0.4762110000000  0.4993610000000 1.0
C      1  0.4193870000000  0.4762110000000  0.5006390000000 1.0
C      1  0.5806130000000  0.5237890000000  0.5006390000000 1.0
C      1  0.4993610000000  0.5237890000000  0.4193870000000 1.0
C      1  0.4193870000000  0.4993610000000  0.5237890000000 1.0
C      1  0.5237890000000  0.4193870000000  0.4993610000000 1.0
C      1  0.5006390000000  0.4762110000000  0.4193870000000 1.0
C      1  0.5006390000000  0.5237890000000  0.5806130000000 1.0
C      1  0.4993610000000  0.4762110000000  0.5806130000000 1.0
C      1  0.5806130000000  0.5006390000000  0.5237890000000 1.0
C      1  0.5806130000000  0.4993610000000  0.4762110000000 1.0
C      1  0.4193870000000  0.5006390000000  0.4762110000000 1.0
C      1  0.4762110000000  0.5806130000000  0.4993610000000 1.0
C      1  0.4762110000000  0.4193870000000  0.5006390000000 1.0
C      1  0.5237890000000  0.5806130000000  0.5006390000000 1.0
C      1  0.4620520000000  0.5570360000000  0.5008880000000 1.0
C      1  0.5570360000000  0.5008880000000  0.4620520000000 1.0
C      1  0.5008880000000  0.4620520000000  0.5570360000000 1.0
C      1  0.5379480000000  0.4429640000000  0.5008880000000 1.0
C      1  0.4620520000000  0.4429640000000  0.4991120000000 1.0
C      1  0.5379480000000  0.5570360000000  0.4991120000000 1.0
C      1  0.4429640000000  0.4991120000000  0.4620520000000 1.0
C      1  0.5570360000000  0.4991120000000  0.5379480000000 1.0
C      1  0.4429640000000  0.5008880000000  0.5379480000000 1.0
C      1  0.4991120000000  0.5379480000000  0.5570360000000 1.0
C      1  0.5008880000000  0.5379480000000  0.4429640000000 1.0
C      1  0.4991120000000  0.4620520000000  0.4429640000000 1.0
C      1  0.5570360000000  0.4620520000000  0.5008880000000 1.0
C      1  0.5008880000000  0.5570360000000  0.4620520000000 1.0
C      1  0.4620520000000  0.5008880000000  0.5570360000000 1.0
C      1  0.4429640000000  0.5379480000000  0.5008880000000 1.0
C      1  0.4429640000000  0.4620520000000  0.4991120000000 1.0
C      1  0.5570360000000  0.5379480000000  0.4991120000000 1.0
C      1  0.4991120000000  0.4429640000000  0.4620520000000 1.0
C      1  0.4991120000000  0.5570360000000  0.5379480000000 1.0
C      1  0.5008880000000  0.4429640000000  0.5379480000000 1.0
C      1  0.5379480000000  0.4991120000000  0.5570360000000 1.0
C      1  0.5379480000000  0.5008880000000  0.4429640000000 1.0
C      1  0.4620520000000  0.4991120000000  0.4429640000000 1.0
C      1  0.5094830000000  0.4641070000000  0.5094830000000 1.0
C      1  0.4641070000000  0.5094830000000  0.5094830000000 1.0
C      1  0.5094830000000  0.5094830000000  0.4641070000000 1.0
C      1  0.4905170000000  0.5358930000000  0.5094830000000 1.0
C      1  0.5358930000000  0.4905170000000  0.5094830000000 1.0
C      1  0.4641070000000  0.4905170000000  0.4905170000000 1.0
C      1  0.5358930000000  0.5094830000000  0.4905170000000 1.0
C      1  0.5094830000000  0.4905170000000  0.5358930000000 1.0
C      1  0.4905170000000  0.5094830000000  0.5358930000000 1.0
C      1  0.4905170000000  0.4641070000000  0.4905170000000 1.0
C      1  0.5094830000000  0.5358930000000  0.4905170000000 1.0
C      1  0.4905170000000  0.4905170000000  0.4641070000000 1.0
END
