TITL C-2323483-8886-301 56.805593427314 125000 -361.77883671319 0 0 60 (C1) n - 1
REM
REM in /home/bkarasulu/CARBON/AIRSS/Generating-Clusters/LCBOP/Higher-Symm/Only-C60/SD-CG/FIRE-HFTN
REM
REM
REM
REM
REM
REM ./C.cell (50c204cfd26239f34c78669fe23a5462)
REM
REM compiler GCC version 9.2.1 20190827 (Red Hat 9.2.1-1)
REM options -cpp -mtune=generic -march=x86-64 -g -O0 -fpre-include=/usr/include/finclude/math-vector-fortran.h
REM seed 954398997 1353067011 45503955 105802973 -832400047 625592371 360450178 1771771886 983560568 2033959057 1771344355 749138996 1730016862 1780968874 880361159 1615538025 1423584454 781473617 -938886566 -611254691 94264167 1119924290 1141555761 482779081 1859562288 -1482636487 -1336387145 827480466 1028093648 390289105 -454792991 -1553692048 -153086589
REM
CELL 1.54180   50.00000   50.00000   50.00000   90.00000   90.00000   90.00000
LATT -1
SFAC C  
C      1  0.5844870000000  0.5139350000000  0.5290350000000 1.0
C      1  0.5003980000000  0.5251610000000  0.5726380000000 1.0
C      1  0.5134460000000  0.5672900000000  0.5075170000000 1.0
C      1  0.4368260000000  0.4752540000000  0.5225780000000 1.0
C      1  0.5881170000000  0.5113150000000  0.4996140000000 1.0
C      1  0.4273530000000  0.4859570000000  0.4961370000000 1.0
C      1  0.4838150000000  0.4928100000000  0.5726740000000 1.0
C      1  0.4683700000000  0.4979330000000  0.4227820000000 1.0
C      1  0.4694400000000  0.5216780000000  0.4389840000000 1.0
C      1  0.4843750000000  0.4173520000000  0.4873730000000 1.0
C      1  0.5076680000000  0.4287800000000  0.4712910000000 1.0
C      1  0.4940420000000  0.5662270000000  0.4846990000000 1.0
C      1  0.4497400000000  0.4699500000000  0.4572660000000 1.0
C      1  0.4655060000000  0.4716600000000  0.4332240000000 1.0
C      1  0.4606130000000  0.4544270000000  0.4784080000000 1.0
C      1  0.5605810000000  0.5367380000000  0.4611370000000 1.0
C      1  0.4558230000000  0.5190980000000  0.5281490000000 1.0
C      1  0.5377250000000  0.4605920000000  0.5302810000000 1.0
C      1  0.5174170000000  0.5152420000000  0.4337580000000 1.0
C      1  0.4622630000000  0.5450570000000  0.5398890000000 1.0
C      1  0.5241600000000  0.4679270000000  0.5549950000000 1.0
C      1  0.5380610000000  0.5536820000000  0.4682630000000 1.0
C      1  0.4585500000000  0.5660980000000  0.5197550000000 1.0
C      1  0.5203460000000  0.4461110000000  0.5127540000000 1.0
C      1  0.5262420000000  0.4960700000000  0.5536910000000 1.0
C      1  0.5057390000000  0.5243490000000  0.5190080000000 1.0
C      1  0.5457560000000  0.5108960000000  0.5085250000000 1.0
C      1  0.5049820000000  0.5028150000000  0.5359300000000 1.0
C      1  0.5256340000000  0.4979220000000  0.4546790000000 1.0
C      1  0.5079170000000  0.5024570000000  0.4769050000000 1.0
C      1  0.4941730000000  0.4555780000000  0.5142950000000 1.0
C      1  0.4809220000000  0.4689200000000  0.4928590000000 1.0
C      1  0.5203070000000  0.5159970000000  0.4972180000000 1.0
C      1  0.4828910000000  0.4957800000000  0.4882420000000 1.0
C      1  0.5502630000000  0.4807600000000  0.5112900000000 1.0
C      1  0.4654850000000  0.5150520000000  0.5012940000000 1.0
C      1  0.5079370000000  0.5544590000000  0.4606690000000 1.0
C      1  0.5486670000000  0.4669120000000  0.4836430000000 1.0
C      1  0.4554320000000  0.4939170000000  0.5676760000000 1.0
C      1  0.5014410000000  0.4358140000000  0.4443980000000 1.0
C      1  0.4787860000000  0.4536410000000  0.5385480000000 1.0
C      1  0.5058770000000  0.5508410000000  0.5300120000000 1.0
C      1  0.4567090000000  0.5358630000000  0.4831350000000 1.0
C      1  0.5544580000000  0.5396550000000  0.5113750000000 1.0
C      1  0.4518780000000  0.4494090000000  0.5262210000000 1.0
C      1  0.5392040000000  0.5175740000000  0.5633220000000 1.0
C      1  0.4491610000000  0.5205760000000  0.4602540000000 1.0
C      1  0.5518210000000  0.4886280000000  0.4643540000000 1.0
C      1  0.4966510000000  0.5343780000000  0.4416050000000 1.0
C      1  0.5293710000000  0.4436320000000  0.4852450000000 1.0
C      1  0.4449850000000  0.4964660000000  0.5413170000000 1.0
C      1  0.4851110000000  0.4515680000000  0.4299000000000 1.0
C      1  0.4946340000000  0.4659940000000  0.5608690000000 1.0
C      1  0.4889450000000  0.5461550000000  0.5536640000000 1.0
C      1  0.4665140000000  0.5610590000000  0.4920760000000 1.0
C      1  0.5398290000000  0.5602790000000  0.4972050000000 1.0
C      1  0.4590670000000  0.4314160000000  0.4954230000000 1.0
C      1  0.5664910000000  0.5199510000000  0.5514190000000 1.0
C      1  0.4366170000000  0.4937710000000  0.4683280000000 1.0
C      1  0.5709790000000  0.5111690000000  0.4722060000000 1.0
END
