TITL C-2323483-8886-298 3.23515957172028e-05 125000 -354.249028554503 0 0 60 (C1) n - 1
REM
REM in /home/bkarasulu/CARBON/AIRSS/Generating-Clusters/LCBOP/Higher-Symm/Only-C60/SD-CG/FIRE-HFTN
REM
REM
REM
REM
REM
REM ./C.cell (50c204cfd26239f34c78669fe23a5462)
REM
REM compiler GCC version 9.2.1 20190827 (Red Hat 9.2.1-1)
REM options -cpp -mtune=generic -march=x86-64 -g -O0 -fpre-include=/usr/include/finclude/math-vector-fortran.h
REM seed -285565097 1072659219 -842046562 1808483235 -1613768413 1780624337 -1533063741 1237298451 -1045549832 -453997707 -863442295 -8824797 -1999925564 234497549 1291222243 2011616722 1727580460 -1195025056 646967122 -655441173 -51086769 -282881637 488416687 -593748875 -828856685 1701468695 -1875110294 -389379812 2076534921 -42780504 672376230 51974080 1033827211
REM
CELL 1.54180   50.00000   50.00000   50.00000   90.00000   90.00000   90.00000
LATT -1
SFAC C  
C      1  0.5727880000000  0.5349570000000  0.4672850000000 1.0
C      1  0.4635750000000  0.5748660000000  0.4722470000000 1.0
C      1  0.4052800000000  0.4566420000000  0.4963970000000 1.0
C      1  0.5444650000000  0.4053650000000  0.4929220000000 1.0
C      1  0.4797400000000  0.4352620000000  0.5078500000000 1.0
C      1  0.5691680000000  0.4795580000000  0.5088170000000 1.0
C      1  0.5213250000000  0.5688230000000  0.5109840000000 1.0
C      1  0.4308250000000  0.5237260000000  0.5112290000000 1.0
C      1  0.4363810000000  0.5298410000000  0.4818710000000 1.0
C      1  0.4749620000000  0.4449850000000  0.4805020000000 1.0
C      1  0.5647160000000  0.4685110000000  0.4812420000000 1.0
C      1  0.5325170000000  0.5649800000000  0.4839650000000 1.0
C      1  0.5050820000000  0.4598690000000  0.5457310000000 1.0
C      1  0.5422940000000  0.5038850000000  0.5462470000000 1.0
C      1  0.4972350000000  0.5425250000000  0.5486250000000 1.0
C      1  0.4582610000000  0.4970460000000  0.5480820000000 1.0
C      1  0.4733770000000  0.5399840000000  0.5326350000000 1.0
C      1  0.4598950000000  0.4735410000000  0.5312380000000 1.0
C      1  0.5302870000000  0.4591690000000  0.5312840000000 1.0
C      1  0.5378920000000  0.5262250000000  0.5285980000000 1.0
C      1  0.5275330000000  0.4962690000000  0.4486570000000 1.0
C      1  0.5075760000000  0.5257010000000  0.4517280000000 1.0
C      1  0.4805360000000  0.5108070000000  0.4505240000000 1.0
C      1  0.4924290000000  0.4832510000000  0.4492970000000 1.0
C      1  0.4204550000000  0.4777990000000  0.5039580000000 1.0
C      1  0.5247790000000  0.4222030000000  0.5009470000000 1.0
C      1  0.5642540000000  0.5219490000000  0.4895400000000 1.0
C      1  0.4779880000000  0.5657780000000  0.4933410000000 1.0
C      1  0.5379720000000  0.5176620000000  0.5011720000000 1.0
C      1  0.4805330000000  0.5395600000000  0.5046680000000 1.0
C      1  0.4490610000000  0.4785150000000  0.5054330000000 1.0
C      1  0.5267490000000  0.4504830000000  0.5045050000000 1.0
C      1  0.4655330000000  0.4963090000000  0.4905850000000 1.0
C      1  0.5142730000000  0.4713930000000  0.4892250000000 1.0
C      1  0.5149710000000  0.5002800000000  0.4959900000000 1.0
C      1  0.4887920000000  0.5120110000000  0.4988580000000 1.0
C      1  0.5971970000000  0.4286840000000  0.4647070000000 1.0
C      1  0.5698730000000  0.6010510000000  0.4690680000000 1.0
C      1  0.4009080000000  0.5598250000000  0.4543630000000 1.0
C      1  0.4378920000000  0.4234590000000  0.4478740000000 1.0
C      1  0.5002970000000  0.5225930000000  0.5685720000000 1.0
C      1  0.4774440000000  0.4986160000000  0.5685830000000 1.0
C      1  0.5034210000000  0.4786170000000  0.5667800000000 1.0
C      1  0.5230610000000  0.5020100000000  0.5671350000000 1.0
C      1  0.5802080000000  0.4464740000000  0.4733220000000 1.0
C      1  0.5527190000000  0.5826270000000  0.4758230000000 1.0
C      1  0.4189360000000  0.5463520000000  0.4675060000000 1.0
C      1  0.4549640000000  0.4339950000000  0.4645060000000 1.0
C      1  0.5214900000000  0.5492930000000  0.5329770000000 1.0
C      1  0.4504620000000  0.5223380000000  0.5345360000000 1.0
C      1  0.4803940000000  0.4534890000000  0.5310320000000 1.0
C      1  0.5510670000000  0.4791210000000  0.5326250000000 1.0
C      1  0.4966040000000  0.5825630000000  0.5067660000000 1.0
C      1  0.4105930000000  0.5030840000000  0.5122910000000 1.0
C      1  0.4986040000000  0.4139120000000  0.5079760000000 1.0
C      1  0.5819520000000  0.5047640000000  0.5037950000000 1.0
C      1  0.4565710000000  0.5128760000000  0.4681880000000 1.0
C      1  0.4937380000000  0.4643120000000  0.4702120000000 1.0
C      1  0.5487210000000  0.4822690000000  0.4607680000000 1.0
C      1  0.5193830000000  0.5479480000000  0.4644180000000 1.0
END
