TITL C-2323479-8056-410 11.3147639784959 125000 -341.018790017212 0 0 60 (C6v) n - 1
REM
REM in /home/bkarasulu/CARBON/AIRSS/Generating-Clusters/LCBOP/Higher-Symm/Only-C60/SD-CG/FIRE-HFTN
REM
REM
REM
REM
REM
REM ./C.cell (50c204cfd26239f34c78669fe23a5462)
REM
REM compiler GCC version 9.2.1 20190827 (Red Hat 9.2.1-1)
REM options -cpp -mtune=generic -march=x86-64 -g -O0 -fpre-include=/usr/include/finclude/math-vector-fortran.h
REM seed -760823878 747455970 -1815181563 -757971652 -730667330 201537031 -1635518038 -1814454679 -1405979739 506202396 -2100715572 871939157 1955371505 422149375 -1206505785 -1152076446 1303749684 1324694919 -2023574100 -370422450 1424039272 1198226328 1574994195 -169393545 -1444049434 361911028 2145969913 -1596951090 1762022948 223547798 -1904644658 304502189 845085756
REM
CELL 1.54180   50.00000   50.00000   50.00000   90.00000   90.00000   90.00000
LATT -1
SFAC C  
C      1  0.5683040000000  0.4878580000000  0.4679410000000 1.0
C      1  0.5063890000000  0.4878310000000  0.4248220000000 1.0
C      1  0.4380890000000  0.4878090000000  0.4568830000000 1.0
C      1  0.4317050000000  0.4878150000000  0.5320630000000 1.0
C      1  0.4936200000000  0.4878420000000  0.5751820000000 1.0
C      1  0.5619200000000  0.4878640000000  0.5431210000000 1.0
C      1  0.6177290000000  0.5127660000000  0.5816580000000 1.0
C      1  0.6295840000000  0.5127560000000  0.4388750000000 1.0
C      1  0.5118650000000  0.5127050000000  0.3572100000000 1.0
C      1  0.3822680000000  0.5126630000000  0.4183300000000 1.0
C      1  0.3704090000000  0.5126730000000  0.5611290000000 1.0
C      1  0.4881180000000  0.5127260000000  0.6427870000000 1.0
C      1  0.5024740000000  0.4645680000000  0.4710200000000 1.0
C      1  0.4761430000000  0.4645590000000  0.4833810000000 1.0
C      1  0.4736810000000  0.4645610000000  0.5123640000000 1.0
C      1  0.4975510000000  0.4645720000000  0.5289880000000 1.0
C      1  0.5238830000000  0.4645800000000  0.5166280000000 1.0
C      1  0.5263440000000  0.4645780000000  0.4876440000000 1.0
C      1  0.4890180000000  0.4881840000000  0.6294180000000 1.0
C      1  0.6065890000000  0.4882210000000  0.5742230000000 1.0
C      1  0.6175750000000  0.4882120000000  0.4448070000000 1.0
C      1  0.5109900000000  0.4881650000000  0.3705860000000 1.0
C      1  0.3934190000000  0.4881280000000  0.4257800000000 1.0
C      1  0.3824340000000  0.4881370000000  0.5551960000000 1.0
C      1  0.5126740000000  0.5360690000000  0.3447430000000 1.0
C      1  0.3718710000000  0.5360240000000  0.4113900000000 1.0
C      1  0.3592020000000  0.5360350000000  0.5666640000000 1.0
C      1  0.4872850000000  0.5360920000000  0.6552490000000 1.0
C      1  0.6281160000000  0.5361360000000  0.5885830000000 1.0
C      1  0.6407760000000  0.5361250000000  0.4333400000000 1.0
C      1  0.4077410000000  0.4878460000000  0.5433120000000 1.0
C      1  0.4913800000000  0.4878820000000  0.6015590000000 1.0
C      1  0.5836440000000  0.4879120000000  0.5582490000000 1.0
C      1  0.5922670000000  0.4879050000000  0.4566910000000 1.0
C      1  0.5086280000000  0.4878680000000  0.3984440000000 1.0
C      1  0.4163650000000  0.4878380000000  0.4417550000000 1.0
C      1  0.6180080000000  0.4647800000000  0.5824840000000 1.0
C      1  0.6304380000000  0.4647700000000  0.4390510000000 1.0
C      1  0.5124290000000  0.4647180000000  0.3565760000000 1.0
C      1  0.3820110000000  0.4646760000000  0.4175330000000 1.0
C      1  0.3695860000000  0.4646860000000  0.5609530000000 1.0
C      1  0.4876030000000  0.4647380000000  0.6434330000000 1.0
C      1  0.4975340000000  0.5111050000000  0.5289830000000 1.0
C      1  0.5238660000000  0.5111130000000  0.5166230000000 1.0
C      1  0.5263270000000  0.5111110000000  0.4876390000000 1.0
C      1  0.5024570000000  0.5111010000000  0.4710160000000 1.0
C      1  0.4761260000000  0.5110920000000  0.4833760000000 1.0
C      1  0.4736640000000  0.5110950000000  0.5123600000000 1.0
C      1  0.4864670000000  0.5590940000000  0.6674910000000 1.0
C      1  0.6383190000000  0.5591420000000  0.5953850000000 1.0
C      1  0.6517690000000  0.5591300000000  0.4279020000000 1.0
C      1  0.5134690000000  0.5590700000000  0.3324970000000 1.0
C      1  0.3616570000000  0.5590210000000  0.4045740000000 1.0
C      1  0.3481950000000  0.5590330000000  0.5721010000000 1.0
C      1  0.5433120000000  0.4878500000000  0.4796730000000 1.0
C      1  0.5040520000000  0.4878330000000  0.4523320000000 1.0
C      1  0.4607450000000  0.4878190000000  0.4726610000000 1.0
C      1  0.4566970000000  0.4878220000000  0.5203310000000 1.0
C      1  0.4959560000000  0.4878400000000  0.5476710000000 1.0
C      1  0.5392630000000  0.4878530000000  0.5273420000000 1.0
END
