TITL C-2323491-8878-89 -2.37085112831319e-06 125000 -372.712708910029 0 0 60 (D2h) n - 1
REM
REM in /home/bkarasulu/CARBON/AIRSS/Generating-Clusters/LCBOP/Higher-Symm/Only-C60/SD-CG/FIRE-HFTN
REM
REM
REM
REM
REM
REM ./C.cell (50c204cfd26239f34c78669fe23a5462)
REM
REM compiler GCC version 9.2.1 20190827 (Red Hat 9.2.1-1)
REM options -cpp -mtune=generic -march=x86-64 -g -O0 -fpre-include=/usr/include/finclude/math-vector-fortran.h
REM seed 1191997569 -1964271915 -970665861 -81281436 -1536571007 -1729942439 -813058690 -1718227908 -837454287 -993674499 -558787793 1759778882 1093375086 1524221796 -93643661 -327186267 546824358 -1877255445 -518117705 -2137125893 535916857 923904208 1895542141 428645902 1991119137 1177628349 1087836820 593482024 177885223 -2021032435 -837000489 -736434991 1283550835
REM
CELL 1.54180   50.00000   50.00000   50.00000   90.00000   90.00000   90.00000
LATT -1
SFAC C  
C      1  0.4849530000000  0.5318730000000  0.5627130000000 1.0
C      1  0.4849530000000  0.4681270000000  0.4372870000000 1.0
C      1  0.5150470000000  0.5318730000000  0.5627130000000 1.0
C      1  0.5150470000000  0.4681270000000  0.4372870000000 1.0
C      1  0.4849530000000  0.4681270000000  0.5627130000000 1.0
C      1  0.4849530000000  0.5318730000000  0.4372870000000 1.0
C      1  0.5150470000000  0.4681270000000  0.5627130000000 1.0
C      1  0.5150470000000  0.5318730000000  0.4372870000000 1.0
C      1  0.4759720000000  0.4707660000000  0.4853700000000 1.0
C      1  0.4759720000000  0.5292340000000  0.5146300000000 1.0
C      1  0.5240280000000  0.4707660000000  0.4853700000000 1.0
C      1  0.5240280000000  0.5292340000000  0.5146300000000 1.0
C      1  0.4759720000000  0.5292340000000  0.4853700000000 1.0
C      1  0.4759720000000  0.4707660000000  0.5146300000000 1.0
C      1  0.5240280000000  0.5292340000000  0.4853700000000 1.0
C      1  0.5240280000000  0.4707660000000  0.5146300000000 1.0
C      1  0.4020410000000  0.5269020000000  0.5134260000000 1.0
C      1  0.4020410000000  0.4730990000000  0.4865740000000 1.0
C      1  0.5979590000000  0.5269010000000  0.5134260000000 1.0
C      1  0.5979590000000  0.4730980000000  0.4865740000000 1.0
C      1  0.4020410000000  0.4730990000000  0.5134260000000 1.0
C      1  0.4020410000000  0.5269020000000  0.4865740000000 1.0
C      1  0.5979590000000  0.4730980000000  0.5134260000000 1.0
C      1  0.5979590000000  0.5269010000000  0.4865740000000 1.0
C      1  0.4176740000000  0.4855640000000  0.5334660000000 1.0
C      1  0.4176740000000  0.5144360000000  0.4665340000000 1.0
C      1  0.5823260000000  0.4855640000000  0.5334660000000 1.0
C      1  0.5823260000000  0.5144360000000  0.4665340000000 1.0
C      1  0.4176740000000  0.5144360000000  0.5334660000000 1.0
C      1  0.4176740000000  0.4855640000000  0.4665340000000 1.0
C      1  0.5823260000000  0.5144360000000  0.5334660000000 1.0
C      1  0.5823260000000  0.4855640000000  0.4665340000000 1.0
C      1  0.5255610000000  0.4864340000000  0.4176180000000 1.0
C      1  0.5255610000000  0.5135660000000  0.5823820000000 1.0
C      1  0.4744390000000  0.4864340000000  0.4176180000000 1.0
C      1  0.4744390000000  0.5135660000000  0.5823820000000 1.0
C      1  0.5255610000000  0.5135660000000  0.4176180000000 1.0
C      1  0.5255610000000  0.4864340000000  0.5823820000000 1.0
C      1  0.4744390000000  0.5135660000000  0.4176180000000 1.0
C      1  0.4744390000000  0.4864340000000  0.5823820000000 1.0
C      1  0.4384090000000  0.5299100000000  0.5446100000000 1.0
C      1  0.4384090000000  0.4700900000000  0.4553900000000 1.0
C      1  0.5615910000000  0.5299100000000  0.5446100000000 1.0
C      1  0.5615910000000  0.4700900000000  0.4553900000000 1.0
C      1  0.4384090000000  0.4700900000000  0.5446100000000 1.0
C      1  0.4384090000000  0.5299100000000  0.4553900000000 1.0
C      1  0.5615910000000  0.4700900000000  0.5446100000000 1.0
C      1  0.5615910000000  0.5299100000000  0.4553900000000 1.0
C      1  0.4657160000000  0.5358430000000  0.4594580000000 1.0
C      1  0.4657150000000  0.4641580000000  0.5405420000000 1.0
C      1  0.5342850000000  0.5358420000000  0.4594580000000 1.0
C      1  0.5342840000000  0.4641570000000  0.5405420000000 1.0
C      1  0.4657160000000  0.4641580000000  0.4594580000000 1.0
C      1  0.4657160000000  0.5358430000000  0.5405420000000 1.0
C      1  0.5342840000000  0.4641570000000  0.4594580000000 1.0
C      1  0.5342840000000  0.5358420000000  0.5405420000000 1.0
C      1  0.5000000000000  0.5139250000000  0.4784280000000 1.0
C      1  0.5000000000000  0.4860750000000  0.5215720000000 1.0
C      1  0.5000000000000  0.4860750000000  0.4784280000000 1.0
C      1  0.5000000000000  0.5139250000000  0.5215720000000 1.0
END
