TITL C-2323486-8761-88 -0.0179384165768411 125000 -335.352615225743 0 0 60 (C1) n - 1
REM
REM in /home/bkarasulu/CARBON/AIRSS/Generating-Clusters/LCBOP/Higher-Symm/Only-C60/SD-CG/FIRE-HFTN
REM
REM
REM
REM
REM
REM ./C.cell (50c204cfd26239f34c78669fe23a5462)
REM
REM compiler GCC version 9.2.1 20190827 (Red Hat 9.2.1-1)
REM options -cpp -mtune=generic -march=x86-64 -g -O0 -fpre-include=/usr/include/finclude/math-vector-fortran.h
REM seed 514581823 -1284626092 -1870998579 1049198162 -1148197401 1003813464 833028717 51780192 -380157932 -1538764478 -1825520324 -1242685547 325988294 -1910683336 1937186832 -59535759 -923046156 -833885432 -1225139908 583705086 498789450 -894081489 336641443 -1408371852 -960513834 1002427559 473264137 -1835432501 1452687714 1120169084 1402418371 1044069043 -266398151
REM
CELL 1.54180   50.00000   50.00000   50.00000   90.00000   90.00000   90.00000
LATT -1
SFAC C  
C      1  0.5862090000000  0.5289210000000  0.5481770000000 1.0
C      1  0.4764440000000  0.5457240000000  0.4065900000000 1.0
C      1  0.4299680000000  0.5519960000000  0.5683310000000 1.0
C      1  0.5373030000000  0.5852350000000  0.5099330000000 1.0
C      1  0.4912590000000  0.5758680000000  0.4650740000000 1.0
C      1  0.4723560000000  0.5832490000000  0.5264690000000 1.0
C      1  0.5489920000000  0.4523650000000  0.4980070000000 1.0
C      1  0.4768770000000  0.4520940000000  0.4572830000000 1.0
C      1  0.4742590000000  0.4543700000000  0.5428040000000 1.0
C      1  0.4664670000000  0.5697100000000  0.4778340000000 1.0
C      1  0.4962300000000  0.5735940000000  0.5382120000000 1.0
C      1  0.5399030000000  0.5709600000000  0.4855070000000 1.0
C      1  0.5043080000000  0.4614300000000  0.4528890000000 1.0
C      1  0.4564150000000  0.4608700000000  0.5210010000000 1.0
C      1  0.5347720000000  0.4634810000000  0.5197960000000 1.0
C      1  0.4731420000000  0.5110160000000  0.5249120000000 1.0
C      1  0.5310110000000  0.5148170000000  0.5008690000000 1.0
C      1  0.4865430000000  0.5048500000000  0.4675290000000 1.0
C      1  0.4757570000000  0.5310770000000  0.5019940000000 1.0
C      1  0.5220920000000  0.5349080000000  0.5287850000000 1.0
C      1  0.4994830000000  0.5234530000000  0.4879610000000 1.0
C      1  0.4577100000000  0.4883950000000  0.5124950000000 1.0
C      1  0.5245910000000  0.4893910000000  0.5148510000000 1.0
C      1  0.5082110000000  0.4896800000000  0.4555110000000 1.0
C      1  0.5213340000000  0.4500800000000  0.5414340000000 1.0
C      1  0.5290780000000  0.4469590000000  0.4568080000000 1.0
C      1  0.4506260000000  0.4446270000000  0.4969460000000 1.0
C      1  0.4999080000000  0.4953380000000  0.5266870000000 1.0
C      1  0.5307110000000  0.5020500000000  0.4663580000000 1.0
C      1  0.4697070000000  0.4881560000000  0.4863640000000 1.0
C      1  0.5317580000000  0.4707120000000  0.5863340000000 1.0
C      1  0.5673970000000  0.4656610000000  0.4290330000000 1.0
C      1  0.4055720000000  0.4567510000000  0.4770160000000 1.0
C      1  0.5200620000000  0.5872260000000  0.5305570000000 1.0
C      1  0.5180560000000  0.5741000000000  0.4676240000000 1.0
C      1  0.4610890000000  0.5838620000000  0.5019280000000 1.0
C      1  0.4716690000000  0.4333340000000  0.4798420000000 1.0
C      1  0.4963250000000  0.4355700000000  0.5368150000000 1.0
C      1  0.5347670000000  0.4326340000000  0.4817510000000 1.0
C      1  0.4459910000000  0.4954680000000  0.4473880000000 1.0
C      1  0.4802710000000  0.5007960000000  0.5695320000000 1.0
C      1  0.5724520000000  0.4968880000000  0.4858780000000 1.0
C      1  0.4757080000000  0.5255700000000  0.5516130000000 1.0
C      1  0.5609040000000  0.5225080000000  0.4990310000000 1.0
C      1  0.4634610000000  0.5204560000000  0.4542540000000 1.0
C      1  0.5332020000000  0.4059790000000  0.4864610000000 1.0
C      1  0.4788060000000  0.4070400000000  0.4797660000000 1.0
C      1  0.4939390000000  0.4086600000000  0.5338130000000 1.0
C      1  0.4863310000000  0.4732000000000  0.5637810000000 1.0
C      1  0.5641530000000  0.4702340000000  0.4795320000000 1.0
C      1  0.4498820000000  0.4672450000000  0.4542590000000 1.0
C      1  0.4593120000000  0.5414380000000  0.4787150000000 1.0
C      1  0.5000780000000  0.5453120000000  0.5436240000000 1.0
C      1  0.5584390000000  0.5491560000000  0.4843100000000 1.0
C      1  0.5743380000000  0.5264800000000  0.5251210000000 1.0
C      1  0.4700600000000  0.5349560000000  0.4294320000000 1.0
C      1  0.4520060000000  0.5406100000000  0.5603790000000 1.0
C      1  0.5148400000000  0.4652870000000  0.5657710000000 1.0
C      1  0.5547110000000  0.4617870000000  0.4527570000000 1.0
C      1  0.4327580000000  0.4564190000000  0.4762690000000 1.0
END
