TITL C-2323489-8765-544 46.6849903376721 125000 -355.369903704791 0 0 60 (C1) n - 1
REM
REM in /home/bkarasulu/CARBON/AIRSS/Generating-Clusters/LCBOP/Higher-Symm/Only-C60/SD-CG/FIRE-HFTN
REM
REM
REM
REM
REM
REM ./C.cell (50c204cfd26239f34c78669fe23a5462)
REM
REM compiler GCC version 9.2.1 20190827 (Red Hat 9.2.1-1)
REM options -cpp -mtune=generic -march=x86-64 -g -O0 -fpre-include=/usr/include/finclude/math-vector-fortran.h
REM seed 902129856 -337829346 -76877575 -2139228137 1346755686 -1399873365 2002115091 1986556142 -985942943 681002905 -178389534 -1031822851 1489100867 -1645478015 173930289 -733452491 -1758437980 1652723623 -817177573 1369580660 -1187039821 668904122 -963613645 -955019398 -1054371401 380851138 -555279071 1998919347 1489564092 899660925 1775355411 -20697041 1497723875
REM
CELL 1.54180   50.00000   50.00000   50.00000   90.00000   90.00000   90.00000
LATT -1
SFAC C  
C      1  0.5220920000000  0.5615330000000  0.5272160000000 1.0
C      1  0.5283220000000  0.4686450000000  0.4701910000000 1.0
C      1  0.4994560000000  0.5769280000000  0.4881080000000 1.0
C      1  0.5161210000000  0.4382620000000  0.5059850000000 1.0
C      1  0.4908500000000  0.6170410000000  0.4031520000000 1.0
C      1  0.5592090000000  0.3142720000000  0.6894090000000 1.0
C      1  0.4916920000000  0.4852170000000  0.5028440000000 1.0
C      1  0.4866950000000  0.5293460000000  0.5077370000000 1.0
C      1  0.4962420000000  0.6227970000000  0.4733940000000 1.0
C      1  0.5278740000000  0.3916400000000  0.5103600000000 1.0
C      1  0.5002050000000  0.6281510000000  0.3804110000000 1.0
C      1  0.5504890000000  0.3278580000000  0.6689390000000 1.0
C      1  0.4844770000000  0.5877000000000  0.4424970000000 1.0
C      1  0.4974320000000  0.4111550000000  0.5425400000000 1.0
C      1  0.4397300000000  0.5350200000000  0.5026940000000 1.0
C      1  0.4446720000000  0.4623050000000  0.4900700000000 1.0
C      1  0.4618930000000  0.5712880000000  0.4417350000000 1.0
C      1  0.4723810000000  0.4236800000000  0.5428850000000 1.0
C      1  0.5161480000000  0.5833410000000  0.5101340000000 1.0
C      1  0.5306280000000  0.4430000000000  0.4821460000000 1.0
C      1  0.5372830000000  0.5821270000000  0.3885560000000 1.0
C      1  0.5238970000000  0.3692910000000  0.6065110000000 1.0
C      1  0.5013180000000  0.4756560000000  0.4554370000000 1.0
C      1  0.5008220000000  0.5531690000000  0.5459200000000 1.0
C      1  0.5141560000000  0.4135330000000  0.5194980000000 1.0
C      1  0.4936770000000  0.5960240000000  0.4680980000000 1.0
C      1  0.4330310000000  0.5069300000000  0.5084370000000 1.0
C      1  0.4369930000000  0.4897030000000  0.4833390000000 1.0
C      1  0.5209830000000  0.6209810000000  0.3646520000000 1.0
C      1  0.5416240000000  0.3416710000000  0.6481260000000 1.0
C      1  0.5327600000000  0.3554810000000  0.6273180000000 1.0
C      1  0.5378100000000  0.6000940000000  0.3683470000000 1.0
C      1  0.4819440000000  0.4523950000000  0.4536210000000 1.0
C      1  0.4725990000000  0.5573380000000  0.5397360000000 1.0
C      1  0.5110320000000  0.4959490000000  0.4353620000000 1.0
C      1  0.5095830000000  0.5313480000000  0.5621170000000 1.0
C      1  0.4551480000000  0.4425640000000  0.5356000000000 1.0
C      1  0.4490290000000  0.5520920000000  0.4547890000000 1.0
C      1  0.5206390000000  0.5800800000000  0.4096940000000 1.0
C      1  0.5150350000000  0.3831000000000  0.5857020000000 1.0
C      1  0.4498130000000  0.5327490000000  0.4746370000000 1.0
C      1  0.4490420000000  0.4642940000000  0.5193650000000 1.0
C      1  0.5473260000000  0.4935400000000  0.5106470000000 1.0
C      1  0.5438070000000  0.5390990000000  0.4867380000000 1.0
C      1  0.4508640000000  0.5516800000000  0.5236660000000 1.0
C      1  0.4602100000000  0.4483640000000  0.4703410000000 1.0
C      1  0.4588850000000  0.5050220000000  0.4699790000000 1.0
C      1  0.4523610000000  0.4934010000000  0.5262500000000 1.0
C      1  0.5018190000000  0.4613460000000  0.5133980000000 1.0
C      1  0.4904930000000  0.5500000000000  0.4904030000000 1.0
C      1  0.5421940000000  0.4912170000000  0.4825300000000 1.0
C      1  0.5390070000000  0.5407910000000  0.5151290000000 1.0
C      1  0.4789290000000  0.5040770000000  0.5198950000000 1.0
C      1  0.4852120000000  0.4925940000000  0.4752590000000 1.0
C      1  0.5284350000000  0.5156670000000  0.4434190000000 1.0
C      1  0.5287640000000  0.5138470000000  0.5537500000000 1.0
C      1  0.4982880000000  0.5947870000000  0.4190280000000 1.0
C      1  0.5062490000000  0.3968570000000  0.5648430000000 1.0
C      1  0.5414760000000  0.5150160000000  0.5284550000000 1.0
C      1  0.5408530000000  0.5169490000000  0.4689620000000 1.0
END
