TITL C-2323484-8600-341 -3.84162592235656e-07 125000 -335.461537407526 0 0 60 (C2) n - 1
REM
REM in /home/bkarasulu/CARBON/AIRSS/Generating-Clusters/LCBOP/Higher-Symm/Only-C60/SD-CG/FIRE-HFTN
REM
REM
REM
REM
REM
REM ./C.cell (50c204cfd26239f34c78669fe23a5462)
REM
REM compiler GCC version 9.2.1 20190827 (Red Hat 9.2.1-1)
REM options -cpp -mtune=generic -march=x86-64 -g -O0 -fpre-include=/usr/include/finclude/math-vector-fortran.h
REM seed -1075501785 -77406147 -696935495 1127928055 -1979477243 -951909887 -1463930255 2014462067 -1204436663 -454857675 -2138628873 -38525914 1949260028 -1094477038 -820440017 -1937368752 -1017037606 1979481073 -929200969 -1920719127 1826838491 -619854311 1528952229 470179204 2106498564 -1411090834 46040636 -1368451663 1825153671 -954403200 1283792703 1652385886 1938528128
REM
CELL 1.54180   50.00000   50.00000   50.00000   90.00000   90.00000   90.00000
LATT -1
SFAC C  
C      1  0.5453440000000  0.4749530000000  0.4426100000000 1.0
C      1  0.5453650000000  0.5577620000000  0.4751140000000 1.0
C      1  0.5456760000000  0.5248370000000  0.5570540000000 1.0
C      1  0.5451930000000  0.4427640000000  0.5248740000000 1.0
C      1  0.4548070000000  0.5248360000000  0.4429460000000 1.0
C      1  0.4552900000000  0.4427640000000  0.4751270000000 1.0
C      1  0.4551390000000  0.4749530000000  0.5573900000000 1.0
C      1  0.4551170000000  0.5577620000000  0.5248860000000 1.0
C      1  0.4291520000000  0.4983870000000  0.5223090000000 1.0
C      1  0.4295850000000  0.4777260000000  0.4991030000000 1.0
C      1  0.4290900000000  0.5001550000000  0.4775220000000 1.0
C      1  0.4284360000000  0.5241350000000  0.5008150000000 1.0
C      1  0.5713930000000  0.5001560000000  0.5224780000000 1.0
C      1  0.5720470000000  0.5241360000000  0.4991850000000 1.0
C      1  0.5713310000000  0.4983880000000  0.4776910000000 1.0
C      1  0.5708990000000  0.4777270000000  0.5008970000000 1.0
C      1  0.5173230000000  0.5161790000000  0.5170440000000 1.0
C      1  0.5167070000000  0.4834430000000  0.5171530000000 1.0
C      1  0.5166900000000  0.4827140000000  0.4825190000000 1.0
C      1  0.5179160000000  0.5174440000000  0.4840380000000 1.0
C      1  0.4837930000000  0.4827140000000  0.5174820000000 1.0
C      1  0.4825670000000  0.5174440000000  0.5159620000000 1.0
C      1  0.4831590000000  0.5161790000000  0.4829560000000 1.0
C      1  0.4837760000000  0.4834420000000  0.4828470000000 1.0
C      1  0.5270170000000  0.5370530000000  0.4632980000000 1.0
C      1  0.5266650000000  0.5367370000000  0.5369640000000 1.0
C      1  0.5267430000000  0.4628820000000  0.5374060000000 1.0
C      1  0.5266100000000  0.4625660000000  0.4626330000000 1.0
C      1  0.4737410000000  0.4628820000000  0.4625940000000 1.0
C      1  0.4738730000000  0.4625660000000  0.5373670000000 1.0
C      1  0.4734660000000  0.5370530000000  0.5367010000000 1.0
C      1  0.4738170000000  0.5367370000000  0.4630360000000 1.0
C      1  0.4428000000000  0.4523960000000  0.4988500000000 1.0
C      1  0.4423270000000  0.5009690000000  0.4523280000000 1.0
C      1  0.4424640000000  0.5485690000000  0.5010300000000 1.0
C      1  0.4424450000000  0.4985050000000  0.5474600000000 1.0
C      1  0.5580190000000  0.5485700000000  0.4989700000000 1.0
C      1  0.5580380000000  0.4985060000000  0.4525400000000 1.0
C      1  0.5576840000000  0.4523970000000  0.5011510000000 1.0
C      1  0.5581560000000  0.5009690000000  0.5476720000000 1.0
C      1  0.4508430000000  0.4644010000000  0.5821620000000 1.0
C      1  0.4509960000000  0.4180240000000  0.4644700000000 1.0
C      1  0.4501590000000  0.5360660000000  0.4185350000000 1.0
C      1  0.4511550000000  0.5822950000000  0.5360750000000 1.0
C      1  0.5503230000000  0.5360670000000  0.5814640000000 1.0
C      1  0.5493270000000  0.5822960000000  0.4639240000000 1.0
C      1  0.5496400000000  0.4644010000000  0.4178380000000 1.0
C      1  0.5494880000000  0.4180250000000  0.5355310000000 1.0
C      1  0.4558700000000  0.4438630000000  0.5225530000000 1.0
C      1  0.4557010000000  0.4774520000000  0.4437700000000 1.0
C      1  0.4563130000000  0.5562170000000  0.4774800000000 1.0
C      1  0.4554640000000  0.5223790000000  0.5555250000000 1.0
C      1  0.5441690000000  0.5562180000000  0.5225190000000 1.0
C      1  0.5450180000000  0.5223790000000  0.4444750000000 1.0
C      1  0.5446130000000  0.4438630000000  0.4774470000000 1.0
C      1  0.5447820000000  0.4774530000000  0.5562300000000 1.0
C      1  0.5001430000000  0.4519490000000  0.4518310000000 1.0
C      1  0.5004080000000  0.5471750000000  0.4523610000000 1.0
C      1  0.5003410000000  0.4519490000000  0.5481690000000 1.0
C      1  0.5000740000000  0.5471760000000  0.5476390000000 1.0
END
