TITL C-2323481-8605-520 7.62207497235281 125000 -363.854174709799 0 0 60 (C3) n - 1
REM
REM in /home/bkarasulu/CARBON/AIRSS/Generating-Clusters/LCBOP/Higher-Symm/Only-C60/SD-CG/FIRE-HFTN
REM
REM
REM
REM
REM
REM ./C.cell (50c204cfd26239f34c78669fe23a5462)
REM
REM compiler GCC version 9.2.1 20190827 (Red Hat 9.2.1-1)
REM options -cpp -mtune=generic -march=x86-64 -g -O0 -fpre-include=/usr/include/finclude/math-vector-fortran.h
REM seed -667439504 -1594956884 292614988 -854838168 744908894 1168952420 1061914475 -2083007440 -1145360997 -846859687 1815158296 1561817607 526362585 -586485607 -1383417352 -614276762 -1323762389 710386050 -1863094487 -2110041911 -847220411 -1596049096 1448831916 1432751585 -497636390 -1621658479 -1581916233 -1133403153 216495744 902018290 103167554 -1116250752 1465858203
REM
CELL 1.54180   50.00000   50.00000   50.00000   90.00000   90.00000   90.00000
LATT -1
SFAC C  
C      1  0.5908790000000  0.5263310000000  0.5072290000000 1.0
C      1  0.4317570000000  0.5655340000000  0.5072610000000 1.0
C      1  0.4773670000000  0.4081290000000  0.5072100000000 1.0
C      1  0.4640260000000  0.3199290000000  0.5203320000000 1.0
C      1  0.6739320000000  0.5588700000000  0.5203740000000 1.0
C      1  0.3620500000000  0.6211830000000  0.5204320000000 1.0
C      1  0.5353060000000  0.5569750000000  0.4710480000000 1.0
C      1  0.4330070000000  0.5021040000000  0.4710460000000 1.0
C      1  0.5316760000000  0.4409460000000  0.4710160000000 1.0
C      1  0.3627660000000  0.6128080000000  0.4949860000000 1.0
C      1  0.4709230000000  0.3247500000000  0.4948900000000 1.0
C      1  0.6663090000000  0.5624460000000  0.4949330000000 1.0
C      1  0.5310650000000  0.4864810000000  0.4873420000000 1.0
C      1  0.4961760000000  0.5336700000000  0.4873600000000 1.0
C      1  0.4727540000000  0.4798600000000  0.4873480000000 1.0
C      1  0.4622520000000  0.3933030000000  0.4885170000000 1.0
C      1  0.6112770000000  0.5206640000000  0.4885340000000 1.0
C      1  0.4264670000000  0.5860430000000  0.4885770000000 1.0
C      1  0.4047990000000  0.5969370000000  0.4770060000000 1.0
C      1  0.4636520000000  0.3690980000000  0.4769330000000 1.0
C      1  0.6315400000000  0.5339850000000  0.4769590000000 1.0
C      1  0.3734970000000  0.6154270000000  0.5439450000000 1.0
C      1  0.4632860000000  0.3327080000000  0.5438530000000 1.0
C      1  0.6632340000000  0.5518270000000  0.5438900000000 1.0
C      1  0.4696610000000  0.3564850000000  0.5543580000000 1.0
C      1  0.6394540000000  0.5454540000000  0.5543900000000 1.0
C      1  0.3909060000000  0.5980140000000  0.5544370000000 1.0
C      1  0.5400830000000  0.4160160000000  0.4672320000000 1.0
C      1  0.5526920000000  0.5767230000000  0.4672760000000 1.0
C      1  0.4072120000000  0.5072890000000  0.4672750000000 1.0
C      1  0.4528550000000  0.5477020000000  0.5035900000000 1.0
C      1  0.4822620000000  0.4353180000000  0.5035540000000 1.0
C      1  0.5648850000000  0.5169770000000  0.5035670000000 1.0
C      1  0.5984050000000  0.5847480000000  0.4894540000000 1.0
C      1  0.3774040000000  0.5428530000000  0.4894710000000 1.0
C      1  0.5241870000000  0.3724080000000  0.4894030000000 1.0
C      1  0.5400050000000  0.5126180000000  0.4915170000000 1.0
C      1  0.4690700000000  0.5283410000000  0.4915310000000 1.0
C      1  0.4909210000000  0.4590480000000  0.4915080000000 1.0
C      1  0.5082300000000  0.3517950000000  0.4785700000000 1.0
C      1  0.6242360000000  0.5812410000000  0.4786200000000 1.0
C      1  0.3675260000000  0.5669820000000  0.4786490000000 1.0
C      1  0.3768530000000  0.5936680000000  0.4800130000000 1.0
C      1  0.4804560000000  0.3465280000000  0.4799290000000 1.0
C      1  0.6426830000000  0.5598210000000  0.4799690000000 1.0
C      1  0.4807680000000  0.3798710000000  0.5475870000000 1.0
C      1  0.6136480000000  0.5433830000000  0.5476170000000 1.0
C      1  0.4056020000000  0.5767050000000  0.5476530000000 1.0
C      1  0.4927900000000  0.3924390000000  0.5255950000000 1.0
C      1  0.5967540000000  0.5475230000000  0.5256260000000 1.0
C      1  0.4104660000000  0.5600160000000  0.5256540000000 1.0
C      1  0.3854450000000  0.5214130000000  0.4733940000000 1.0
C      1  0.5387350000000  0.3901000000000  0.4733370000000 1.0
C      1  0.5758100000000  0.5885100000000  0.4733880000000 1.0
C      1  0.4582100000000  0.5033360000000  0.4831590000000 1.0
C      1  0.5180070000000  0.4621500000000  0.4831400000000 1.0
C      1  0.5237760000000  0.5345280000000  0.4831600000000 1.0
C      1  0.5940270000000  0.5736160000000  0.5151280000000 1.0
C      1  0.3892330000000  0.5446130000000  0.5151460000000 1.0
C      1  0.5167460000000  0.3817580000000  0.5150840000000 1.0
END
