TITL C-2323481-8605-574 3.67012744470308e-06 125000 -343.60507751519 0 0 60 (C1) n - 1
REM
REM in /home/bkarasulu/CARBON/AIRSS/Generating-Clusters/LCBOP/Higher-Symm/Only-C60/SD-CG/FIRE-HFTN
REM
REM
REM
REM
REM
REM ./C.cell (50c204cfd26239f34c78669fe23a5462)
REM
REM compiler GCC version 9.2.1 20190827 (Red Hat 9.2.1-1)
REM options -cpp -mtune=generic -march=x86-64 -g -O0 -fpre-include=/usr/include/finclude/math-vector-fortran.h
REM seed 779542776 -1086372848 1215441593 659661477 273785020 -1506763146 1860752904 -263485080 211742743 1720431195 1909801701 1309612257 -1998332572 -1944599143 284346767 1131045947 1152249745 -1621875667 -2095284970 -1261743658 516193151 -633168780 -1499294740 1502863952 1606470774 -48298007 1378505342 -954965600 -1577464764 -1937576444 1158111611 1905640853 -1971794763
REM
CELL 1.54180   50.00000   50.00000   50.00000   90.00000   90.00000   90.00000
LATT -1
SFAC C  
C      1  0.5420060000000  0.5419890000000  0.4951360000000 1.0
C      1  0.5454690000000  0.5028380000000  0.4614390000000 1.0
C      1  0.5399730000000  0.4556820000000  0.4872760000000 1.0
C      1  0.5337420000000  0.4687550000000  0.5412580000000 1.0
C      1  0.5342210000000  0.5244890000000  0.5442200000000 1.0
C      1  0.4605800000000  0.5466330000000  0.4839380000000 1.0
C      1  0.4642880000000  0.5035870000000  0.4480400000000 1.0
C      1  0.4585680000000  0.4603280000000  0.4773560000000 1.0
C      1  0.4518010000000  0.4720180000000  0.5271440000000 1.0
C      1  0.4528240000000  0.5236250000000  0.5323460000000 1.0
C      1  0.5619760000000  0.4748330000000  0.4979000000000 1.0
C      1  0.5584800000000  0.4812950000000  0.5267970000000 1.0
C      1  0.5588410000000  0.5110800000000  0.5296920000000 1.0
C      1  0.5628700000000  0.5228370000000  0.5022490000000 1.0
C      1  0.5647520000000  0.5001920000000  0.4828520000000 1.0
C      1  0.4360870000000  0.4785080000000  0.4815840000000 1.0
C      1  0.4322080000000  0.4853330000000  0.5103050000000 1.0
C      1  0.4329650000000  0.5150470000000  0.5131200000000 1.0
C      1  0.4369530000000  0.5266860000000  0.4861830000000 1.0
C      1  0.4389030000000  0.5043940000000  0.4664570000000 1.0
C      1  0.4532950000000  0.4484190000000  0.5420410000000 1.0
C      1  0.4537530000000  0.5300120000000  0.5595260000000 1.0
C      1  0.4670450000000  0.5697400000000  0.5026920000000 1.0
C      1  0.4754880000000  0.5246780000000  0.4294760000000 1.0
C      1  0.4652470000000  0.4380000000000  0.4617330000000 1.0
C      1  0.5230350000000  0.4404110000000  0.5433390000000 1.0
C      1  0.5219810000000  0.5195620000000  0.5714860000000 1.0
C      1  0.5373500000000  0.5696230000000  0.4945260000000 1.0
C      1  0.5444620000000  0.5135730000000  0.4356850000000 1.0
C      1  0.5352440000000  0.4474410000000  0.4583480000000 1.0
C      1  0.4825030000000  0.4749710000000  0.4880900000000 1.0
C      1  0.4782040000000  0.4832200000000  0.5184790000000 1.0
C      1  0.4789280000000  0.5151650000000  0.5203450000000 1.0
C      1  0.4832510000000  0.5270830000000  0.4901750000000 1.0
C      1  0.4854050000000  0.5018490000000  0.4700120000000 1.0
C      1  0.5157040000000  0.4737040000000  0.4926400000000 1.0
C      1  0.5122730000000  0.4820230000000  0.5242710000000 1.0
C      1  0.5122180000000  0.5146360000000  0.5252800000000 1.0
C      1  0.5169360000000  0.5256220000000  0.4956280000000 1.0
C      1  0.5191460000000  0.5007330000000  0.4754910000000 1.0
C      1  0.5463970000000  0.4731320000000  0.5951970000000 1.0
C      1  0.5474400000000  0.5775310000000  0.5541920000000 1.0
C      1  0.4589630000000  0.5605120000000  0.4576230000000 1.0
C      1  0.4608880000000  0.4804860000000  0.4292010000000 1.0
C      1  0.5489590000000  0.4044820000000  0.5062170000000 1.0
C      1  0.5389490000000  0.4747100000000  0.5702600000000 1.0
C      1  0.5403800000000  0.5538510000000  0.5458940000000 1.0
C      1  0.4546100000000  0.5778840000000  0.4386730000000 1.0
C      1  0.4560260000000  0.4657740000000  0.4082390000000 1.0
C      1  0.5429460000000  0.4292420000000  0.5006840000000 1.0
C      1  0.4722460000000  0.5283450000000  0.5789120000000 1.0
C      1  0.4895970000000  0.5842490000000  0.5055340000000 1.0
C      1  0.4994840000000  0.5303290000000  0.4188240000000 1.0
C      1  0.4878740000000  0.4302910000000  0.4493160000000 1.0
C      1  0.4729950000000  0.4314150000000  0.5486440000000 1.0
C      1  0.4981400000000  0.5230990000000  0.5832900000000 1.0
C      1  0.5158630000000  0.5848990000000  0.5000440000000 1.0
C      1  0.5257110000000  0.5251330000000  0.4203520000000 1.0
C      1  0.5139940000000  0.4358040000000  0.4465270000000 1.0
C      1  0.4995680000000  0.4282160000000  0.5478230000000 1.0
END
