TITL C-2323478-8180-233 2.45839446304788e-06 125000 -359.992858562163 0 0 60 (C2v) n - 1
REM
REM in /home/bkarasulu/CARBON/AIRSS/Generating-Clusters/LCBOP/Higher-Symm/Only-C60/SD-CG/FIRE-HFTN
REM
REM
REM
REM
REM
REM ./C.cell (50c204cfd26239f34c78669fe23a5462)
REM
REM compiler GCC version 9.2.1 20190827 (Red Hat 9.2.1-1)
REM options -cpp -mtune=generic -march=x86-64 -g -O0 -fpre-include=/usr/include/finclude/math-vector-fortran.h
REM seed 1695380536 1354541705 -501231119 -1380972525 -1037454360 -1932411864 -753076048 97790413 -677175462 -462915266 830325766 1741112838 1085014322 -1258089117 -398981649 1680668740 1651515088 -1785145488 1063653658 1404057149 -1958102151 -1894150889 -220687640 1836331443 -1033664780 -429532374 -1361259773 570407633 916188899 966585775 646119349 390765494 717964302
REM
CELL 1.54180   50.00000   50.00000   50.00000   90.00000   90.00000   90.00000
LATT -1
SFAC C  
C      1  0.4942680000000  0.5258840000000  0.5137080000000 1.0
C      1  0.4941280000000  0.4742890000000  0.4862660000000 1.0
C      1  0.4941790000000  0.4743530000000  0.5137170000000 1.0
C      1  0.4942270000000  0.5258480000000  0.4862580000000 1.0
C      1  0.5276480000000  0.5242560000000  0.4230300000000 1.0
C      1  0.5277170000000  0.4756210000000  0.5768490000000 1.0
C      1  0.5276480000000  0.4756170000000  0.4230890000000 1.0
C      1  0.5275600000000  0.5242290000000  0.5770800000000 1.0
C      1  0.4488770000000  0.5379080000000  0.5202640000000 1.0
C      1  0.4488170000000  0.4620170000000  0.4797270000000 1.0
C      1  0.4488690000000  0.4620600000000  0.5202970000000 1.0
C      1  0.4488520000000  0.5379230000000  0.4796950000000 1.0
C      1  0.4997220000000  0.5153260000000  0.5716900000000 1.0
C      1  0.4997760000000  0.4845340000000  0.4283550000000 1.0
C      1  0.4998250000000  0.4844960000000  0.5716240000000 1.0
C      1  0.4997780000000  0.5153660000000  0.4283330000000 1.0
C      1  0.4068560000000  0.5134510000000  0.5293600000000 1.0
C      1  0.4068040000000  0.4864980000000  0.4706950000000 1.0
C      1  0.4068500000000  0.4865250000000  0.5293840000000 1.0
C      1  0.4068300000000  0.5134240000000  0.4706680000000 1.0
C      1  0.4734370000000  0.4674460000000  0.4684100000000 1.0
C      1  0.4735160000000  0.5325390000000  0.5315700000000 1.0
C      1  0.4734950000000  0.5325790000000  0.4683920000000 1.0
C      1  0.4735080000000  0.4674940000000  0.5315850000000 1.0
C      1  0.4863960000000  0.5374950000000  0.5569330000000 1.0
C      1  0.4863810000000  0.4623900000000  0.4431040000000 1.0
C      1  0.4864370000000  0.4623740000000  0.5568700000000 1.0
C      1  0.4864580000000  0.5375630000000  0.4430760000000 1.0
C      1  0.5025650000000  0.4380730000000  0.4469440000000 1.0
C      1  0.5025950000000  0.5618320000000  0.5530960000000 1.0
C      1  0.5027250000000  0.5618380000000  0.4469030000000 1.0
C      1  0.5026050000000  0.4380610000000  0.5530200000000 1.0
C      1  0.5205720000000  0.5696140000000  0.5337170000000 1.0
C      1  0.5206080000000  0.4304060000000  0.4662970000000 1.0
C      1  0.5206310000000  0.4304110000000  0.5336490000000 1.0
C      1  0.5208000000000  0.5695190000000  0.4662240000000 1.0
C      1  0.4225620000000  0.4687100000000  0.5147100000000 1.0
C      1  0.4225630000000  0.5312380000000  0.4853210000000 1.0
C      1  0.4225790000000  0.5312410000000  0.5146680000000 1.0
C      1  0.4225270000000  0.4686880000000  0.4853640000000 1.0
C      1  0.5445610000000  0.5276970000000  0.5296110000000 1.0
C      1  0.5445410000000  0.4725160000000  0.4706360000000 1.0
C      1  0.5445880000000  0.4725560000000  0.5293130000000 1.0
C      1  0.5446440000000  0.5274360000000  0.4705900000000 1.0
C      1  0.5382980000000  0.5550300000000  0.4845650000000 1.0
C      1  0.5380970000000  0.4449520000000  0.5153700000000 1.0
C      1  0.5380940000000  0.4449490000000  0.4845540000000 1.0
C      1  0.5381690000000  0.5551940000000  0.5153920000000 1.0
C      1  0.5179240000000  0.5139990000000  0.4763250000000 1.0
C      1  0.5179630000000  0.4861240000000  0.5235690000000 1.0
C      1  0.5178560000000  0.4860350000000  0.4763050000000 1.0
C      1  0.5180200000000  0.5140800000000  0.5236130000000 1.0
C      1  0.5681350000000  0.5152190000000  0.4843930000000 1.0
C      1  0.5681660000000  0.4841700000000  0.5150160000000 1.0
C      1  0.5678670000000  0.4845010000000  0.4847750000000 1.0
C      1  0.5686520000000  0.5164650000000  0.5160350000000 1.0
C      1  0.5480630000000  0.5151630000000  0.4415470000000 1.0
C      1  0.5481240000000  0.4848150000000  0.5583160000000 1.0
C      1  0.5480760000000  0.4847310000000  0.4416160000000 1.0
C      1  0.5479700000000  0.5152320000000  0.5585220000000 1.0
END
