TITL C-2323479-8056-1 -0.0270874327554056 125000 -359.126990658179 0 0 60 (C1) n - 1
REM
REM in /home/bkarasulu/CARBON/AIRSS/Generating-Clusters/LCBOP/Higher-Symm/Only-C60/SD-CG/FIRE-HFTN
REM
REM
REM
REM
REM
REM ./C.cell (50c204cfd26239f34c78669fe23a5462)
REM
REM compiler GCC version 9.2.1 20190827 (Red Hat 9.2.1-1)
REM options -cpp -mtune=generic -march=x86-64 -g -O0 -fpre-include=/usr/include/finclude/math-vector-fortran.h
REM seed 194697215 1936245793 -1324444349 -829904418 659348120 -808728971 1738388057 1428448694 -263197208 1381146985 1944835132 -1192422771 165317164 -2119393447 647364198 948331050 76939582 68332259 1410277281 2071993334 -1013282128 -940990092 7087144 -1155006297 1656381598 -498067282 -1013265885 664154862 -1243938883 -138310878 39321326 -895402013 -721176650
REM
CELL 1.54180   50.00000   50.00000   50.00000   90.00000   90.00000   90.00000
LATT -1
SFAC C  
C      1  0.5022800000000  0.4082850000000  0.5214000000000 1.0
C      1  0.4291480000000  0.5677110000000  0.4412820000000 1.0
C      1  0.5778950000000  0.5581430000000  0.4887660000000 1.0
C      1  0.4384960000000  0.5433760000000  0.4540000000000 1.0
C      1  0.5545180000000  0.5559470000000  0.4711470000000 1.0
C      1  0.5111750000000  0.4142960000000  0.4942400000000 1.0
C      1  0.5371790000000  0.5113910000000  0.5085040000000 1.0
C      1  0.5051950000000  0.4725430000000  0.5134820000000 1.0
C      1  0.5109470000000  0.5004900000000  0.5119860000000 1.0
C      1  0.5526820000000  0.5336830000000  0.4535640000000 1.0
C      1  0.4936490000000  0.4241500000000  0.4742110000000 1.0
C      1  0.4605420000000  0.5378060000000  0.4697710000000 1.0
C      1  0.4215100000000  0.4962810000000  0.4550040000000 1.0
C      1  0.5096920000000  0.5725850000000  0.4942640000000 1.0
C      1  0.5568820000000  0.4342210000000  0.4857230000000 1.0
C      1  0.5918130000000  0.4702390000000  0.4761850000000 1.0
C      1  0.4326240000000  0.4742150000000  0.5017880000000 1.0
C      1  0.4692610000000  0.5593240000000  0.5238360000000 1.0
C      1  0.5323870000000  0.5570760000000  0.4911330000000 1.0
C      1  0.5330710000000  0.4339460000000  0.4995850000000 1.0
C      1  0.4199030000000  0.5220310000000  0.4449610000000 1.0
C      1  0.4300590000000  0.5715070000000  0.5571400000000 1.0
C      1  0.6419990000000  0.4828610000000  0.4689680000000 1.0
C      1  0.3990620000000  0.4782990000000  0.5428760000000 1.0
C      1  0.5430340000000  0.5392120000000  0.5130020000000 1.0
C      1  0.5217140000000  0.4506080000000  0.5219080000000 1.0
C      1  0.4011600000000  0.5350930000000  0.4270970000000 1.0
C      1  0.4481110000000  0.5716930000000  0.5374250000000 1.0
C      1  0.6171680000000  0.4737600000000  0.4648140000000 1.0
C      1  0.4124290000000  0.4816470000000  0.5199760000000 1.0
C      1  0.4014650000000  0.4632240000000  0.5649940000000 1.0
C      1  0.4220520000000  0.5545600000000  0.5763900000000 1.0
C      1  0.6547240000000  0.4963580000000  0.4884190000000 1.0
C      1  0.4874080000000  0.4519700000000  0.4731060000000 1.0
C      1  0.4807680000000  0.5202230000000  0.4779360000000 1.0
C      1  0.5458530000000  0.5069530000000  0.4611200000000 1.0
C      1  0.4284090000000  0.4799090000000  0.4747560000000 1.0
C      1  0.4868670000000  0.5741890000000  0.5078880000000 1.0
C      1  0.5779470000000  0.4461070000000  0.4748980000000 1.0
C      1  0.4304750000000  0.5296020000000  0.5819780000000 1.0
C      1  0.6455060000000  0.5067440000000  0.5114830000000 1.0
C      1  0.4206060000000  0.4453650000000  0.5713380000000 1.0
C      1  0.5248770000000  0.4931760000000  0.4498120000000 1.0
C      1  0.4964530000000  0.4692740000000  0.4537020000000 1.0
C      1  0.4921900000000  0.5043050000000  0.4586550000000 1.0
C      1  0.4885490000000  0.5176320000000  0.5054320000000 1.0
C      1  0.5540860000000  0.4999440000000  0.4879190000000 1.0
C      1  0.4815220000000  0.4635740000000  0.4988620000000 1.0
C      1  0.4070460000000  0.5621980000000  0.4253620000000 1.0
C      1  0.5708860000000  0.5483780000000  0.5140250000000 1.0
C      1  0.5090450000000  0.4296200000000  0.5381350000000 1.0
C      1  0.4489250000000  0.5145130000000  0.5695810000000 1.0
C      1  0.6206840000000  0.5075630000000  0.5217340000000 1.0
C      1  0.4424160000000  0.4381830000000  0.5573840000000 1.0
C      1  0.4540480000000  0.4448070000000  0.5342570000000 1.0
C      1  0.4649590000000  0.5166480000000  0.5483110000000 1.0
C      1  0.5960870000000  0.5003090000000  0.5140680000000 1.0
C      1  0.4561430000000  0.4609350000000  0.5112490000000 1.0
C      1  0.4741770000000  0.5310550000000  0.5260510000000 1.0
C      1  0.5802470000000  0.4902680000000  0.4931130000000 1.0
END
