TITL C-2323484-8600-452 1.05240902753618 125000 -358.625778644121 0 0 60 (C1) n - 1
REM
REM in /home/bkarasulu/CARBON/AIRSS/Generating-Clusters/LCBOP/Higher-Symm/Only-C60/SD-CG/FIRE-HFTN
REM
REM
REM
REM
REM
REM ./C.cell (50c204cfd26239f34c78669fe23a5462)
REM
REM compiler GCC version 9.2.1 20190827 (Red Hat 9.2.1-1)
REM options -cpp -mtune=generic -march=x86-64 -g -O0 -fpre-include=/usr/include/finclude/math-vector-fortran.h
REM seed 707122275 1015391083 -321718126 320739109 396672250 205220446 -1714535101 1911740565 1587475083 -27697203 1870251248 -942807526 209387515 967935000 1500707715 1157117241 -1912946537 1897199835 -449882008 1921834084 -1974255709 1118916369 -379534761 -480431035 -1823013353 1351546730 691084274 -207043814 -1491886796 -998272695 -2103009831 1051708902 -333335958
REM
CELL 1.54180   50.00000   50.00000   50.00000   90.00000   90.00000   90.00000
LATT -1
SFAC C  
C      1  0.5868610000000  0.4293790000000  0.4760230000000 1.0
C      1  0.3956900000000  0.4460780000000  0.5137380000000 1.0
C      1  0.4036580000000  0.5728700000000  0.4964260000000 1.0
C      1  0.5947080000000  0.5434000000000  0.4689100000000 1.0
C      1  0.3685240000000  0.5325030000000  0.5029430000000 1.0
C      1  0.5360630000000  0.4582120000000  0.4734680000000 1.0
C      1  0.3779790000000  0.6064760000000  0.4723180000000 1.0
C      1  0.4419710000000  0.4205180000000  0.5124530000000 1.0
C      1  0.6051280000000  0.4661570000000  0.5482570000000 1.0
C      1  0.5261650000000  0.5706010000000  0.4916440000000 1.0
C      1  0.5636770000000  0.5115470000000  0.5163600000000 1.0
C      1  0.6462660000000  0.4590110000000  0.5050530000000 1.0
C      1  0.5745790000000  0.5598130000000  0.4745020000000 1.0
C      1  0.3275000000000  0.4722040000000  0.5137500000000 1.0
C      1  0.5780950000000  0.4353340000000  0.5214880000000 1.0
C      1  0.5946330000000  0.4623890000000  0.4308390000000 1.0
C      1  0.5538460000000  0.4969950000000  0.4964350000000 1.0
C      1  0.4253940000000  0.6025870000000  0.4645460000000 1.0
C      1  0.3748880000000  0.4624640000000  0.5127490000000 1.0
C      1  0.6071590000000  0.4493480000000  0.4764800000000 1.0
C      1  0.5806060000000  0.5085930000000  0.5608690000000 1.0
C      1  0.6089930000000  0.4583860000000  0.4079770000000 1.0
C      1  0.5669200000000  0.4288700000000  0.4962580000000 1.0
C      1  0.4774860000000  0.5750310000000  0.4975940000000 1.0
C      1  0.4018720000000  0.5942100000000  0.4774750000000 1.0
C      1  0.6074410000000  0.4687020000000  0.4556470000000 1.0
C      1  0.6191320000000  0.4533600000000  0.5023290000000 1.0
C      1  0.4674570000000  0.4138460000000  0.5094340000000 1.0
C      1  0.4788580000000  0.5574410000000  0.5850630000000 1.0
C      1  0.4935040000000  0.4130930000000  0.5045040000000 1.0
C      1  0.3827730000000  0.5545810000000  0.4994790000000 1.0
C      1  0.2527450000000  0.4475720000000  0.5212460000000 1.0
C      1  0.5316280000000  0.4826760000000  0.4869270000000 1.0
C      1  0.5066420000000  0.4932620000000  0.4939200000000 1.0
C      1  0.5617340000000  0.5194320000000  0.5432430000000 1.0
C      1  0.3024540000000  0.4639560000000  0.5162610000000 1.0
C      1  0.4953780000000  0.5489530000000  0.5667820000000 1.0
C      1  0.5448710000000  0.4586210000000  0.4468200000000 1.0
C      1  0.5509120000000  0.5691680000000  0.4821180000000 1.0
C      1  0.5183220000000  0.4194860000000  0.4977020000000 1.0
C      1  0.6018890000000  0.4505400000000  0.5253160000000 1.0
C      1  0.5386780000000  0.5331380000000  0.5510610000000 1.0
C      1  0.4274960000000  0.5690910000000  0.5107640000000 1.0
C      1  0.4541110000000  0.5689020000000  0.5120410000000 1.0
C      1  0.5665910000000  0.4603810000000  0.4314190000000 1.0
C      1  0.6139350000000  0.4954580000000  0.4607290000000 1.0
C      1  0.5972160000000  0.4876820000000  0.5618590000000 1.0
C      1  0.4179700000000  0.4317080000000  0.5137730000000 1.0
C      1  0.5020340000000  0.5622670000000  0.5031260000000 1.0
C      1  0.3593840000000  0.5079340000000  0.5068190000000 1.0
C      1  0.4520580000000  0.6024830000000  0.4633230000000 1.0
C      1  0.5022700000000  0.5388740000000  0.5194020000000 1.0
C      1  0.6714590000000  0.4652930000000  0.5072810000000 1.0
C      1  0.4735110000000  0.5922780000000  0.4756960000000 1.0
C      1  0.2773940000000  0.4556960000000  0.5187740000000 1.0
C      1  0.6086890000000  0.5211900000000  0.4647630000000 1.0
C      1  0.5400760000000  0.4345860000000  0.4891500000000 1.0
C      1  0.3539200000000  0.4808670000000  0.5111060000000 1.0
C      1  0.4967710000000  0.5140810000000  0.5074500000000 1.0
C      1  0.5120370000000  0.5404260000000  0.5461190000000 1.0
END
