TITL C-2323479-8056-61 2.06692593484447 125000 -347.744337483867 0 0 60 (C1) n - 1
REM
REM in /home/bkarasulu/CARBON/AIRSS/Generating-Clusters/LCBOP/Higher-Symm/Only-C60/SD-CG/FIRE-HFTN
REM
REM
REM
REM
REM
REM ./C.cell (50c204cfd26239f34c78669fe23a5462)
REM
REM compiler GCC version 9.2.1 20190827 (Red Hat 9.2.1-1)
REM options -cpp -mtune=generic -march=x86-64 -g -O0 -fpre-include=/usr/include/finclude/math-vector-fortran.h
REM seed 1769365708 1311524614 426845666 -1532082577 -1688901084 -1565705786 -1437646639 -1745219992 1782209771 827512589 -441298805 655900540 -2103141094 -681151748 -1607026273 468710147 -1681159816 -1815632758 1525494560 -1978769695 1587560 1505984158 -2084768505 983000094 1557816272 1495908993 2102899767 -2072972136 -999575158 -28982274 1277021511 496204049 1591127328
REM
CELL 1.54180   50.00000   50.00000   50.00000   90.00000   90.00000   90.00000
LATT -1
SFAC C  
C      1  0.5010920000000  0.5865520000000  0.5132490000000 1.0
C      1  0.4414460000000  0.4874840000000  0.5303800000000 1.0
C      1  0.4546220000000  0.4494440000000  0.5025270000000 1.0
C      1  0.4306100000000  0.4978260000000  0.5809840000000 1.0
C      1  0.4250190000000  0.4974550000000  0.4633770000000 1.0
C      1  0.4772690000000  0.5474830000000  0.5143370000000 1.0
C      1  0.4750540000000  0.4388460000000  0.5954420000000 1.0
C      1  0.4377190000000  0.4095070000000  0.5239110000000 1.0
C      1  0.4673200000000  0.5065460000000  0.4410440000000 1.0
C      1  0.4657240000000  0.4848530000000  0.4223100000000 1.0
C      1  0.4634720000000  0.5657170000000  0.4956290000000 1.0
C      1  0.4800730000000  0.4371120000000  0.4261280000000 1.0
C      1  0.4287870000000  0.4993950000000  0.6073800000000 1.0
C      1  0.4735690000000  0.4182530000000  0.4687300000000 1.0
C      1  0.6147570000000  0.5494760000000  0.5116400000000 1.0
C      1  0.5464030000000  0.5898810000000  0.4935740000000 1.0
C      1  0.4622400000000  0.4583100000000  0.4319990000000 1.0
C      1  0.4714720000000  0.4352820000000  0.5467990000000 1.0
C      1  0.4821360000000  0.5289120000000  0.4357030000000 1.0
C      1  0.4667810000000  0.4896560000000  0.3953680000000 1.0
C      1  0.4980090000000  0.4464010000000  0.5448740000000 1.0
C      1  0.4621170000000  0.4303480000000  0.5731880000000 1.0
C      1  0.5051540000000  0.3960690000000  0.4377790000000 1.0
C      1  0.6668790000000  0.6331190000000  0.4623360000000 1.0
C      1  0.4556880000000  0.4390080000000  0.4761050000000 1.0
C      1  0.4545670000000  0.4311380000000  0.5244260000000 1.0
C      1  0.5422900000000  0.4484250000000  0.4830800000000 1.0
C      1  0.5473650000000  0.5317250000000  0.4930500000000 1.0
C      1  0.5580330000000  0.5115880000000  0.5362320000000 1.0
C      1  0.5098720000000  0.4589910000000  0.5680330000000 1.0
C      1  0.4343760000000  0.4941990000000  0.5550070000000 1.0
C      1  0.5533300000000  0.5231540000000  0.4671570000000 1.0
C      1  0.4528160000000  0.5040390000000  0.4655450000000 1.0
C      1  0.4662620000000  0.4963920000000  0.4894940000000 1.0
C      1  0.5244460000000  0.5747600000000  0.5014630000000 1.0
C      1  0.4870620000000  0.4161550000000  0.4438930000000 1.0
C      1  0.5128920000000  0.4853340000000  0.4932180000000 1.0
C      1  0.4781370000000  0.5897040000000  0.4949530000000 1.0
C      1  0.5225020000000  0.3774000000000  0.4323270000000 1.0
C      1  0.5912240000000  0.5384060000000  0.5133190000000 1.0
C      1  0.6177520000000  0.6183250000000  0.4738210000000 1.0
C      1  0.5931530000000  0.6104910000000  0.4797990000000 1.0
C      1  0.5573500000000  0.5143390000000  0.4429660000000 1.0
C      1  0.4982640000000  0.4526550000000  0.5930930000000 1.0
C      1  0.5121750000000  0.4464940000000  0.5207880000000 1.0
C      1  0.4894160000000  0.5673910000000  0.5330720000000 1.0
C      1  0.5656940000000  0.5271160000000  0.5143070000000 1.0
C      1  0.4929410000000  0.5048500000000  0.4946730000000 1.0
C      1  0.4275580000000  0.5003170000000  0.6334040000000 1.0
C      1  0.4980730000000  0.5314870000000  0.5024580000000 1.0
C      1  0.4539830000000  0.4776840000000  0.5073750000000 1.0
C      1  0.5232310000000  0.5457500000000  0.4982560000000 1.0
C      1  0.4217280000000  0.4700430000000  0.4572450000000 1.0
C      1  0.5302460000000  0.4777570000000  0.5651380000000 1.0
C      1  0.5462550000000  0.4955690000000  0.5537570000000 1.0
C      1  0.4047410000000  0.5152000000000  0.4668330000000 1.0
C      1  0.5229860000000  0.4597930000000  0.4986420000000 1.0
C      1  0.5691730000000  0.6013230000000  0.4863580000000 1.0
C      1  0.6425110000000  0.6258020000000  0.4680210000000 1.0
C      1  0.4441840000000  0.4532660000000  0.4540030000000 1.0
END
