TITL C-2323490-8774-560 0.240322434706877 125000 -359.949373673309 0 0 60 (C1) n - 1
REM
REM in /home/bkarasulu/CARBON/AIRSS/Generating-Clusters/LCBOP/Higher-Symm/Only-C60/SD-CG/FIRE-HFTN
REM
REM
REM
REM
REM
REM ./C.cell (50c204cfd26239f34c78669fe23a5462)
REM
REM compiler GCC version 9.2.1 20190827 (Red Hat 9.2.1-1)
REM options -cpp -mtune=generic -march=x86-64 -g -O0 -fpre-include=/usr/include/finclude/math-vector-fortran.h
REM seed -1717062088 1776672066 -498898348 -969545084 417940504 -1486491047 -116941746 1950453316 2105694732 -508924055 -2143289091 1692809072 -2069454558 2007068319 -1981887224 -1093084395 1403362063 591713947 969869973 -290340161 -1960987815 310738034 2000293972 -934978166 -1828552542 -872561945 1465590085 -1516958384 1083445348 1763449708 1172796644 1455085677 2147397927
REM
CELL 1.54180   50.00000   50.00000   50.00000   90.00000   90.00000   90.00000
LATT -1
SFAC C  
C      1  0.5303650000000  0.5164970000000  0.5506480000000 1.0
C      1  0.5421280000000  0.5304790000000  0.5111310000000 1.0
C      1  0.5375310000000  0.5418520000000  0.5368290000000 1.0
C      1  0.4551370000000  0.5562620000000  0.4533070000000 1.0
C      1  0.5547170000000  0.4764410000000  0.4576340000000 1.0
C      1  0.4416770000000  0.4908090000000  0.5454880000000 1.0
C      1  0.4689850000000  0.5558840000000  0.4823940000000 1.0
C      1  0.5528480000000  0.4451040000000  0.4948750000000 1.0
C      1  0.4610000000000  0.4498750000000  0.5403250000000 1.0
C      1  0.5000090000000  0.5560100000000  0.4457250000000 1.0
C      1  0.5311990000000  0.4582250000000  0.4543550000000 1.0
C      1  0.4775650000000  0.4630420000000  0.5602680000000 1.0
C      1  0.5547020000000  0.4786400000000  0.5268580000000 1.0
C      1  0.5469900000000  0.4504250000000  0.5238010000000 1.0
C      1  0.5067440000000  0.4575700000000  0.5591210000000 1.0
C      1  0.4544220000000  0.5025080000000  0.4397330000000 1.0
C      1  0.5525240000000  0.5042790000000  0.4502960000000 1.0
C      1  0.4424520000000  0.5084090000000  0.5227120000000 1.0
C      1  0.4597260000000  0.4506100000000  0.4904590000000 1.0
C      1  0.5405650000000  0.5484660000000  0.4706000000000 1.0
C      1  0.4682710000000  0.5680580000000  0.5115170000000 1.0
C      1  0.4836860000000  0.4474070000000  0.4725840000000 1.0
C      1  0.5180350000000  0.5345690000000  0.4541330000000 1.0
C      1  0.4856500000000  0.5387100000000  0.5466440000000 1.0
C      1  0.5175030000000  0.5675060000000  0.5246850000000 1.0
C      1  0.5128260000000  0.5065320000000  0.5712910000000 1.0
C      1  0.5631590000000  0.5166550000000  0.4972940000000 1.0
C      1  0.4966680000000  0.5694270000000  0.4727330000000 1.0
C      1  0.5317480000000  0.4379790000000  0.4758620000000 1.0
C      1  0.5054120000000  0.4288890000000  0.5150790000000 1.0
C      1  0.4759440000000  0.5443110000000  0.4343530000000 1.0
C      1  0.5022500000000  0.4962270000000  0.4330930000000 1.0
C      1  0.4664010000000  0.4917820000000  0.5629540000000 1.0
C      1  0.4165800000000  0.4804930000000  0.4927080000000 1.0
C      1  0.5670610000000  0.4690410000000  0.4831440000000 1.0
C      1  0.4356310000000  0.4629180000000  0.5361430000000 1.0
C      1  0.5206520000000  0.4428270000000  0.5357410000000 1.0
C      1  0.5178400000000  0.4784400000000  0.5761150000000 1.0
C      1  0.5693110000000  0.4894140000000  0.5037670000000 1.0
C      1  0.5056170000000  0.4321600000000  0.4864390000000 1.0
C      1  0.5221590000000  0.5679970000000  0.4896870000000 1.0
C      1  0.4877700000000  0.5660790000000  0.5344060000000 1.0
C      1  0.4780780000000  0.5141630000000  0.4285970000000 1.0
C      1  0.5275940000000  0.5117650000000  0.4368390000000 1.0
C      1  0.4850460000000  0.5154040000000  0.5663380000000 1.0
C      1  0.4325030000000  0.4585110000000  0.4990270000000 1.0
C      1  0.5603890000000  0.5257150000000  0.4701030000000 1.0
C      1  0.4207000000000  0.5047870000000  0.5045650000000 1.0
C      1  0.5038620000000  0.4729010000000  0.4554560000000 1.0
C      1  0.4514830000000  0.5083350000000  0.4659560000000 1.0
C      1  0.4734220000000  0.4561380000000  0.5153720000000 1.0
C      1  0.4836870000000  0.4820040000000  0.5144460000000 1.0
C      1  0.4924490000000  0.5245040000000  0.5228080000000 1.0
C      1  0.5028610000000  0.5191730000000  0.4768730000000 1.0
C      1  0.5304210000000  0.4933380000000  0.5302100000000 1.0
C      1  0.4701560000000  0.5090840000000  0.5112900000000 1.0
C      1  0.5095740000000  0.4902830000000  0.4798210000000 1.0
C      1  0.5113330000000  0.4849610000000  0.5086010000000 1.0
C      1  0.4712510000000  0.5223730000000  0.4834120000000 1.0
C      1  0.5137280000000  0.5277530000000  0.5033550000000 1.0
END
