TITL C-2323479-8056-381 30.2655010687103 125000 -345.193023808724 0 0 60 (C1) n - 1
REM
REM in /home/bkarasulu/CARBON/AIRSS/Generating-Clusters/LCBOP/Higher-Symm/Only-C60/SD-CG/FIRE-HFTN
REM
REM
REM
REM
REM
REM ./C.cell (50c204cfd26239f34c78669fe23a5462)
REM
REM compiler GCC version 9.2.1 20190827 (Red Hat 9.2.1-1)
REM options -cpp -mtune=generic -march=x86-64 -g -O0 -fpre-include=/usr/include/finclude/math-vector-fortran.h
REM seed 713958251 818614839 -1276599949 2017885436 -1900952505 1252088456 278662882 -1009794365 -1827711462 731745339 -643679637 -942685516 1391175957 314835385 -1192026133 -1976263776 384174695 1283741543 887732887 902933602 -1687932568 1956279906 -1120981653 -1591798886 -692000705 -1840243003 2009558654 -881183416 -1890967389 -158273828 -62209722 -1673781083 -166912759
REM
CELL 1.54180   50.00000   50.00000   50.00000   90.00000   90.00000   90.00000
LATT -1
SFAC C  
C      1  0.4672320000000  0.4435850000000  0.5358530000000 1.0
C      1  0.4674210000000  0.5569960000000  0.5357330000000 1.0
C      1  0.5656760000000  0.4994200000000  0.5359510000000 1.0
C      1  0.3251280000000  0.7260110000000  0.5083870000000 1.0
C      1  0.7832230000000  0.5374210000000  0.5084440000000 1.0
C      1  0.3911420000000  0.2361890000000  0.5088480000000 1.0
C      1  0.6788170000000  0.5209960000000  0.5003670000000 1.0
C      1  0.4290710000000  0.3348180000000  0.5005250000000 1.0
C      1  0.3919070000000  0.6440950000000  0.5002660000000 1.0
C      1  0.4428760000000  0.5815800000000  0.4940900000000 1.0
C      1  0.5991340000000  0.5084570000000  0.4942260000000 1.0
C      1  0.4580160000000  0.4100930000000  0.4941960000000 1.0
C      1  0.3816570000000  0.2115250000000  0.5109290000000 1.0
C      1  0.3084290000000  0.7464950000000  0.5104180000000 1.0
C      1  0.8093310000000  0.5415280000000  0.5104630000000 1.0
C      1  0.5313970000000  0.4791520000000  0.4344200000000 1.0
C      1  0.4661540000000  0.4834620000000  0.4343350000000 1.0
C      1  0.5025120000000  0.5378090000000  0.4344420000000 1.0
C      1  0.4540620000000  0.5701740000000  0.5170350000000 1.0
C      1  0.5836890000000  0.5043650000000  0.5171680000000 1.0
C      1  0.4624000000000  0.4254960000000  0.5171140000000 1.0
C      1  0.5867590000000  0.5081670000000  0.4691710000000 1.0
C      1  0.4637360000000  0.4209770000000  0.4691000000000 1.0
C      1  0.4494950000000  0.5711560000000  0.4690190000000 1.0
C      1  0.3418220000000  0.7055320000000  0.5063570000000 1.0
C      1  0.7571210000000  0.5333150000000  0.5064250000000 1.0
C      1  0.4006240000000  0.2608460000000  0.5067670000000 1.0
C      1  0.4601420000000  0.5558330000000  0.4502030000000 1.0
C      1  0.5681680000000  0.5067680000000  0.4503390000000 1.0
C      1  0.4716980000000  0.4378030000000  0.4502400000000 1.0
C      1  0.4699120000000  0.4632090000000  0.5556410000000 1.0
C      1  0.4834310000000  0.5447810000000  0.5551850000000 1.0
C      1  0.5473690000000  0.4919980000000  0.5557930000000 1.0
C      1  0.4195880000000  0.3101610000000  0.5026060000000 1.0
C      1  0.3752120000000  0.6645740000000  0.5022960000000 1.0
C      1  0.7049180000000  0.5251020000000  0.5023860000000 1.0
C      1  0.6527150000000  0.5168890000000  0.4983480000000 1.0
C      1  0.4385530000000  0.3594750000000  0.4984440000000 1.0
C      1  0.4086020000000  0.6236160000000  0.4982350000000 1.0
C      1  0.7310200000000  0.5292080000000  0.5044050000000 1.0
C      1  0.4101060000000  0.2855040000000  0.5046870000000 1.0
C      1  0.3585170000000  0.6850530000000  0.5043270000000 1.0
C      1  0.8350100000000  0.5455680000000  0.5124490000000 1.0
C      1  0.3723280000000  0.1872670000000  0.5129760000000 1.0
C      1  0.2920040000000  0.7666430000000  0.5124150000000 1.0
C      1  0.5267430000000  0.5268220000000  0.4344830000000 1.0
C      1  0.5097660000000  0.4636630000000  0.4343900000000 1.0
C      1  0.4635570000000  0.5099400000000  0.4343460000000 1.0
C      1  0.5565230000000  0.4808240000000  0.5790650000000 1.0
C      1  0.4550630000000  0.4613270000000  0.5785810000000 1.0
C      1  0.4902600000000  0.5587590000000  0.5777290000000 1.0
C      1  0.5429490000000  0.5043380000000  0.4387470000000 1.0
C      1  0.4821900000000  0.4608640000000  0.4386460000000 1.0
C      1  0.4749080000000  0.5352170000000  0.4386590000000 1.0
C      1  0.5205840000000  0.4959330000000  0.5518540000000 1.0
C      1  0.4872690000000  0.4840560000000  0.5519820000000 1.0
C      1  0.4921170000000  0.5190890000000  0.5515900000000 1.0
C      1  0.4480310000000  0.3841220000000  0.4963640000000 1.0
C      1  0.4252900000000  0.6031470000000  0.4962060000000 1.0
C      1  0.6266250000000  0.5127850000000  0.4963290000000 1.0
END
