TITL C-2323489-8765-328 4.32930047537622e-06 125000 -361.103653475415 0 0 60 (C1) n - 1
REM
REM in /home/bkarasulu/CARBON/AIRSS/Generating-Clusters/LCBOP/Higher-Symm/Only-C60/SD-CG/FIRE-HFTN
REM
REM
REM
REM
REM
REM ./C.cell (50c204cfd26239f34c78669fe23a5462)
REM
REM compiler GCC version 9.2.1 20190827 (Red Hat 9.2.1-1)
REM options -cpp -mtune=generic -march=x86-64 -g -O0 -fpre-include=/usr/include/finclude/math-vector-fortran.h
REM seed -1684360417 -496327821 411923089 522901513 -1222784992 -1579234159 1184519133 2016397062 -1600003582 1488139266 1794861135 -1469678792 -1921592107 -2093879142 -2132312240 -350698028 -2131181049 -166507519 1724485278 969669747 1886518828 -1870360607 -978976556 -1957967586 -504182055 560343500 2048876474 -1438096167 806468219 -1457867853 1842904485 -1661493856 323156277
REM
CELL 1.54180   50.00000   50.00000   50.00000   90.00000   90.00000   90.00000
LATT -1
SFAC C  
C      1  0.4545380000000  0.4471800000000  0.4872320000000 1.0
C      1  0.5447500000000  0.4518670000000  0.5155300000000 1.0
C      1  0.4817020000000  0.5107680000000  0.5003560000000 1.0
C      1  0.5070930000000  0.5130850000000  0.4910950000000 1.0
C      1  0.5517480000000  0.4338240000000  0.5362460000000 1.0
C      1  0.4485130000000  0.4304080000000  0.4651230000000 1.0
C      1  0.4742410000000  0.5444200000000  0.4532670000000 1.0
C      1  0.5224030000000  0.5354420000000  0.5387880000000 1.0
C      1  0.5489680000000  0.5319210000000  0.5289620000000 1.0
C      1  0.4509790000000  0.5340780000000  0.4666710000000 1.0
C      1  0.5006480000000  0.4692260000000  0.4733000000000 1.0
C      1  0.5029210000000  0.4835780000000  0.5330530000000 1.0
C      1  0.5616450000000  0.4908500000000  0.5548180000000 1.0
C      1  0.4374470000000  0.4896300000000  0.4456350000000 1.0
C      1  0.5555560000000  0.5517180000000  0.5093900000000 1.0
C      1  0.4432050000000  0.5482490000000  0.4919070000000 1.0
C      1  0.4617860000000  0.5639980000000  0.5070440000000 1.0
C      1  0.5369800000000  0.5656850000000  0.4925090000000 1.0
C      1  0.5246680000000  0.4723170000000  0.5157640000000 1.0
C      1  0.4780740000000  0.4633240000000  0.4907570000000 1.0
C      1  0.4240080000000  0.5310850000000  0.5048880000000 1.0
C      1  0.6045860000000  0.5105380000000  0.5038270000000 1.0
C      1  0.5063510000000  0.4774320000000  0.4457030000000 1.0
C      1  0.4911800000000  0.4739130000000  0.5599610000000 1.0
C      1  0.4598660000000  0.4884730000000  0.4285370000000 1.0
C      1  0.5385230000000  0.4881240000000  0.5717970000000 1.0
C      1  0.4611390000000  0.4068030000000  0.4602640000000 1.0
C      1  0.5390130000000  0.4101370000000  0.5404020000000 1.0
C      1  0.4602240000000  0.5613270000000  0.5350910000000 1.0
C      1  0.5409680000000  0.5632080000000  0.4648860000000 1.0
C      1  0.4373410000000  0.5077600000000  0.4675190000000 1.0
C      1  0.5639440000000  0.5078540000000  0.5311640000000 1.0
C      1  0.4858240000000  0.5722580000000  0.4930630000000 1.0
C      1  0.5115170000000  0.5708470000000  0.5055910000000 1.0
C      1  0.5790210000000  0.5010270000000  0.5069770000000 1.0
C      1  0.4256160000000  0.5038380000000  0.4951110000000 1.0
C      1  0.5731580000000  0.4430300000000  0.5523020000000 1.0
C      1  0.4280300000000  0.4408750000000  0.4486360000000 1.0
C      1  0.5647670000000  0.4568960000000  0.4956230000000 1.0
C      1  0.4317560000000  0.4561330000000  0.5021170000000 1.0
C      1  0.5214330000000  0.4866470000000  0.4891490000000 1.0
C      1  0.4771620000000  0.4840530000000  0.5138190000000 1.0
C      1  0.4644860000000  0.5427730000000  0.5540800000000 1.0
C      1  0.5385960000000  0.5452580000000  0.4450990000000 1.0
C      1  0.4850020000000  0.4792960000000  0.4277010000000 1.0
C      1  0.5142840000000  0.4765210000000  0.5771320000000 1.0
C      1  0.5215840000000  0.5236020000000  0.4390820000000 1.0
C      1  0.4777530000000  0.5181670000000  0.5566630000000 1.0
C      1  0.4836500000000  0.5687630000000  0.4650150000000 1.0
C      1  0.5119060000000  0.5612480000000  0.5325240000000 1.0
C      1  0.4309350000000  0.4821330000000  0.5134100000000 1.0
C      1  0.5674930000000  0.4839440000000  0.4865880000000 1.0
C      1  0.4658950000000  0.4906230000000  0.5582620000000 1.0
C      1  0.5292510000000  0.4964480000000  0.4455690000000 1.0
C      1  0.5040810000000  0.5146280000000  0.5422870000000 1.0
C      1  0.4937320000000  0.5304100000000  0.4382660000000 1.0
C      1  0.5794060000000  0.4688370000000  0.5573590000000 1.0
C      1  0.4211280000000  0.4666280000000  0.4443990000000 1.0
C      1  0.5448730000000  0.4917030000000  0.4702340000000 1.0
C      1  0.4526520000000  0.4851920000000  0.5324530000000 1.0
END
