TITL C-2323489-8765-405 0.0479770355143511 125000 -364.014298860179 0 0 60 (C1) n - 1
REM
REM in /home/bkarasulu/CARBON/AIRSS/Generating-Clusters/LCBOP/Higher-Symm/Only-C60/SD-CG/FIRE-HFTN
REM
REM
REM
REM
REM
REM ./C.cell (50c204cfd26239f34c78669fe23a5462)
REM
REM compiler GCC version 9.2.1 20190827 (Red Hat 9.2.1-1)
REM options -cpp -mtune=generic -march=x86-64 -g -O0 -fpre-include=/usr/include/finclude/math-vector-fortran.h
REM seed 121362227 395159381 -1043845326 -1032889092 -416075203 -2075502062 -262941390 2130859453 944658240 -584241096 -2098978824 -1808390828 -710931184 865353784 -383011104 529645769 1952541024 1179388153 1633462261 -786045139 -293574999 -1456437506 -825092795 1970853123 -1868747792 1711835350 -983760548 1848420153 810696026 -355306030 -345797561 -1108584167 -1046602229
REM
CELL 1.54180   50.00000   50.00000   50.00000   90.00000   90.00000   90.00000
LATT -1
SFAC C  
C      1  0.4577330000000  0.4235100000000  0.4892110000000 1.0
C      1  0.5663420000000  0.4127500000000  0.5859250000000 1.0
C      1  0.5634060000000  0.5959210000000  0.3976630000000 1.0
C      1  0.3994460000000  0.5625760000000  0.5618260000000 1.0
C      1  0.5304600000000  0.4804030000000  0.4212430000000 1.0
C      1  0.5125190000000  0.5186100000000  0.5755740000000 1.0
C      1  0.4707720000000  0.5375390000000  0.4467440000000 1.0
C      1  0.4583570000000  0.4598750000000  0.5425610000000 1.0
C      1  0.5642450000000  0.5061170000000  0.4926140000000 1.0
C      1  0.5090470000000  0.5409480000000  0.4958270000000 1.0
C      1  0.4966790000000  0.4983270000000  0.5167310000000 1.0
C      1  0.5146490000000  0.4674780000000  0.4846140000000 1.0
C      1  0.4871090000000  0.4556400000000  0.5451190000000 1.0
C      1  0.5361470000000  0.5084200000000  0.4269470000000 1.0
C      1  0.4879360000000  0.5252570000000  0.5614300000000 1.0
C      1  0.4692360000000  0.5089530000000  0.4521670000000 1.0
C      1  0.5008690000000  0.4461380000000  0.4975290000000 1.0
C      1  0.5668000000000  0.5105730000000  0.4661940000000 1.0
C      1  0.4989000000000  0.5494700000000  0.5192820000000 1.0
C      1  0.4748830000000  0.4995990000000  0.5006700000000 1.0
C      1  0.4337400000000  0.4354550000000  0.4890230000000 1.0
C      1  0.5538560000000  0.4006280000000  0.5657210000000 1.0
C      1  0.5824500000000  0.5775540000000  0.4009900000000 1.0
C      1  0.4199420000000  0.5796280000000  0.5614530000000 1.0
C      1  0.5379960000000  0.4780840000000  0.5908120000000 1.0
C      1  0.5013430000000  0.5702630000000  0.4234190000000 1.0
C      1  0.4240140000000  0.4956170000000  0.5521880000000 1.0
C      1  0.4945520000000  0.4473780000000  0.4332610000000 1.0
C      1  0.4898860000000  0.4977430000000  0.4346110000000 1.0
C      1  0.4953490000000  0.4775680000000  0.5628730000000 1.0
C      1  0.5094780000000  0.5204170000000  0.4283910000000 1.0
C      1  0.4740060000000  0.4994920000000  0.5601200000000 1.0
C      1  0.5031390000000  0.4730580000000  0.4273490000000 1.0
C      1  0.5173500000000  0.4901280000000  0.5769480000000 1.0
C      1  0.4948430000000  0.5450070000000  0.4325490000000 1.0
C      1  0.4499380000000  0.4861140000000  0.5512540000000 1.0
C      1  0.4835940000000  0.4304850000000  0.4808010000000 1.0
C      1  0.5667210000000  0.4360960000000  0.5988050000000 1.0
C      1  0.5375540000000  0.6003640000000  0.4024050000000 1.0
C      1  0.3936420000000  0.5366890000000  0.5592450000000 1.0
C      1  0.5555190000000  0.4602210000000  0.5996610000000 1.0
C      1  0.5151340000000  0.5900880000000  0.4123930000000 1.0
C      1  0.4036390000000  0.5123330000000  0.5553900000000 1.0
C      1  0.4890670000000  0.4305440000000  0.4532140000000 1.0
C      1  0.5487180000000  0.5017970000000  0.5142740000000 1.0
C      1  0.5156830000000  0.5200860000000  0.4799220000000 1.0
C      1  0.5232540000000  0.4988410000000  0.5228990000000 1.0
C      1  0.5177320000000  0.4930720000000  0.4763260000000 1.0
C      1  0.4462830000000  0.5813020000000  0.5579240000000 1.0
C      1  0.4249510000000  0.4601050000000  0.4833310000000 1.0
C      1  0.5353620000000  0.4040220000000  0.5468880000000 1.0
C      1  0.5872970000000  0.5534080000000  0.4111140000000 1.0
C      1  0.5604430000000  0.5167670000000  0.4391910000000 1.0
C      1  0.4856890000000  0.5479710000000  0.5444180000000 1.0
C      1  0.4595030000000  0.4984180000000  0.4766970000000 1.0
C      1  0.5020180000000  0.4408170000000  0.5258700000000 1.0
C      1  0.5786040000000  0.5320770000000  0.4243530000000 1.0
C      1  0.4692830000000  0.5692790000000  0.5522300000000 1.0
C      1  0.4354450000000  0.4839890000000  0.4775520000000 1.0
C      1  0.5174480000000  0.4189910000000  0.5342630000000 1.0
END
