TITL C-2323478-8180-536 0.0274954998496189 125000 -354.013459691763 0 0 60 (C1) n - 1
REM
REM in /home/bkarasulu/CARBON/AIRSS/Generating-Clusters/LCBOP/Higher-Symm/Only-C60/SD-CG/FIRE-HFTN
REM
REM
REM
REM
REM
REM ./C.cell (50c204cfd26239f34c78669fe23a5462)
REM
REM compiler GCC version 9.2.1 20190827 (Red Hat 9.2.1-1)
REM options -cpp -mtune=generic -march=x86-64 -g -O0 -fpre-include=/usr/include/finclude/math-vector-fortran.h
REM seed -1020370407 -1178650147 -1476413514 -1954384540 -2120402239 -1214582736 -577671703 1435412328 -1890895242 252885609 935098229 -490062027 1367313742 1931292765 1878901304 533244497 1332600728 748448874 223313603 -1522896691 1910884195 -568114726 1624789710 -1745097178 -1927810690 1251866029 2117694291 -253228125 -141447486 1747194613 467549421 1467331749 -110499814
REM
CELL 1.54180   50.00000   50.00000   50.00000   90.00000   90.00000   90.00000
LATT -1
SFAC C  
C      1  0.5936350000000  0.4877570000000  0.5589790000000 1.0
C      1  0.5562380000000  0.4025030000000  0.4650750000000 1.0
C      1  0.5554660000000  0.5873380000000  0.5046600000000 1.0
C      1  0.4009630000000  0.4889260000000  0.4878510000000 1.0
C      1  0.4062150000000  0.5236100000000  0.4942640000000 1.0
C      1  0.4082530000000  0.4987000000000  0.5219000000000 1.0
C      1  0.5310790000000  0.4444010000000  0.4887840000000 1.0
C      1  0.5348870000000  0.5430800000000  0.4809660000000 1.0
C      1  0.5462150000000  0.4957840000000  0.5335820000000 1.0
C      1  0.5451800000000  0.4942940000000  0.5051450000000 1.0
C      1  0.5438640000000  0.4689640000000  0.4932560000000 1.0
C      1  0.5428660000000  0.5177430000000  0.4899910000000 1.0
C      1  0.4265700000000  0.4848800000000  0.4475070000000 1.0
C      1  0.4412480000000  0.5523710000000  0.5090900000000 1.0
C      1  0.4372700000000  0.4631170000000  0.5354050000000 1.0
C      1  0.4923450000000  0.5878740000000  0.5381710000000 1.0
C      1  0.4975930000000  0.4336870000000  0.5231880000000 1.0
C      1  0.4754090000000  0.4863400000000  0.3990330000000 1.0
C      1  0.6630380000000  0.4758150000000  0.5949480000000 1.0
C      1  0.5921430000000  0.3409780000000  0.4307460000000 1.0
C      1  0.5712050000000  0.6500830000000  0.5500890000000 1.0
C      1  0.4280370000000  0.5392700000000  0.4876180000000 1.0
C      1  0.4307870000000  0.4909100000000  0.5360990000000 1.0
C      1  0.4178060000000  0.4735600000000  0.4721450000000 1.0
C      1  0.4277360000000  0.4489900000000  0.5126960000000 1.0
C      1  0.4312460000000  0.5127070000000  0.4476050000000 1.0
C      1  0.4445870000000  0.5369290000000  0.5324200000000 1.0
C      1  0.5040210000000  0.4422360000000  0.4972090000000 1.0
C      1  0.5142240000000  0.5459380000000  0.4622390000000 1.0
C      1  0.5228890000000  0.5014820000000  0.5479600000000 1.0
C      1  0.5682710000000  0.3818850000000  0.4535710000000 1.0
C      1  0.5615460000000  0.6085010000000  0.5194020000000 1.0
C      1  0.6168930000000  0.4837550000000  0.5710330000000 1.0
C      1  0.4586360000000  0.4458810000000  0.4764090000000 1.0
C      1  0.4657480000000  0.5454640000000  0.4552370000000 1.0
C      1  0.4747540000000  0.5074840000000  0.5548440000000 1.0
C      1  0.5055420000000  0.5442570000000  0.5614330000000 1.0
C      1  0.4863090000000  0.4843070000000  0.4822280000000 1.0
C      1  0.4953880000000  0.5279830000000  0.4213950000000 1.0
C      1  0.4851330000000  0.5080300000000  0.4928740000000 1.0
C      1  0.4900680000000  0.5078360000000  0.4048300000000 1.0
C      1  0.5036380000000  0.5698140000000  0.5542160000000 1.0
C      1  0.5470360000000  0.5658830000000  0.4916130000000 1.0
C      1  0.5704180000000  0.4917440000000  0.5468730000000 1.0
C      1  0.5441660000000  0.4230760000000  0.4765880000000 1.0
C      1  0.6401570000000  0.4797520000000  0.5830900000000 1.0
C      1  0.5803060000000  0.3612620000000  0.4420640000000 1.0
C      1  0.5664970000000  0.6294790000000  0.5348270000000 1.0
C      1  0.4327260000000  0.4528920000000  0.4851220000000 1.0
C      1  0.4409560000000  0.5345060000000  0.4625810000000 1.0
C      1  0.4495700000000  0.5113000000000  0.5430820000000 1.0
C      1  0.4534480000000  0.5774850000000  0.5080300000000 1.0
C      1  0.4582110000000  0.4510480000000  0.5495900000000 1.0
C      1  0.4354480000000  0.4703410000000  0.4253190000000 1.0
C      1  0.4732530000000  0.5910520000000  0.5197720000000 1.0
C      1  0.4811330000000  0.4385490000000  0.5436760000000 1.0
C      1  0.4546040000000  0.4714840000000  0.4067180000000 1.0
C      1  0.5011920000000  0.5169760000000  0.5563320000000 1.0
C      1  0.4839400000000  0.4564050000000  0.4827600000000 1.0
C      1  0.4919930000000  0.5413030000000  0.4458690000000 1.0
END
