TITL C-2323483-8886-210 0.169056053148726 125000 -354.518644741959 0 0 60 (C1) n - 1
REM
REM in /home/bkarasulu/CARBON/AIRSS/Generating-Clusters/LCBOP/Higher-Symm/Only-C60/SD-CG/FIRE-HFTN
REM
REM
REM
REM
REM
REM ./C.cell (50c204cfd26239f34c78669fe23a5462)
REM
REM compiler GCC version 9.2.1 20190827 (Red Hat 9.2.1-1)
REM options -cpp -mtune=generic -march=x86-64 -g -O0 -fpre-include=/usr/include/finclude/math-vector-fortran.h
REM seed -918795596 -858647536 1246831196 -1826877859 1984951119 -910911066 -95436672 2110493605 601979783 -809273683 -1786065628 -1708481240 -1236547992 1947725195 294446809 -1556059773 1492566683 -2060554539 -906438921 1473326911 251132514 -649570365 -393375669 1021076205 2050103075 -1445408268 823080843 -91123724 1834629723 -190440134 -1672894022 1900678835 -1566784343
REM
CELL 1.54180   50.00000   50.00000   50.00000   90.00000   90.00000   90.00000
LATT -1
SFAC C  
C      1  0.4066330000000  0.5231020000000  0.4097790000000 1.0
C      1  0.6254560000000  0.5247500000000  0.5057360000000 1.0
C      1  0.4445490000000  0.5001800000000  0.6061150000000 1.0
C      1  0.4326070000000  0.5431810000000  0.5828540000000 1.0
C      1  0.4367270000000  0.5635950000000  0.4148100000000 1.0
C      1  0.5895080000000  0.5616660000000  0.5106180000000 1.0
C      1  0.5662760000000  0.4451570000000  0.4028960000000 1.0
C      1  0.5772640000000  0.5052810000000  0.5573050000000 1.0
C      1  0.3733740000000  0.5539470000000  0.5290330000000 1.0
C      1  0.6049130000000  0.4549580000000  0.4937250000000 1.0
C      1  0.4829190000000  0.4720010000000  0.5517720000000 1.0
C      1  0.4390800000000  0.4760780000000  0.4541400000000 1.0
C      1  0.4190580000000  0.4973050000000  0.4509090000000 1.0
C      1  0.6145260000000  0.4815660000000  0.4826260000000 1.0
C      1  0.4833380000000  0.4821500000000  0.5801230000000 1.0
C      1  0.5887680000000  0.4583990000000  0.4497990000000 1.0
C      1  0.5263870000000  0.4887700000000  0.5608970000000 1.0
C      1  0.3959220000000  0.5263020000000  0.4904160000000 1.0
C      1  0.4928250000000  0.4368810000000  0.4887220000000 1.0
C      1  0.5404690000000  0.4257300000000  0.4911700000000 1.0
C      1  0.5175950000000  0.4376320000000  0.5018520000000 1.0
C      1  0.4350210000000  0.5248200000000  0.6020610000000 1.0
C      1  0.4169770000000  0.5475240000000  0.4069330000000 1.0
C      1  0.6118200000000  0.5474180000000  0.5083230000000 1.0
C      1  0.5009690000000  0.5009550000000  0.4885710000000 1.0
C      1  0.5045840000000  0.5011890000000  0.5180380000000 1.0
C      1  0.4717980000000  0.4984050000000  0.4828010000000 1.0
C      1  0.5076310000000  0.5303660000000  0.4795260000000 1.0
C      1  0.4969370000000  0.5294750000000  0.5235970000000 1.0
C      1  0.4634140000000  0.5263860000000  0.4886520000000 1.0
C      1  0.4076110000000  0.5121790000000  0.4713020000000 1.0
C      1  0.6048730000000  0.4816360000000  0.4556840000000 1.0
C      1  0.5099670000000  0.4908460000000  0.5844280000000 1.0
C      1  0.5154330000000  0.5434890000000  0.5050160000000 1.0
C      1  0.4686550000000  0.5341840000000  0.5165920000000 1.0
C      1  0.4816570000000  0.5410660000000  0.4701370000000 1.0
C      1  0.5198630000000  0.4550040000000  0.5237930000000 1.0
C      1  0.4717780000000  0.4504750000000  0.4796750000000 1.0
C      1  0.5651920000000  0.4275170000000  0.4815640000000 1.0
C      1  0.4741840000000  0.5580980000000  0.4497460000000 1.0
C      1  0.5374890000000  0.5593440000000  0.5098790000000 1.0
C      1  0.4502840000000  0.5451030000000  0.5343500000000 1.0
C      1  0.4420660000000  0.4637910000000  0.5718680000000 1.0
C      1  0.4214330000000  0.4744520000000  0.4110590000000 1.0
C      1  0.6279040000000  0.4786690000000  0.5263540000000 1.0
C      1  0.4570380000000  0.4599900000000  0.5488600000000 1.0
C      1  0.4377090000000  0.4613480000000  0.4291910000000 1.0
C      1  0.6152560000000  0.4547340000000  0.5204970000000 1.0
C      1  0.5632470000000  0.5655750000000  0.5114620000000 1.0
C      1  0.4382580000000  0.5495400000000  0.5576250000000 1.0
C      1  0.4579890000000  0.5667360000000  0.4305170000000 1.0
C      1  0.5531460000000  0.4955390000000  0.5588200000000 1.0
C      1  0.3844570000000  0.5402830000000  0.5097960000000 1.0
C      1  0.5774590000000  0.4518000000000  0.4254790000000 1.0
C      1  0.5090130000000  0.4790060000000  0.5371990000000 1.0
C      1  0.4598050000000  0.4749850000000  0.4729330000000 1.0
C      1  0.5869830000000  0.4432850000000  0.4746790000000 1.0
C      1  0.4565970000000  0.4801300000000  0.5910850000000 1.0
C      1  0.4111820000000  0.4988940000000  0.4225750000000 1.0
C      1  0.6261240000000  0.4971340000000  0.5040370000000 1.0
END
