TITL C-2323480-5884-501 -0.00541294507634865 125000 -352.651697727743 0 0 60 (C1) n - 1
REM
REM in /home/bkarasulu/CARBON/AIRSS/Generating-Clusters/LCBOP/Higher-Symm/Only-C60/SD-CG/FIRE-HFTN
REM
REM
REM
REM
REM
REM ./C.cell (50c204cfd26239f34c78669fe23a5462)
REM
REM compiler GCC version 9.2.1 20190827 (Red Hat 9.2.1-1)
REM options -cpp -mtune=generic -march=x86-64 -g -O0 -fpre-include=/usr/include/finclude/math-vector-fortran.h
REM seed 1333904259 955926200 -1577176529 -1462372995 35162237 -294983603 -998307286 1379525718 398292116 -1039412446 -629037594 1728558891 -113006833 -1463499649 1488694672 -1700108072 745460279 915555049 1446627191 1735654637 -100251261 1193886952 819665601 -1252439104 -811003532 -2048301243 -438661417 1056314896 -422628025 -1331287577 1102815025 -1385989427 -522779261
REM
CELL 1.54180   50.00000   50.00000   50.00000   90.00000   90.00000   90.00000
LATT -1
SFAC C  
C      1  0.5096400000000  0.4582690000000  0.5507140000000 1.0
C      1  0.5210370000000  0.4443500000000  0.4543040000000 1.0
C      1  0.5117200000000  0.5423880000000  0.4425770000000 1.0
C      1  0.5173130000000  0.5565820000000  0.5429540000000 1.0
C      1  0.4812720000000  0.4542220000000  0.5557340000000 1.0
C      1  0.4918460000000  0.4498030000000  0.4591180000000 1.0
C      1  0.4817730000000  0.5450810000000  0.4459610000000 1.0
C      1  0.4877930000000  0.5514010000000  0.5440800000000 1.0
C      1  0.4637500000000  0.4945260000000  0.4395770000000 1.0
C      1  0.4613430000000  0.5579460000000  0.4931430000000 1.0
C      1  0.4642510000000  0.5044060000000  0.5683930000000 1.0
C      1  0.4429990000000  0.4361270000000  0.5287310000000 1.0
C      1  0.5590670000000  0.4722400000000  0.4377240000000 1.0
C      1  0.5388910000000  0.5663140000000  0.4915840000000 1.0
C      1  0.5588230000000  0.5302130000000  0.5585800000000 1.0
C      1  0.5368670000000  0.4317130000000  0.5049460000000 1.0
C      1  0.4858810000000  0.4752730000000  0.4410670000000 1.0
C      1  0.4751820000000  0.5642010000000  0.4682090000000 1.0
C      1  0.4860250000000  0.5233050000000  0.5659180000000 1.0
C      1  0.4699550000000  0.4357780000000  0.5362180000000 1.0
C      1  0.5320020000000  0.4642900000000  0.4357610000000 1.0
C      1  0.5227530000000  0.5676040000000  0.4670410000000 1.0
C      1  0.5313050000000  0.5359870000000  0.5593930000000 1.0
C      1  0.5146520000000  0.4344950000000  0.5235720000000 1.0
C      1  0.5027240000000  0.5149970000000  0.5253010000000 1.0
C      1  0.5140800000000  0.4763440000000  0.5014590000000 1.0
C      1  0.5208710000000  0.4892240000000  0.4762340000000 1.0
C      1  0.5195290000000  0.5264170000000  0.5062000000000 1.0
C      1  0.4786940000000  0.5015390000000  0.5209760000000 1.0
C      1  0.4831930000000  0.4774350000000  0.5056250000000 1.0
C      1  0.5006740000000  0.5075300000000  0.4694460000000 1.0
C      1  0.5024820000000  0.5299280000000  0.4840420000000 1.0
C      1  0.4723180000000  0.5594060000000  0.5206170000000 1.0
C      1  0.4689110000000  0.4758060000000  0.5702010000000 1.0
C      1  0.4834090000000  0.4355810000000  0.4841200000000 1.0
C      1  0.4676350000000  0.5227110000000  0.4352910000000 1.0
C      1  0.5280880000000  0.5701520000000  0.5190850000000 1.0
C      1  0.5189400000000  0.4842920000000  0.5615080000000 1.0
C      1  0.5336540000000  0.4303030000000  0.4762160000000 1.0
C      1  0.5186500000000  0.5158820000000  0.4303090000000 1.0
C      1  0.4381370000000  0.5142070000000  0.4990190000000 1.0
C      1  0.4513350000000  0.5102150000000  0.5238380000000 1.0
C      1  0.4553830000000  0.4702000000000  0.4957260000000 1.0
C      1  0.4409010000000  0.4912900000000  0.4824590000000 1.0
C      1  0.5495090000000  0.5195280000000  0.4984050000000 1.0
C      1  0.5566110000000  0.5003500000000  0.5202480000000 1.0
C      1  0.5411770000000  0.4764550000000  0.5164570000000 1.0
C      1  0.5476180000000  0.5005980000000  0.4747860000000 1.0
C      1  0.5694320000000  0.5111380000000  0.5426920000000 1.0
C      1  0.5548530000000  0.4517330000000  0.5138590000000 1.0
C      1  0.5661820000000  0.4905950000000  0.4563620000000 1.0
C      1  0.5595300000000  0.5464970000000  0.4915390000000 1.0
C      1  0.4430610000000  0.5108990000000  0.5505490000000 1.0
C      1  0.4379510000000  0.4506250000000  0.5066390000000 1.0
C      1  0.4405980000000  0.4892950000000  0.4546880000000 1.0
C      1  0.4387150000000  0.5408730000000  0.4903290000000 1.0
C      1  0.4881590000000  0.4305120000000  0.5133940000000 1.0
C      1  0.5123750000000  0.4860840000000  0.4301650000000 1.0
C      1  0.4981490000000  0.5815290000000  0.4699130000000 1.0
C      1  0.5136230000000  0.5133160000000  0.5670030000000 1.0
END
