TITL C-2323489-8765-526 2.28992674856244e-06 125000 -387.074767354683 0 0 60 (C1) n - 1
REM
REM in /home/bkarasulu/CARBON/AIRSS/Generating-Clusters/LCBOP/Higher-Symm/Only-C60/SD-CG/FIRE-HFTN
REM
REM
REM
REM
REM
REM ./C.cell (50c204cfd26239f34c78669fe23a5462)
REM
REM compiler GCC version 9.2.1 20190827 (Red Hat 9.2.1-1)
REM options -cpp -mtune=generic -march=x86-64 -g -O0 -fpre-include=/usr/include/finclude/math-vector-fortran.h
REM seed -1834210704 702862824 -1747722468 -1536833920 315677027 2049685682 720377402 -501830556 -68080037 343023100 1932919446 1982934931 -97859843 -1818048249 1601731622 -421620489 -1806062941 312714529 -1227243588 -96549608 -401900152 1840403654 -1951854542 -532940250 961120685 630812148 721308124 -960963949 2066938389 522155703 -1789631012 -318320163 -468455618
REM
CELL 1.54180   50.00000   50.00000   50.00000   90.00000   90.00000   90.00000
LATT -1
SFAC C  
C      1  0.4424290000000  0.5327160000000  0.4777970000000 1.0
C      1  0.5063840000000  0.5339130000000  0.4387190000000 1.0
C      1  0.5627110000000  0.5368520000000  0.4876050000000 1.0
C      1  0.5366090000000  0.5391770000000  0.5584570000000 1.0
C      1  0.4617150000000  0.5328550000000  0.5500920000000 1.0
C      1  0.5584620000000  0.4660370000000  0.4794190000000 1.0
C      1  0.4949970000000  0.4669130000000  0.4394020000000 1.0
C      1  0.4373250000000  0.4652690000000  0.4874800000000 1.0
C      1  0.4673510000000  0.4660720000000  0.5537690000000 1.0
C      1  0.5410660000000  0.4624820000000  0.5532080000000 1.0
C      1  0.5245730000000  0.4376510000000  0.5019950000000 1.0
C      1  0.5075380000000  0.4347360000000  0.5258420000000 1.0
C      1  0.4785690000000  0.4369030000000  0.5164760000000 1.0
C      1  0.4797030000000  0.4406240000000  0.4873810000000 1.0
C      1  0.5074020000000  0.4410410000000  0.4788620000000 1.0
C      1  0.4756730000000  0.5595080000000  0.5015820000000 1.0
C      1  0.4922320000000  0.5632370000000  0.5251200000000 1.0
C      1  0.5209670000000  0.5664200000000  0.5170960000000 1.0
C      1  0.5207080000000  0.5618710000000  0.4870970000000 1.0
C      1  0.4929500000000  0.5587930000000  0.4784440000000 1.0
C      1  0.4599330000000  0.4552150000000  0.4730430000000 1.0
C      1  0.5154650000000  0.4560260000000  0.4561500000000 1.0
C      1  0.5493230000000  0.4517960000000  0.5032690000000 1.0
C      1  0.5148500000000  0.4512100000000  0.5489690000000 1.0
C      1  0.4575070000000  0.4511750000000  0.5309520000000 1.0
C      1  0.5410710000000  0.5478040000000  0.4720660000000 1.0
C      1  0.4855010000000  0.5441740000000  0.4552860000000 1.0
C      1  0.4518860000000  0.5436950000000  0.5024770000000 1.0
C      1  0.4874020000000  0.5446050000000  0.5462500000000 1.0
C      1  0.5432870000000  0.5546810000000  0.5329790000000 1.0
C      1  0.5178360000000  0.5099070000000  0.5300170000000 1.0
C      1  0.4239570000000  0.5118560000000  0.5289790000000 1.0
C      1  0.4519040000000  0.5134170000000  0.4351710000000 1.0
C      1  0.5496410000000  0.5140580000000  0.4366100000000 1.0
C      1  0.5457260000000  0.5103130000000  0.5220890000000 1.0
C      1  0.4993790000000  0.4897090000000  0.5277730000000 1.0
C      1  0.5647950000000  0.4901440000000  0.5255910000000 1.0
C      1  0.5493840000000  0.4871100000000  0.4374190000000 1.0
C      1  0.4516680000000  0.4864450000000  0.4351300000000 1.0
C      1  0.4218440000000  0.4850010000000  0.5281410000000 1.0
C      1  0.4674560000000  0.4666430000000  0.4478350000000 1.0
C      1  0.5419140000000  0.4668660000000  0.4558230000000 1.0
C      1  0.5566360000000  0.4634250000000  0.5285970000000 1.0
C      1  0.4945790000000  0.4711720000000  0.5484920000000 1.0
C      1  0.4363970000000  0.4637000000000  0.5161880000000 1.0
C      1  0.5337680000000  0.5349080000000  0.4475100000000 1.0
C      1  0.4591320000000  0.5329920000000  0.4543330000000 1.0
C      1  0.4437740000000  0.5320410000000  0.5275040000000 1.0
C      1  0.5103600000000  0.5291250000000  0.5505970000000 1.0
C      1  0.5564320000000  0.5358960000000  0.5151770000000 1.0
C      1  0.5483560000000  0.5148200000000  0.5714380000000 1.0
C      1  0.4570550000000  0.5127770000000  0.5696660000000 1.0
C      1  0.4221060000000  0.5130080000000  0.4770850000000 1.0
C      1  0.5012350000000  0.5136400000000  0.4196080000000 1.0
C      1  0.5785690000000  0.5146730000000  0.4790520000000 1.0
C      1  0.4553590000000  0.4857460000000  0.5699960000000 1.0
C      1  0.5455460000000  0.4868660000000  0.5701570000000 1.0
C      1  0.5774900000000  0.4875210000000  0.4799800000000 1.0
C      1  0.5007960000000  0.4866980000000  0.4199790000000 1.0
C      1  0.4213190000000  0.4860730000000  0.4767810000000 1.0
END
