TITL C-2323480-5884-504 7.01212164029133e-06 125000 -376.222020458086 0 0 60 (C1) n - 1
REM
REM in /home/bkarasulu/CARBON/AIRSS/Generating-Clusters/LCBOP/Higher-Symm/Only-C60/SD-CG/FIRE-HFTN
REM
REM
REM
REM
REM
REM ./C.cell (50c204cfd26239f34c78669fe23a5462)
REM
REM compiler GCC version 9.2.1 20190827 (Red Hat 9.2.1-1)
REM options -cpp -mtune=generic -march=x86-64 -g -O0 -fpre-include=/usr/include/finclude/math-vector-fortran.h
REM seed 1771036308 499655352 1126229369 -1924337024 225452489 1822783544 -2021336200 -1675834954 1561829889 1206838005 -1262837823 829120773 423114333 916900005 -670508493 -1909592690 895415238 960143731 -1748564607 1435349470 1150919453 431796012 -1045316202 -62926505 -1766483589 2062306611 -1520665632 -1744782783 -2073300762 -22713519 -837862696 -988838174 1622969848
REM
CELL 1.54180   50.00000   50.00000   50.00000   90.00000   90.00000   90.00000
LATT -1
SFAC C  
C      1  0.5109200000000  0.4592770000000  0.4437250000000 1.0
C      1  0.5540040000000  0.4600000000000  0.4811360000000 1.0
C      1  0.5429690000000  0.4611510000000  0.5369100000000 1.0
C      1  0.4890210000000  0.4581210000000  0.5560170000000 1.0
C      1  0.4465880000000  0.4615970000000  0.5183030000000 1.0
C      1  0.4569690000000  0.4595730000000  0.4623450000000 1.0
C      1  0.4378210000000  0.5032800000000  0.5442800000000 1.0
C      1  0.4308760000000  0.5013150000000  0.4660410000000 1.0
C      1  0.4939010000000  0.5008480000000  0.4232450000000 1.0
C      1  0.5628430000000  0.5012480000000  0.4557940000000 1.0
C      1  0.5688420000000  0.5038080000000  0.5313880000000 1.0
C      1  0.5050310000000  0.4983990000000  0.5779240000000 1.0
C      1  0.4554520000000  0.5216410000000  0.5313320000000 1.0
C      1  0.4505750000000  0.5192600000000  0.4758840000000 1.0
C      1  0.4961260000000  0.5185850000000  0.4453500000000 1.0
C      1  0.5451880000000  0.5186150000000  0.4697290000000 1.0
C      1  0.5476690000000  0.5210760000000  0.5234120000000 1.0
C      1  0.5070280000000  0.5167190000000  0.5563420000000 1.0
C      1  0.4989720000000  0.5060880000000  0.6033690000000 1.0
C      1  0.4150800000000  0.5115300000000  0.5569610000000 1.0
C      1  0.4097700000000  0.5095900000000  0.4508530000000 1.0
C      1  0.4952120000000  0.5094790000000  0.3973850000000 1.0
C      1  0.5852200000000  0.5102410000000  0.4430260000000 1.0
C      1  0.5914790000000  0.5130740000000  0.5434960000000 1.0
C      1  0.5230560000000  0.5068010000000  0.4839000000000 1.0
C      1  0.5247550000000  0.5076960000000  0.5119400000000 1.0
C      1  0.5018590000000  0.5079780000000  0.5290350000000 1.0
C      1  0.4767010000000  0.5096000000000  0.5164590000000 1.0
C      1  0.4742850000000  0.5082950000000  0.4880790000000 1.0
C      1  0.4975380000000  0.5070850000000  0.4717210000000 1.0
C      1  0.5095910000000  0.4711350000000  0.5708830000000 1.0
C      1  0.4450780000000  0.4754510000000  0.5431990000000 1.0
C      1  0.4345740000000  0.4737930000000  0.4728760000000 1.0
C      1  0.4903420000000  0.4731520000000  0.4296420000000 1.0
C      1  0.5558030000000  0.4734840000000  0.4560390000000 1.0
C      1  0.5649860000000  0.4757820000000  0.5259700000000 1.0
C      1  0.4269500000000  0.4649780000000  0.4984890000000 1.0
C      1  0.4646160000000  0.4633160000000  0.4354950000000 1.0
C      1  0.5379290000000  0.4632810000000  0.4368430000000 1.0
C      1  0.5731910000000  0.4653150000000  0.5010920000000 1.0
C      1  0.5356320000000  0.4629580000000  0.5639960000000 1.0
C      1  0.4621680000000  0.4640540000000  0.5624950000000 1.0
C      1  0.5242390000000  0.5616190000000  0.4855400000000 1.0
C      1  0.5236890000000  0.5645990000000  0.5144820000000 1.0
C      1  0.4988400000000  0.5753730000000  0.5238310000000 1.0
C      1  0.4735750000000  0.5668260000000  0.5141470000000 1.0
C      1  0.4729810000000  0.5632810000000  0.4854420000000 1.0
C      1  0.4984720000000  0.5618720000000  0.4711800000000 1.0
C      1  0.4976390000000  0.5469730000000  0.4465070000000 1.0
C      1  0.5452870000000  0.5468630000000  0.4729070000000 1.0
C      1  0.5374860000000  0.5468410000000  0.5330340000000 1.0
C      1  0.5227040000000  0.5406680000000  0.5572040000000 1.0
C      1  0.4564730000000  0.5500680000000  0.5298890000000 1.0
C      1  0.4514350000000  0.5476150000000  0.4749370000000 1.0
C      1  0.5054240000000  0.4510870000000  0.4712610000000 1.0
C      1  0.5275070000000  0.4513650000000  0.4901090000000 1.0
C      1  0.5221070000000  0.4518410000000  0.5185670000000 1.0
C      1  0.4947290000000  0.4510420000000  0.5282560000000 1.0
C      1  0.4727630000000  0.4520170000000  0.5093930000000 1.0
C      1  0.4780390000000  0.4513800000000  0.4809170000000 1.0
END
