TITL C-2323481-8605-450 1.39466142431013 125000 -355.021058730232 0 0 60 (C1) n - 1
REM
REM in /home/bkarasulu/CARBON/AIRSS/Generating-Clusters/LCBOP/Higher-Symm/Only-C60/SD-CG/FIRE-HFTN
REM
REM
REM
REM
REM
REM ./C.cell (50c204cfd26239f34c78669fe23a5462)
REM
REM compiler GCC version 9.2.1 20190827 (Red Hat 9.2.1-1)
REM options -cpp -mtune=generic -march=x86-64 -g -O0 -fpre-include=/usr/include/finclude/math-vector-fortran.h
REM seed -686574884 -1108493851 1783079866 95331055 -1030928244 2044532840 402156373 88442371 -1566185121 147338903 -1210323494 8611913 777298654 1597950306 -1294601139 1355045289 -147355087 -639351691 1764149697 -49645009 -47359895 2113088835 1289314036 -1720247605 526390221 -188906556 -510194382 1726221398 -665345076 -1696713484 -1227208969 -1018580502 1052513785
REM
CELL 1.54180   50.00000   50.00000   50.00000   90.00000   90.00000   90.00000
LATT -1
SFAC C  
C      1  0.5217300000000  0.4222800000000  0.4702090000000 1.0
C      1  0.5442840000000  0.5563660000000  0.4744300000000 1.0
C      1  0.4254010000000  0.5131070000000  0.4638650000000 1.0
C      1  0.5277530000000  0.5062990000000  0.4258590000000 1.0
C      1  0.4782490000000  0.5123080000000  0.4222340000000 1.0
C      1  0.4973010000000  0.4666130000000  0.4257290000000 1.0
C      1  0.5596930000000  0.4380000000000  0.5311130000000 1.0
C      1  0.5350650000000  0.5912480000000  0.5847210000000 1.0
C      1  0.4358370000000  0.4922180000000  0.5644540000000 1.0
C      1  0.4732290000000  0.5092430000000  0.4850900000000 1.0
C      1  0.4748220000000  0.4644830000000  0.4984740000000 1.0
C      1  0.5140080000000  0.4871210000000  0.4842760000000 1.0
C      1  0.4456350000000  0.4440390000000  0.5499620000000 1.0
C      1  0.6005160000000  0.4485810000000  0.4997610000000 1.0
C      1  0.4996900000000  0.5612730000000  0.5590810000000 1.0
C      1  0.5072580000000  0.4301260000000  0.5823140000000 1.0
C      1  0.5879950000000  0.6359540000000  0.6228380000000 1.0
C      1  0.4382860000000  0.5640050000000  0.5549160000000 1.0
C      1  0.4331140000000  0.5379610000000  0.4723900000000 1.0
C      1  0.4965350000000  0.4137400000000  0.4759310000000 1.0
C      1  0.5579690000000  0.5368520000000  0.4869940000000 1.0
C      1  0.4611090000000  0.5345170000000  0.4291940000000 1.0
C      1  0.4867330000000  0.4411450000000  0.4338560000000 1.0
C      1  0.5526760000000  0.5114480000000  0.4393840000000 1.0
C      1  0.5526800000000  0.5090200000000  0.4884670000000 1.0
C      1  0.4596180000000  0.5498100000000  0.4758100000000 1.0
C      1  0.4703710000000  0.4261170000000  0.4782340000000 1.0
C      1  0.5232570000000  0.5597750000000  0.4581850000000 1.0
C      1  0.4327740000000  0.4883900000000  0.4552330000000 1.0
C      1  0.5383950000000  0.4423130000000  0.4628420000000 1.0
C      1  0.4740820000000  0.4847080000000  0.4281310000000 1.0
C      1  0.5230490000000  0.4774460000000  0.4309400000000 1.0
C      1  0.5054210000000  0.5237580000000  0.4270340000000 1.0
C      1  0.4685770000000  0.4400740000000  0.5339570000000 1.0
C      1  0.5086800000000  0.5079170000000  0.5246410000000 1.0
C      1  0.4901280000000  0.5316520000000  0.5214120000000 1.0
C      1  0.4657050000000  0.4385630000000  0.5047120000000 1.0
C      1  0.5290410000000  0.5020100000000  0.5036330000000 1.0
C      1  0.4744190000000  0.5352140000000  0.4966250000000 1.0
C      1  0.4451210000000  0.5170130000000  0.5618590000000 1.0
C      1  0.5373310000000  0.4364630000000  0.5452310000000 1.0
C      1  0.5528020000000  0.6062300000000  0.5974950000000 1.0
C      1  0.5173290000000  0.5762670000000  0.5719460000000 1.0
C      1  0.4345110000000  0.4658160000000  0.5609500000000 1.0
C      1  0.5807180000000  0.4427850000000  0.5157000000000 1.0
C      1  0.5021500000000  0.5477700000000  0.4442920000000 1.0
C      1  0.4538340000000  0.4714190000000  0.4461190000000 1.0
C      1  0.5416570000000  0.4686510000000  0.4527820000000 1.0
C      1  0.4817080000000  0.5452440000000  0.5450040000000 1.0
C      1  0.4926470000000  0.4554320000000  0.5435220000000 1.0
C      1  0.4988260000000  0.4839380000000  0.5390790000000 1.0
C      1  0.4959190000000  0.5028130000000  0.4701450000000 1.0
C      1  0.4603420000000  0.4879190000000  0.4973190000000 1.0
C      1  0.5023970000000  0.4639460000000  0.4930180000000 1.0
C      1  0.4548360000000  0.5421820000000  0.5541260000000 1.0
C      1  0.5124890000000  0.4402880000000  0.5574730000000 1.0
C      1  0.5705450000000  0.6212150000000  0.6102710000000 1.0
C      1  0.5557290000000  0.4939910000000  0.4629520000000 1.0
C      1  0.4733500000000  0.5515640000000  0.4500880000000 1.0
C      1  0.4646720000000  0.4433600000000  0.4536990000000 1.0
END
