TITL C-2323478-8180-393 2.8488626205443e-07 125000 -358.931684870523 0 0 60 (D2) n - 1
REM
REM in /home/bkarasulu/CARBON/AIRSS/Generating-Clusters/LCBOP/Higher-Symm/Only-C60/SD-CG/FIRE-HFTN
REM
REM
REM
REM
REM
REM ./C.cell (50c204cfd26239f34c78669fe23a5462)
REM
REM compiler GCC version 9.2.1 20190827 (Red Hat 9.2.1-1)
REM options -cpp -mtune=generic -march=x86-64 -g -O0 -fpre-include=/usr/include/finclude/math-vector-fortran.h
REM seed 1322400245 -1167459886 -1739823775 1523894828 -1545049454 14394606 -577163061 -1610175039 1557212802 811218136 -937582972 -1875446419 -112222891 -1939530870 -1761840210 -760029831 -499658664 -790108645 -1775429305 1069165323 -1120137059 -738918513 1742896540 1883257971 -1673162373 -363617468 798551574 1033878433 -3871114 -1036892123 502127097 -1428656895 1704852627
REM
CELL 1.54180   50.00000   50.00000   50.00000   90.00000   90.00000   90.00000
LATT -1
SFAC C  
C      1  0.4412130000000  0.4964140000000  0.4621430000000 1.0
C      1  0.5587840000000  0.5035840000000  0.4621380000000 1.0
C      1  0.4412160000000  0.5035860000000  0.5378610000000 1.0
C      1  0.5587870000000  0.4964160000000  0.5378570000000 1.0
C      1  0.4394390000000  0.4767630000000  0.5434660000000 1.0
C      1  0.5605640000000  0.5232390000000  0.5434600000000 1.0
C      1  0.4394360000000  0.5232370000000  0.4565390000000 1.0
C      1  0.5605610000000  0.4767610000000  0.4565350000000 1.0
C      1  0.4457450000000  0.4354600000000  0.5144430000000 1.0
C      1  0.5542560000000  0.5645410000000  0.5144350000000 1.0
C      1  0.4457440000000  0.5645400000000  0.4855610000000 1.0
C      1  0.5542550000000  0.4354590000000  0.4855600000000 1.0
C      1  0.4957520000000  0.5135130000000  0.4532340000000 1.0
C      1  0.5042440000000  0.4864850000000  0.4532340000000 1.0
C      1  0.4957560000000  0.4864870000000  0.5467670000000 1.0
C      1  0.5042480000000  0.5135150000000  0.5467660000000 1.0
C      1  0.4909770000000  0.5724040000000  0.4725330000000 1.0
C      1  0.5090210000000  0.4275950000000  0.4725360000000 1.0
C      1  0.4909790000000  0.4275960000000  0.5274680000000 1.0
C      1  0.5090230000000  0.5724050000000  0.5274630000000 1.0
C      1  0.5283370000000  0.5738700000000  0.5047490000000 1.0
C      1  0.4716640000000  0.4261310000000  0.5047550000000 1.0
C      1  0.5283360000000  0.4261300000000  0.4952490000000 1.0
C      1  0.4716630000000  0.5738690000000  0.4952480000000 1.0
C      1  0.5310470000000  0.4855320000000  0.4998210000000 1.0
C      1  0.4689530000000  0.5144680000000  0.4998220000000 1.0
C      1  0.5310470000000  0.5144680000000  0.5001770000000 1.0
C      1  0.4689530000000  0.4855320000000  0.5001800000000 1.0
C      1  0.5444440000000  0.4753890000000  0.5233840000000 1.0
C      1  0.4555580000000  0.5246120000000  0.5233870000000 1.0
C      1  0.5444420000000  0.5246110000000  0.4766120000000 1.0
C      1  0.4555560000000  0.4753880000000  0.4766170000000 1.0
C      1  0.4810340000000  0.4319420000000  0.4785900000000 1.0
C      1  0.5189640000000  0.5680570000000  0.4785860000000 1.0
C      1  0.4810360000000  0.5680580000000  0.5214110000000 1.0
C      1  0.5189660000000  0.4319430000000  0.5214130000000 1.0
C      1  0.4838340000000  0.4769310000000  0.5226440000000 1.0
C      1  0.5161680000000  0.5230700000000  0.5226410000000 1.0
C      1  0.4838320000000  0.5230690000000  0.4773580000000 1.0
C      1  0.5161660000000  0.4769300000000  0.4773570000000 1.0
C      1  0.5271890000000  0.4542640000000  0.5633400000000 1.0
C      1  0.4728160000000  0.5457390000000  0.5633400000000 1.0
C      1  0.5271840000000  0.5457360000000  0.4366580000000 1.0
C      1  0.4728110000000  0.4542610000000  0.4366620000000 1.0
C      1  0.5262830000000  0.4376480000000  0.4504720000000 1.0
C      1  0.4737130000000  0.5623500000000  0.4504710000000 1.0
C      1  0.5262870000000  0.5623520000000  0.5495260000000 1.0
C      1  0.4737170000000  0.4376500000000  0.5495310000000 1.0
C      1  0.5347580000000  0.4511410000000  0.5361920000000 1.0
C      1  0.4652450000000  0.5488610000000  0.5361920000000 1.0
C      1  0.5347550000000  0.5488590000000  0.4638060000000 1.0
C      1  0.4652420000000  0.4511390000000  0.4638110000000 1.0
C      1  0.4940370000000  0.5294860000000  0.5677830000000 1.0
C      1  0.5059690000000  0.4705170000000  0.5677840000000 1.0
C      1  0.4940310000000  0.4705140000000  0.4322180000000 1.0
C      1  0.5059630000000  0.5294830000000  0.4322160000000 1.0
C      1  0.5517710000000  0.5503370000000  0.5399490000000 1.0
C      1  0.4482320000000  0.4496650000000  0.5399550000000 1.0
C      1  0.5517680000000  0.4496630000000  0.4600470000000 1.0
C      1  0.4482290000000  0.5503350000000  0.4600490000000 1.0
END
