TITL C-2323486-8761-421 -9.29950957794521e-07 125000 -360.593890548022 0 0 60 (C1) n - 1
REM
REM in /home/bkarasulu/CARBON/AIRSS/Generating-Clusters/LCBOP/Higher-Symm/Only-C60/SD-CG/FIRE-HFTN
REM
REM
REM
REM
REM
REM ./C.cell (50c204cfd26239f34c78669fe23a5462)
REM
REM compiler GCC version 9.2.1 20190827 (Red Hat 9.2.1-1)
REM options -cpp -mtune=generic -march=x86-64 -g -O0 -fpre-include=/usr/include/finclude/math-vector-fortran.h
REM seed 1745754352 -108407949 -43095790 788662904 1156229886 -1604343693 -212264422 -152917939 993863354 -1520478854 1016111422 543507387 -237249842 1459241708 -189179893 332434896 1921002147 1755472759 570403775 -801257169 -941345634 462970766 33829677 -10519808 377215683 886667805 -1177312168 -1712829140 -306666195 -15315261 1360064560 -2054216471 1261776878
REM
CELL 1.54180   50.00000   50.00000   50.00000   90.00000   90.00000   90.00000
LATT -1
SFAC C  
C      1  0.4441980000000  0.5156790000000  0.4426900000000 1.0
C      1  0.5610190000000  0.5227850000000  0.3793810000000 1.0
C      1  0.5209360000000  0.4539500000000  0.6053490000000 1.0
C      1  0.4169730000000  0.5331040000000  0.4993620000000 1.0
C      1  0.5015960000000  0.5446520000000  0.5035330000000 1.0
C      1  0.4493250000000  0.4442380000000  0.5093620000000 1.0
C      1  0.5684650000000  0.5004950000000  0.5182550000000 1.0
C      1  0.4357650000000  0.4898580000000  0.5057520000000 1.0
C      1  0.4425390000000  0.4879650000000  0.4505030000000 1.0
C      1  0.3967050000000  0.5556520000000  0.4049090000000 1.0
C      1  0.4406280000000  0.5248300000000  0.5421900000000 1.0
C      1  0.5442580000000  0.4880940000000  0.5248890000000 1.0
C      1  0.4930710000000  0.5174470000000  0.5048670000000 1.0
C      1  0.4933480000000  0.4995830000000  0.4822970000000 1.0
C      1  0.4508870000000  0.4708850000000  0.5205540000000 1.0
C      1  0.5661580000000  0.4663840000000  0.5679970000000 1.0
C      1  0.5529610000000  0.4428580000000  0.4759830000000 1.0
C      1  0.5794050000000  0.4516540000000  0.5492840000000 1.0
C      1  0.4849830000000  0.5647860000000  0.5135470000000 1.0
C      1  0.5144770000000  0.4607180000000  0.4400150000000 1.0
C      1  0.5411750000000  0.4608240000000  0.5180610000000 1.0
C      1  0.5284880000000  0.5496350000000  0.4956080000000 1.0
C      1  0.4898930000000  0.5125930000000  0.4576600000000 1.0
C      1  0.5214950000000  0.5001060000000  0.5369860000000 1.0
C      1  0.5216840000000  0.4766020000000  0.5898040000000 1.0
C      1  0.5435100000000  0.5526650000000  0.5434440000000 1.0
C      1  0.5171230000000  0.4483470000000  0.5240120000000 1.0
C      1  0.4972600000000  0.4906550000000  0.5852400000000 1.0
C      1  0.4932930000000  0.4707140000000  0.4880580000000 1.0
C      1  0.5749620000000  0.5471000000000  0.5082810000000 1.0
C      1  0.4940990000000  0.5033310000000  0.5296080000000 1.0
C      1  0.4091010000000  0.5450610000000  0.4252400000000 1.0
C      1  0.5475040000000  0.5369010000000  0.5648780000000 1.0
C      1  0.4333160000000  0.4845590000000  0.4774590000000 1.0
C      1  0.5811130000000  0.4423470000000  0.5233790000000 1.0
C      1  0.5830920000000  0.5214470000000  0.5103240000000 1.0
C      1  0.4464180000000  0.5525480000000  0.5423420000000 1.0
C      1  0.5472180000000  0.4850700000000  0.5790840000000 1.0
C      1  0.4731150000000  0.5002690000000  0.5779990000000 1.0
C      1  0.4774740000000  0.4789550000000  0.5297570000000 1.0
C      1  0.5485260000000  0.5544430000000  0.5155860000000 1.0
C      1  0.4225520000000  0.5336000000000  0.4467620000000 1.0
C      1  0.4612610000000  0.4360040000000  0.4860650000000 1.0
C      1  0.5238640000000  0.4843490000000  0.4276550000000 1.0
C      1  0.4151630000000  0.5392350000000  0.4733800000000 1.0
C      1  0.4525800000000  0.5097170000000  0.5631850000000 1.0
C      1  0.4610720000000  0.4702270000000  0.4365600000000 1.0
C      1  0.5376820000000  0.5088910000000  0.4260890000000 1.0
C      1  0.4640880000000  0.5682750000000  0.5298150000000 1.0
C      1  0.5513780000000  0.5130780000000  0.5766500000000 1.0
C      1  0.4293720000000  0.5150970000000  0.5173320000000 1.0
C      1  0.5609140000000  0.4467250000000  0.5031750000000 1.0
C      1  0.4810450000000  0.4507960000000  0.4719710000000 1.0
C      1  0.4947830000000  0.4614160000000  0.5150700000000 1.0
C      1  0.5396770000000  0.5264670000000  0.4480870000000 1.0
C      1  0.4710350000000  0.5242880000000  0.4424460000000 1.0
C      1  0.5361570000000  0.5421900000000  0.4694120000000 1.0
C      1  0.4856160000000  0.4568130000000  0.4446000000000 1.0
C      1  0.5497770000000  0.5160720000000  0.4019150000000 1.0
C      1  0.5344300000000  0.4469680000000  0.4562980000000 1.0
END
