TITL C-2323480-5884-344 -0.000454670194568499 125000 -351.399162491469 0 0 60 (C1) n - 1
REM
REM in /home/bkarasulu/CARBON/AIRSS/Generating-Clusters/LCBOP/Higher-Symm/Only-C60/SD-CG/FIRE-HFTN
REM
REM
REM
REM
REM
REM ./C.cell (50c204cfd26239f34c78669fe23a5462)
REM
REM compiler GCC version 9.2.1 20190827 (Red Hat 9.2.1-1)
REM options -cpp -mtune=generic -march=x86-64 -g -O0 -fpre-include=/usr/include/finclude/math-vector-fortran.h
REM seed -1571867508 1599860414 -1269527749 -21657268 -38006442 -619956875 -1001519138 -1278017724 1055858191 85003278 -198963615 904209779 -1101579680 1246350367 -11256662 -889017850 625575751 1982525984 1894701418 -2137304073 -1796598184 -1518707947 617660677 1275471898 1505776559 812176464 519254 2011539680 -1543988658 851292752 -402774116 1842662409 -1479467383
REM
CELL 1.54180   50.00000   50.00000   50.00000   90.00000   90.00000   90.00000
LATT -1
SFAC C  
C      1  0.4191820000000  0.5023900000000  0.4558370000000 1.0
C      1  0.5693970000000  0.4554830000000  0.5406080000000 1.0
C      1  0.5299260000000  0.6127440000000  0.4805000000000 1.0
C      1  0.4482300000000  0.4199490000000  0.4999100000000 1.0
C      1  0.4843120000000  0.5923850000000  0.4829410000000 1.0
C      1  0.4959450000000  0.4114560000000  0.4979910000000 1.0
C      1  0.5524340000000  0.4554740000000  0.4916590000000 1.0
C      1  0.4484940000000  0.5270570000000  0.4877690000000 1.0
C      1  0.4619470000000  0.4556980000000  0.4622660000000 1.0
C      1  0.5523230000000  0.5231600000000  0.5414030000000 1.0
C      1  0.5116660000000  0.5919080000000  0.4766590000000 1.0
C      1  0.4733860000000  0.4199270000000  0.5123390000000 1.0
C      1  0.5181810000000  0.5373020000000  0.4767950000000 1.0
C      1  0.4887940000000  0.4558040000000  0.5514400000000 1.0
C      1  0.4090230000000  0.4441580000000  0.5110590000000 1.0
C      1  0.5770270000000  0.5977350000000  0.4878200000000 1.0
C      1  0.4664630000000  0.5739610000000  0.4907680000000 1.0
C      1  0.5165080000000  0.4232890000000  0.4857650000000 1.0
C      1  0.5601900000000  0.4466280000000  0.5171780000000 1.0
C      1  0.4315870000000  0.5244760000000  0.4653640000000 1.0
C      1  0.4092550000000  0.4506380000000  0.5371030000000 1.0
C      1  0.5844170000000  0.5721430000000  0.4871140000000 1.0
C      1  0.4821960000000  0.4698130000000  0.4762360000000 1.0
C      1  0.5124670000000  0.5342000000000  0.5065710000000 1.0
C      1  0.4938990000000  0.5291990000000  0.4596100000000 1.0
C      1  0.5130190000000  0.4519260000000  0.5635520000000 1.0
C      1  0.4185140000000  0.4756090000000  0.4588000000000 1.0
C      1  0.5725270000000  0.4781520000000  0.5543410000000 1.0
C      1  0.4499300000000  0.5026230000000  0.5028860000000 1.0
C      1  0.5696510000000  0.4735250000000  0.4790790000000 1.0
C      1  0.4779180000000  0.4355210000000  0.5352730000000 1.0
C      1  0.5222410000000  0.5663710000000  0.4708540000000 1.0
C      1  0.4055530000000  0.5068890000000  0.5305940000000 1.0
C      1  0.6105420000000  0.4985180000000  0.4748840000000 1.0
C      1  0.5662790000000  0.5040510000000  0.5535550000000 1.0
C      1  0.4341540000000  0.4542120000000  0.4686020000000 1.0
C      1  0.4857110000000  0.5367820000000  0.5166270000000 1.0
C      1  0.5096730000000  0.4680160000000  0.4685140000000 1.0
C      1  0.4279340000000  0.4377130000000  0.4912410000000 1.0
C      1  0.5562450000000  0.6143310000000  0.4852050000000 1.0
C      1  0.5496080000000  0.5089100000000  0.4207800000000 1.0
C      1  0.5061510000000  0.5089800000000  0.5757470000000 1.0
C      1  0.4734480000000  0.4794500000000  0.5567280000000 1.0
C      1  0.5410660000000  0.5201930000000  0.4667600000000 1.0
C      1  0.4281140000000  0.4991920000000  0.5198450000000 1.0
C      1  0.5832850000000  0.4978760000000  0.4768830000000 1.0
C      1  0.5339810000000  0.5322030000000  0.5244790000000 1.0
C      1  0.4717610000000  0.4858360000000  0.4969930000000 1.0
C      1  0.5678490000000  0.5218630000000  0.4765020000000 1.0
C      1  0.4463590000000  0.4747950000000  0.5629420000000 1.0
C      1  0.5361960000000  0.5032440000000  0.4441220000000 1.0
C      1  0.4859280000000  0.5053240000000  0.5573620000000 1.0
C      1  0.4596700000000  0.5454040000000  0.5561400000000 1.0
C      1  0.5082160000000  0.4717950000000  0.4207300000000 1.0
C      1  0.5269460000000  0.4489540000000  0.4811130000000 1.0
C      1  0.4654240000000  0.5470540000000  0.4984310000000 1.0
C      1  0.5181060000000  0.4811800000000  0.4446350000000 1.0
C      1  0.4772260000000  0.5286690000000  0.5429720000000 1.0
C      1  0.5796120000000  0.5462610000000  0.4834690000000 1.0
C      1  0.4239200000000  0.4616010000000  0.5566560000000 1.0
END
