TITL C-2323480-5884-422 1.32336571464969e-05 125000 -351.226494055644 0 0 60 (C1) n - 1
REM
REM in /home/bkarasulu/CARBON/AIRSS/Generating-Clusters/LCBOP/Higher-Symm/Only-C60/SD-CG/FIRE-HFTN
REM
REM
REM
REM
REM
REM ./C.cell (50c204cfd26239f34c78669fe23a5462)
REM
REM compiler GCC version 9.2.1 20190827 (Red Hat 9.2.1-1)
REM options -cpp -mtune=generic -march=x86-64 -g -O0 -fpre-include=/usr/include/finclude/math-vector-fortran.h
REM seed 476535751 312880546 147048019 852150220 1947316166 -1660144016 -1167786207 1249520108 -905329471 628565177 133831829 -1900142605 -2078281141 -795921675 1658626483 1848285217 -1710383312 -1528653812 -1088138726 147372845 -750226755 840325463 -656104793 -2042509196 -771739329 -70495594 -1976605726 1378896474 -841597881 -1103330009 -100464304 -73849746 -11366910
REM
CELL 1.54180   50.00000   50.00000   50.00000   90.00000   90.00000   90.00000
LATT -1
SFAC C  
C      1  0.4813850000000  0.5200120000000  0.5737750000000 1.0
C      1  0.4443290000000  0.5168420000000  0.4450430000000 1.0
C      1  0.5764910000000  0.5177870000000  0.4786880000000 1.0
C      1  0.4742980000000  0.5043440000000  0.4849060000000 1.0
C      1  0.5297530000000  0.4984790000000  0.4865360000000 1.0
C      1  0.4953000000000  0.4992300000000  0.5305690000000 1.0
C      1  0.5325990000000  0.5583720000000  0.4673620000000 1.0
C      1  0.5187620000000  0.5575100000000  0.5405620000000 1.0
C      1  0.4462490000000  0.5582190000000  0.4909050000000 1.0
C      1  0.5308370000000  0.5221530000000  0.5720460000000 1.0
C      1  0.4190060000000  0.5183170000000  0.4875050000000 1.0
C      1  0.5479860000000  0.5225170000000  0.4383770000000 1.0
C      1  0.4721370000000  0.5535760000000  0.5017560000000 1.0
C      1  0.5154250000000  0.5469550000000  0.4871760000000 1.0
C      1  0.5149240000000  0.5457190000000  0.5148000000000 1.0
C      1  0.5255560000000  0.5410800000000  0.4431550000000 1.0
C      1  0.5407080000000  0.5391440000000  0.5504470000000 1.0
C      1  0.4313630000000  0.5367690000000  0.5058750000000 1.0
C      1  0.4471970000000  0.4952260000000  0.5333070000000 1.0
C      1  0.4959890000000  0.4980850000000  0.4416220000000 1.0
C      1  0.5563710000000  0.4955080000000  0.5269800000000 1.0
C      1  0.4321430000000  0.4741160000000  0.5213430000000 1.0
C      1  0.5137830000000  0.4772680000000  0.4334420000000 1.0
C      1  0.5515170000000  0.4750560000000  0.5464880000000 1.0
C      1  0.5670850000000  0.5368300000000  0.4992720000000 1.0
C      1  0.4701720000000  0.5382770000000  0.5537260000000 1.0
C      1  0.4655350000000  0.5378570000000  0.4456220000000 1.0
C      1  0.5655260000000  0.5059070000000  0.4545930000000 1.0
C      1  0.5069290000000  0.5067930000000  0.5777930000000 1.0
C      1  0.4275590000000  0.5033470000000  0.4644710000000 1.0
C      1  0.5200530000000  0.4552180000000  0.4515020000000 1.0
C      1  0.5318090000000  0.4540670000000  0.5416250000000 1.0
C      1  0.4462970000000  0.4530750000000  0.5071740000000 1.0
C      1  0.4817340000000  0.4187580000000  0.5116290000000 1.0
C      1  0.4985660000000  0.4203470000000  0.4795750000000 1.0
C      1  0.5187160000000  0.4189780000000  0.5091600000000 1.0
C      1  0.5110960000000  0.5183450000000  0.5229820000000 1.0
C      1  0.4771040000000  0.5271560000000  0.4978930000000 1.0
C      1  0.5157270000000  0.5192860000000  0.4794460000000 1.0
C      1  0.4525510000000  0.5589940000000  0.4620580000000 1.0
C      1  0.5575840000000  0.5598430000000  0.4827930000000 1.0
C      1  0.4910130000000  0.5593560000000  0.5508340000000 1.0
C      1  0.5342610000000  0.4405910000000  0.5157830000000 1.0
C      1  0.4681030000000  0.4402350000000  0.5219590000000 1.0
C      1  0.4969110000000  0.4429120000000  0.4640350000000 1.0
C      1  0.5633550000000  0.4772160000000  0.4537620000000 1.0
C      1  0.5077140000000  0.4780790000000  0.5764610000000 1.0
C      1  0.4286950000000  0.4748960000000  0.4669380000000 1.0
C      1  0.4954490000000  0.5285040000000  0.4399470000000 1.0
C      1  0.5582000000000  0.5256440000000  0.5273350000000 1.0
C      1  0.4457180000000  0.5251250000000  0.5323500000000 1.0
C      1  0.4801310000000  0.4878550000000  0.4634060000000 1.0
C      1  0.5473810000000  0.4841680000000  0.5021010000000 1.0
C      1  0.4733810000000  0.4845460000000  0.5382030000000 1.0
C      1  0.5066420000000  0.4575990000000  0.5557630000000 1.0
C      1  0.4480900000000  0.4571150000000  0.4785960000000 1.0
C      1  0.5455870000000  0.4571860000000  0.4651850000000 1.0
C      1  0.4807700000000  0.4570120000000  0.5415930000000 1.0
C      1  0.4742080000000  0.4602070000000  0.4669030000000 1.0
C      1  0.5462390000000  0.4563930000000  0.4948630000000 1.0
END
