TITL C-2323488-8613-306 8.6426001335546e-06 125000 -367.755008315186 0 0 60 (Cs) n - 1
REM
REM in /home/bkarasulu/CARBON/AIRSS/Generating-Clusters/LCBOP/Higher-Symm/Only-C60/SD-CG/FIRE-HFTN
REM
REM
REM
REM
REM
REM ./C.cell (50c204cfd26239f34c78669fe23a5462)
REM
REM compiler GCC version 9.2.1 20190827 (Red Hat 9.2.1-1)
REM options -cpp -mtune=generic -march=x86-64 -g -O0 -fpre-include=/usr/include/finclude/math-vector-fortran.h
REM seed -1915019665 851929789 -1725629239 -705322714 -1851468845 -393697831 -2030759562 -349168923 -175878130 -1892831795 -285746815 2083060032 -1163861023 1145307288 -1390389951 -500569289 -611442255 1856317392 193353340 -699925574 -452849625 761452315 28188333 387593057 1184122198 -906048265 -23895332 -62947901 -1647711503 655634048 302413710 1294912166 243945066
REM
CELL 1.54180   50.00000   50.00000   50.00000   90.00000   90.00000   90.00000
LATT -1
SFAC C  
C      1  0.5706780000000  0.4511590000000  0.4803670000000 1.0
C      1  0.5706820000000  0.5488330000000  0.4803620000000 1.0
C      1  0.4257740000000  0.5133840000000  0.5340800000000 1.0
C      1  0.4257730000000  0.4866260000000  0.5340820000000 1.0
C      1  0.4463760000000  0.5312850000000  0.5274700000000 1.0
C      1  0.4463740000000  0.4687230000000  0.5274730000000 1.0
C      1  0.5065660000000  0.5511760000000  0.4673420000000 1.0
C      1  0.5065620000000  0.4488200000000  0.4673470000000 1.0
C      1  0.5548560000000  0.4281110000000  0.4737010000000 1.0
C      1  0.5548620000000  0.5718810000000  0.4736930000000 1.0
C      1  0.5048480000000  0.4686010000000  0.4888540000000 1.0
C      1  0.5048510000000  0.5313970000000  0.4888510000000 1.0
C      1  0.5132210000000  0.4669290000000  0.5948100000000 1.0
C      1  0.5132240000000  0.5330800000000  0.5948070000000 1.0
C      1  0.5277520000000  0.5707720000000  0.4690910000000 1.0
C      1  0.5277460000000  0.4292230000000  0.4690980000000 1.0
C      1  0.4956860000000  0.5445990000000  0.4423690000000 1.0
C      1  0.4956820000000  0.4553960000000  0.4423740000000 1.0
C      1  0.4820150000000  0.4851840000000  0.4953070000000 1.0
C      1  0.4820160000000  0.5148170000000  0.4953060000000 1.0
C      1  0.4856230000000  0.5343180000000  0.5872630000000 1.0
C      1  0.4856200000000  0.4656920000000  0.5872670000000 1.0
C      1  0.5037530000000  0.4398320000000  0.5507990000000 1.0
C      1  0.5037580000000  0.5601730000000  0.5507920000000 1.0
C      1  0.4253610000000  0.4599640000000  0.4322250000000 1.0
C      1  0.4253640000000  0.5400350000000  0.4322210000000 1.0
C      1  0.4392310000000  0.4721980000000  0.4128290000000 1.0
C      1  0.4392330000000  0.5277980000000  0.4128260000000 1.0
C      1  0.4282050000000  0.5444570000000  0.4583800000000 1.0
C      1  0.4282010000000  0.4555450000000  0.4583840000000 1.0
C      1  0.5339480000000  0.5363200000000  0.5773910000000 1.0
C      1  0.5339450000000  0.4636850000000  0.5773940000000 1.0
C      1  0.4855930000000  0.4709350000000  0.4232570000000 1.0
C      1  0.4855960000000  0.5290590000000  0.4232540000000 1.0
C      1  0.4688790000000  0.4866150000000  0.5954870000000 1.0
C      1  0.4688800000000  0.5133970000000  0.5954850000000 1.0
C      1  0.5968160000000  0.4616980000000  0.4817090000000 1.0
C      1  0.5968190000000  0.5382920000000  0.4817050000000 1.0
C      1  0.5512620000000  0.4721300000000  0.4813630000000 1.0
C      1  0.5512650000000  0.5278640000000  0.4813600000000 1.0
C      1  0.5283010000000  0.5457060000000  0.5512120000000 1.0
C      1  0.5282970000000  0.4542970000000  0.5512170000000 1.0
C      1  0.5360720000000  0.4667680000000  0.5276080000000 1.0
C      1  0.5360750000000  0.5332320000000  0.5276040000000 1.0
C      1  0.4639630000000  0.4857930000000  0.4132720000000 1.0
C      1  0.4639650000000  0.5142010000000  0.4132710000000 1.0
C      1  0.5306480000000  0.4720820000000  0.5008090000000 1.0
C      1  0.5306500000000  0.5279150000000  0.5008060000000 1.0
C      1  0.4804350000000  0.5500110000000  0.5635780000000 1.0
C      1  0.4804310000000  0.4499970000000  0.5635830000000 1.0
C      1  0.4574890000000  0.5291720000000  0.5012110000000 1.0
C      1  0.4574870000000  0.4708320000000  0.5012140000000 1.0
C      1  0.6078520000000  0.4864890000000  0.4824310000000 1.0
C      1  0.6078530000000  0.5135000000000  0.4824290000000 1.0
C      1  0.4578370000000  0.5467120000000  0.5476520000000 1.0
C      1  0.4578330000000  0.4532970000000  0.5476570000000 1.0
C      1  0.4424190000000  0.5405880000000  0.4804870000000 1.0
C      1  0.4424160000000  0.4594150000000  0.4804910000000 1.0
C      1  0.5485390000000  0.5132640000000  0.4576460000000 1.0
C      1  0.5485380000000  0.4867280000000  0.4576470000000 1.0
END
