TITL C-2323479-8056-402 -7.97646529801468e-07 125000 -385.519404547202 0 0 60 (D5) n - 1
REM
REM in /home/bkarasulu/CARBON/AIRSS/Generating-Clusters/LCBOP/Higher-Symm/Only-C60/SD-CG/FIRE-HFTN
REM
REM
REM
REM
REM
REM ./C.cell (50c204cfd26239f34c78669fe23a5462)
REM
REM compiler GCC version 9.2.1 20190827 (Red Hat 9.2.1-1)
REM options -cpp -mtune=generic -march=x86-64 -g -O0 -fpre-include=/usr/include/finclude/math-vector-fortran.h
REM seed -581587353 1755116513 1101707663 -1462521791 1954771511 1007513942 83463517 -327150524 -1031679182 1425099275 -1824933192 830750081 -195128711 955962281 1919488241 -1186623432 -591689865 543820776 -853013232 -649387696 -12907217 -1140840403 -626714591 -1082862183 1221797682 477139626 537578230 -1317972912 -1639674982 1336920018 -1705401268 969994195 -1173252908
REM
CELL 1.54180   50.00000   50.00000   50.00000   90.00000   90.00000   90.00000
LATT -1
SFAC C  
C      1  0.4708300000000  0.5558880000000  0.5420530000000 1.0
C      1  0.4378330000000  0.4895280000000  0.5420530000000 1.0
C      1  0.4907480000000  0.4376400000000  0.5420530000000 1.0
C      1  0.5564490000000  0.4719310000000  0.5420540000000 1.0
C      1  0.5441390000000  0.5450120000000  0.5420540000000 1.0
C      1  0.5291710000000  0.5558880000000  0.4579470000000 1.0
C      1  0.5621670000000  0.4895280000000  0.4579470000000 1.0
C      1  0.5092510000000  0.4376400000000  0.4579460000000 1.0
C      1  0.4435510000000  0.4719320000000  0.4579460000000 1.0
C      1  0.4558620000000  0.5450130000000  0.4579460000000 1.0
C      1  0.5136670000000  0.4793340000000  0.5913350000000 1.0
C      1  0.5238770000000  0.5066130000000  0.5913350000000 1.0
C      1  0.5010890000000  0.5247520000000  0.5913350000000 1.0
C      1  0.4767950000000  0.5086850000000  0.5913350000000 1.0
C      1  0.4845690000000  0.4806150000000  0.5913350000000 1.0
C      1  0.4863320000000  0.4793350000000  0.4086650000000 1.0
C      1  0.4761230000000  0.5066140000000  0.4086650000000 1.0
C      1  0.4989120000000  0.5247530000000  0.4086650000000 1.0
C      1  0.5232050000000  0.5086850000000  0.4086650000000 1.0
C      1  0.5154310000000  0.4806150000000  0.4086650000000 1.0
C      1  0.4571770000000  0.5332030000000  0.5319890000000 1.0
C      1  0.4551890000000  0.4695340000000  0.5319890000000 1.0
C      1  0.5151280000000  0.4479680000000  0.5319890000000 1.0
C      1  0.5541600000000  0.4983090000000  0.5319900000000 1.0
C      1  0.5183450000000  0.5509870000000  0.5319900000000 1.0
C      1  0.5428230000000  0.5332020000000  0.4680110000000 1.0
C      1  0.5448100000000  0.4695330000000  0.4680110000000 1.0
C      1  0.4848720000000  0.4479680000000  0.4680100000000 1.0
C      1  0.4458400000000  0.4983100000000  0.4680100000000 1.0
C      1  0.4816560000000  0.5509870000000  0.4680110000000 1.0
C      1  0.5340460000000  0.5245810000000  0.4938640000000 1.0
C      1  0.4871430000000  0.5399760000000  0.4938640000000 1.0
C      1  0.4580080000000  0.5001250000000  0.4938640000000 1.0
C      1  0.4869040000000  0.4601010000000  0.4938640000000 1.0
C      1  0.5338990000000  0.4752160000000  0.4938640000000 1.0
C      1  0.4659540000000  0.5245820000000  0.5061360000000 1.0
C      1  0.5128580000000  0.5399760000000  0.5061360000000 1.0
C      1  0.5419920000000  0.5001250000000  0.5061360000000 1.0
C      1  0.5130950000000  0.4601010000000  0.5061360000000 1.0
C      1  0.4661010000000  0.4752170000000  0.5061360000000 1.0
C      1  0.5530400000000  0.5197390000000  0.5509420000000 1.0
C      1  0.4976170000000  0.5565440000000  0.5509420000000 1.0
C      1  0.4454870000000  0.5152070000000  0.5509420000000 1.0
C      1  0.4686910000000  0.4528540000000  0.5509420000000 1.0
C      1  0.5351630000000  0.4556550000000  0.5509420000000 1.0
C      1  0.4469600000000  0.5197400000000  0.4490580000000 1.0
C      1  0.5023840000000  0.5565440000000  0.4490580000000 1.0
C      1  0.5545130000000  0.5152060000000  0.4490590000000 1.0
C      1  0.5313080000000  0.4528540000000  0.4490580000000 1.0
C      1  0.4648360000000  0.4556560000000  0.4490580000000 1.0
C      1  0.4981210000000  0.5494350000000  0.4219870000000 1.0
C      1  0.4524040000000  0.5134890000000  0.4219870000000 1.0
C      1  0.4724640000000  0.4589020000000  0.4219870000000 1.0
C      1  0.5305780000000  0.4611110000000  0.4219870000000 1.0
C      1  0.5464350000000  0.5170640000000  0.4219870000000 1.0
C      1  0.5018800000000  0.5494350000000  0.5780130000000 1.0
C      1  0.5475960000000  0.5134880000000  0.5780130000000 1.0
C      1  0.5275350000000  0.4589010000000  0.5780130000000 1.0
C      1  0.4694210000000  0.4611110000000  0.5780130000000 1.0
C      1  0.4535650000000  0.5170640000000  0.5780130000000 1.0
END
