TITL C-2323477-5056-237 7.88011606711824e-05 125000 -356.85626384203 0 0 60 (D2) n - 1
REM
REM in /home/bkarasulu/CARBON/AIRSS/Generating-Clusters/LCBOP/Higher-Symm/Only-C60/SD-CG/FIRE-HFTN
REM
REM
REM
REM
REM
REM ./C.cell (50c204cfd26239f34c78669fe23a5462)
REM
REM compiler GCC version 9.2.1 20190827 (Red Hat 9.2.1-1)
REM options -cpp -mtune=generic -march=x86-64 -g -O0 -fpre-include=/usr/include/finclude/math-vector-fortran.h
REM seed -1558778214 -1771590485 954012164 -1008738901 583728137 1984057466 -1125213867 -2080091958 363148898 220443124 -806519283 814535379 257263440 -1577739740 -1027948616 -1108514657 116259374 -1738189689 -677451184 1467068980 -784350052 -631531024 2090421184 -1422096953 292929425 -276087368 -1530946346 -1752376034 -1053609026 -1419389970 174687101 -1217262501 642827262
REM
CELL 1.54180   50.00000   50.00000   50.00000   90.00000   90.00000   90.00000
LATT -1
SFAC C  
C      1  0.5098390000000  0.5232810000000  0.4909650000000 1.0
C      1  0.4901620000000  0.5232830000000  0.5090320000000 1.0
C      1  0.5098390000000  0.4767190000000  0.5090350000000 1.0
C      1  0.4901610000000  0.4767170000000  0.4909690000000 1.0
C      1  0.5749310000000  0.5052030000000  0.4737180000000 1.0
C      1  0.4250690000000  0.5052080000000  0.5262820000000 1.0
C      1  0.5749320000000  0.4947960000000  0.5262790000000 1.0
C      1  0.4250680000000  0.4947930000000  0.4737210000000 1.0
C      1  0.5250530000000  0.5135490000000  0.4715340000000 1.0
C      1  0.4749470000000  0.5135540000000  0.5284640000000 1.0
C      1  0.5250540000000  0.4864510000000  0.5284650000000 1.0
C      1  0.4749460000000  0.4864460000000  0.4715370000000 1.0
C      1  0.5660480000000  0.4785630000000  0.4812930000000 1.0
C      1  0.4339520000000  0.4785660000000  0.5187110000000 1.0
C      1  0.5660490000000  0.5214370000000  0.5187050000000 1.0
C      1  0.4339520000000  0.5214340000000  0.4812920000000 1.0
C      1  0.5090030000000  0.3995930000000  0.5501800000000 1.0
C      1  0.4909960000000  0.3995850000000  0.4498360000000 1.0
C      1  0.5090020000000  0.6004070000000  0.4498200000000 1.0
C      1  0.4909990000000  0.6004150000000  0.5501640000000 1.0
C      1  0.4583570000000  0.4689830000000  0.5312930000000 1.0
C      1  0.5416430000000  0.4689770000000  0.4687120000000 1.0
C      1  0.4583560000000  0.5310180000000  0.4687080000000 1.0
C      1  0.5416440000000  0.5310220000000  0.5312870000000 1.0
C      1  0.4612640000000  0.6000870000000  0.4458540000000 1.0
C      1  0.5387370000000  0.6000950000000  0.5541310000000 1.0
C      1  0.4612650000000  0.3999130000000  0.5541480000000 1.0
C      1  0.5387340000000  0.3999040000000  0.4458680000000 1.0
C      1  0.5447350000000  0.4211840000000  0.4612830000000 1.0
C      1  0.4552650000000  0.4211900000000  0.5387300000000 1.0
C      1  0.5447370000000  0.5788160000000  0.5387160000000 1.0
C      1  0.4552640000000  0.5788100000000  0.4612720000000 1.0
C      1  0.5043350000000  0.4339000000000  0.4859530000000 1.0
C      1  0.4956650000000  0.4339020000000  0.5140580000000 1.0
C      1  0.5043360000000  0.5661000000000  0.5140470000000 1.0
C      1  0.4956650000000  0.5660980000000  0.4859420000000 1.0
C      1  0.4267620000000  0.4737030000000  0.4913890000000 1.0
C      1  0.5732380000000  0.4737040000000  0.5086150000000 1.0
C      1  0.4267620000000  0.5262980000000  0.5086140000000 1.0
C      1  0.5732380000000  0.5262960000000  0.4913820000000 1.0
C      1  0.5276730000000  0.5095870000000  0.5447620000000 1.0
C      1  0.4723270000000  0.5095800000000  0.4552360000000 1.0
C      1  0.5276710000000  0.4904130000000  0.4552370000000 1.0
C      1  0.4723290000000  0.4904200000000  0.5447650000000 1.0
C      1  0.4695610000000  0.4425200000000  0.5261650000000 1.0
C      1  0.5304380000000  0.4425160000000  0.4738440000000 1.0
C      1  0.4695610000000  0.5574800000000  0.4738360000000 1.0
C      1  0.5304400000000  0.5574840000000  0.5261540000000 1.0
C      1  0.5116740000000  0.5072300000000  0.5680940000000 1.0
C      1  0.4883260000000  0.5072190000000  0.4319050000000 1.0
C      1  0.5116710000000  0.4927700000000  0.4319060000000 1.0
C      1  0.4883290000000  0.4927810000000  0.5680950000000 1.0
C      1  0.5142620000000  0.3901260000000  0.4398170000000 1.0
C      1  0.4857370000000  0.3901360000000  0.5602000000000 1.0
C      1  0.5142650000000  0.6098730000000  0.5601820000000 1.0
C      1  0.4857360000000  0.6098640000000  0.4398000000000 1.0
C      1  0.5123960000000  0.5810910000000  0.4683080000000 1.0
C      1  0.4876050000000  0.5810960000000  0.5316790000000 1.0
C      1  0.5123960000000  0.4189090000000  0.5316920000000 1.0
C      1  0.4876030000000  0.4189040000000  0.4683210000000 1.0
END
