TITL C-2323492-8884-614 2.73340568865827e-06 125000 -379.435033776094 0 0 60 (C5) n - 1
REM
REM in /home/bkarasulu/CARBON/AIRSS/Generating-Clusters/LCBOP/Higher-Symm/Only-C60/SD-CG/FIRE-HFTN
REM
REM
REM
REM
REM
REM ./C.cell (50c204cfd26239f34c78669fe23a5462)
REM
REM compiler GCC version 9.2.1 20190827 (Red Hat 9.2.1-1)
REM options -cpp -mtune=generic -march=x86-64 -g -O0 -fpre-include=/usr/include/finclude/math-vector-fortran.h
REM seed 260287300 -1382428215 -1277005491 -248374031 -188936169 1146572199 -1482869630 139794075 1412537742 -335341287 1987353886 1438561022 2137163289 1474142933 -821522157 503008988 1586129804 186854619 -307673739 2051283624 904642868 482298460 397225850 1786589256 -1348996437 -151734093 1983317927 -805834830 -539104096 758384829 1328543178 -109560698 -995907955
REM
CELL 1.54180   50.00000   50.00000   50.00000   90.00000   90.00000   90.00000
LATT -1
SFAC C  
C      1  0.4293670000000  0.4618490000000  0.5065510000000 1.0
C      1  0.4844040000000  0.4618470000000  0.5691990000000 1.0
C      1  0.5609930000000  0.4618470000000  0.5362150000000 1.0
C      1  0.5532910000000  0.4618490000000  0.4531820000000 1.0
C      1  0.4719420000000  0.4618510000000  0.4348480000000 1.0
C      1  0.5433110000000  0.4436730000000  0.5280760000000 1.0
C      1  0.5400870000000  0.4436740000000  0.4674820000000 1.0
C      1  0.4814630000000  0.4436760000000  0.4518240000000 1.0
C      1  0.4484550000000  0.4436750000000  0.5027410000000 1.0
C      1  0.4866800000000  0.4436730000000  0.5498670000000 1.0
C      1  0.5843320000000  0.4945370000000  0.5103640000000 1.0
C      1  0.5359160000000  0.4945400000000  0.4229980000000 1.0
C      1  0.4378660000000  0.4945410000000  0.4420470000000 1.0
C      1  0.4256830000000  0.4945380000000  0.5411840000000 1.0
C      1  0.5162030000000  0.4945360000000  0.5834070000000 1.0
C      1  0.5080520000000  0.5056190000000  0.5234890000000 1.0
C      1  0.5248270000000  0.5056190000000  0.4996010000000 1.0
C      1  0.5072920000000  0.5056200000000  0.4762650000000 1.0
C      1  0.4796800000000  0.5056200000000  0.4857300000000 1.0
C      1  0.4801490000000  0.5056190000000  0.5149160000000 1.0
C      1  0.5572580000000  0.5072280000000  0.5530020000000 1.0
C      1  0.5681010000000  0.5072310000000  0.4619230000000 1.0
C      1  0.4848310000000  0.5072330000000  0.4234660000000 1.0
C      1  0.4225240000000  0.5072320000000  0.4907770000000 1.0
C      1  0.4672870000000  0.5072290000000  0.5708340000000 1.0
C      1  0.5129460000000  0.5245400000000  0.4550790000000 1.0
C      1  0.4612770000000  0.5245400000000  0.4738070000000 1.0
C      1  0.4631220000000  0.5245380000000  0.5287340000000 1.0
C      1  0.5159320000000  0.5245370000000  0.5439530000000 1.0
C      1  0.5467240000000  0.5245380000000  0.4984310000000 1.0
C      1  0.4753560000000  0.4368890000000  0.5012250000000 1.0
C      1  0.4935510000000  0.4368880000000  0.5238140000000 1.0
C      1  0.5206560000000  0.4368880000000  0.5134900000000 1.0
C      1  0.5192140000000  0.4368880000000  0.4845210000000 1.0
C      1  0.4912170000000  0.4368890000000  0.4769410000000 1.0
C      1  0.5451050000000  0.5454610000000  0.5178950000000 1.0
C      1  0.5309560000000  0.5454630000000  0.4626340000000 1.0
C      1  0.4740280000000  0.5454640000000  0.4590140000000 1.0
C      1  0.4529940000000  0.5454630000000  0.5120370000000 1.0
C      1  0.4969210000000  0.5454610000000  0.5484270000000 1.0
C      1  0.4888310000000  0.4886040000000  0.5773370000000 1.0
C      1  0.5701010000000  0.4886040000000  0.5345210000000 1.0
C      1  0.5544940000000  0.4886070000000  0.4439970000000 1.0
C      1  0.4635780000000  0.4886090000000  0.4308670000000 1.0
C      1  0.4229960000000  0.4886070000000  0.5132760000000 1.0
C      1  0.4391000000000  0.5309010000000  0.4911380000000 1.0
C      1  0.4727520000000  0.5308990000000  0.5551820000000 1.0
C      1  0.5440610000000  0.5308980000000  0.5429680000000 1.0
C      1  0.5544790000000  0.5309000000000  0.4713750000000 1.0
C      1  0.4896100000000  0.5309020000000  0.4393420000000 1.0
C      1  0.5848110000000  0.4966730000000  0.4831830000000 1.0
C      1  0.5102140000000  0.4966760000000  0.4141430000000 1.0
C      1  0.4215020000000  0.4966760000000  0.4637550000000 1.0
C      1  0.4412720000000  0.4966720000000  0.5634560000000 1.0
C      1  0.5422020000000  0.4966710000000  0.5754630000000 1.0
C      1  0.5168210000000  0.5640190000000  0.4806360000000 1.0
C      1  0.4867810000000  0.5640190000000  0.4780210000000 1.0
C      1  0.4750110000000  0.5640190000000  0.5057830000000 1.0
C      1  0.4977760000000  0.5640180000000  0.5255550000000 1.0
C      1  0.5236160000000  0.5640180000000  0.5100140000000 1.0
END
