TITL C-2323492-8884-191 4.51387941910014e-06 125000 -359.454433740927 0 0 60 (C1) n - 1
REM
REM in /home/bkarasulu/CARBON/AIRSS/Generating-Clusters/LCBOP/Higher-Symm/Only-C60/SD-CG/FIRE-HFTN
REM
REM
REM
REM
REM
REM ./C.cell (50c204cfd26239f34c78669fe23a5462)
REM
REM compiler GCC version 9.2.1 20190827 (Red Hat 9.2.1-1)
REM options -cpp -mtune=generic -march=x86-64 -g -O0 -fpre-include=/usr/include/finclude/math-vector-fortran.h
REM seed -329900423 -1460514547 -792223208 -1749155174 549969164 336701765 1565744534 2114975241 1007589583 -1915073846 -1893137940 745408153 -1688401451 1107088123 -511444091 286372367 -1955117375 -1950294815 -2011693715 -334424119 1647870366 -644629206 -1868011171 -136736258 -1923443560 -478032187 1191975865 -2097846737 -85357795 -874676305 233732438 2000877010 -818780555
REM
CELL 1.54180   50.00000   50.00000   50.00000   90.00000   90.00000   90.00000
LATT -1
SFAC C  
C      1  0.5043340000000  0.4769410000000  0.5543350000000 1.0
C      1  0.5148610000000  0.5201830000000  0.5776540000000 1.0
C      1  0.4714220000000  0.5098560000000  0.5545730000000 1.0
C      1  0.4930020000000  0.4559890000000  0.4669030000000 1.0
C      1  0.5434970000000  0.5074660000000  0.4560510000000 1.0
C      1  0.4705890000000  0.5415760000000  0.4613010000000 1.0
C      1  0.5567640000000  0.5127470000000  0.5202350000000 1.0
C      1  0.4430810000000  0.5544130000000  0.5261480000000 1.0
C      1  0.4851060000000  0.4294290000000  0.5178050000000 1.0
C      1  0.4392230000000  0.4566430000000  0.5289660000000 1.0
C      1  0.5618660000000  0.4653310000000  0.5418250000000 1.0
C      1  0.4917150000000  0.5694780000000  0.5386640000000 1.0
C      1  0.4486980000000  0.4644870000000  0.4823580000000 1.0
C      1  0.5661220000000  0.4712360000000  0.4866390000000 1.0
C      1  0.4954010000000  0.5783260000000  0.4846170000000 1.0
C      1  0.4651950000000  0.5663170000000  0.5359440000000 1.0
C      1  0.4606570000000  0.4393510000000  0.5262710000000 1.0
C      1  0.5636470000000  0.4910520000000  0.5343020000000 1.0
C      1  0.4769720000000  0.4633970000000  0.4888630000000 1.0
C      1  0.5579710000000  0.4831960000000  0.4613520000000 1.0
C      1  0.4862450000000  0.5655320000000  0.4601880000000 1.0
C      1  0.5381080000000  0.4354130000000  0.5128390000000 1.0
C      1  0.5308020000000  0.5554750000000  0.5127530000000 1.0
C      1  0.4249830000000  0.5016820000000  0.5086420000000 1.0
C      1  0.5235920000000  0.5050900000000  0.4348530000000 1.0
C      1  0.4787390000000  0.5206810000000  0.4420710000000 1.0
C      1  0.4904500000000  0.4727840000000  0.4438010000000 1.0
C      1  0.4854420000000  0.4904720000000  0.5365090000000 1.0
C      1  0.5212600000000  0.4940820000000  0.5698060000000 1.0
C      1  0.4881030000000  0.5261010000000  0.5708690000000 1.0
C      1  0.5435290000000  0.5304900000000  0.4734360000000 1.0
C      1  0.4585790000000  0.5327480000000  0.4859330000000 1.0
C      1  0.5119590000000  0.4362850000000  0.4742610000000 1.0
C      1  0.4243410000000  0.4822120000000  0.5303590000000 1.0
C      1  0.5461700000000  0.4418770000000  0.5390650000000 1.0
C      1  0.5194690000000  0.5634530000000  0.5373470000000 1.0
C      1  0.5227600000000  0.5705350000000  0.4899340000000 1.0
C      1  0.4402720000000  0.4910540000000  0.4873920000000 1.0
C      1  0.5540790000000  0.4450100000000  0.4910340000000 1.0
C      1  0.4662620000000  0.5060740000000  0.4920980000000 1.0
C      1  0.5393480000000  0.4391740000000  0.4653670000000 1.0
C      1  0.5330270000000  0.5566330000000  0.4651910000000 1.0
C      1  0.5277480000000  0.4349630000000  0.5592250000000 1.0
C      1  0.5343920000000  0.5611510000000  0.5610630000000 1.0
C      1  0.4235100000000  0.4937910000000  0.5559370000000 1.0
C      1  0.5035180000000  0.5241910000000  0.4273100000000 1.0
C      1  0.4695740000000  0.4931060000000  0.4405000000000 1.0
C      1  0.5135110000000  0.4788590000000  0.4280790000000 1.0
C      1  0.5445360000000  0.5313620000000  0.5032780000000 1.0
C      1  0.4370140000000  0.5359440000000  0.5060220000000 1.0
C      1  0.5105450000000  0.4295790000000  0.5036080000000 1.0
C      1  0.5048770000000  0.5381150000000  0.4037920000000 1.0
C      1  0.4447050000000  0.4868900000000  0.4308630000000 1.0
C      1  0.5205230000000  0.4651220000000  0.4055860000000 1.0
C      1  0.5329840000000  0.5413950000000  0.5792790000000 1.0
C      1  0.4453590000000  0.5066390000000  0.5644740000000 1.0
C      1  0.5054940000000  0.4499890000000  0.5621690000000 1.0
C      1  0.5121630000000  0.5629840000000  0.4462440000000 1.0
C      1  0.4820970000000  0.4868760000000  0.5069440000000 1.0
C      1  0.5498090000000  0.4587740000000  0.4470770000000 1.0
END
