TITL C-2323481-8605-93 -249989.268842497 125000 -342.603559389245 0 0 60 (C1) n - 1
REM
REM in /home/bkarasulu/CARBON/AIRSS/Generating-Clusters/LCBOP/Higher-Symm/Only-C60/SD-CG/FIRE-HFTN
REM
REM
REM
REM
REM
REM ./C.cell (50c204cfd26239f34c78669fe23a5462)
REM
REM compiler GCC version 9.2.1 20190827 (Red Hat 9.2.1-1)
REM options -cpp -mtune=generic -march=x86-64 -g -O0 -fpre-include=/usr/include/finclude/math-vector-fortran.h
REM seed -436665994 -158360075 1494556893 -2023967084 -1476514434 1968759821 -826306997 1886867315 -257743288 -142762659 113892086 -1996587989 1082260124 -749766727 905131213 -811915577 -1270987824 -715586893 -324928154 660518947 -317887454 -803749067 -1560929439 -1060974678 1105897172 857819793 700064488 -524853528 732704766 -1616735307 -942168185 -1300658878 -1153408987
REM
CELL 1.54180   50.00000   50.00000   50.00000   90.00000   90.00000   90.00000
LATT -1
SFAC C  
C      1  0.4612730000000  0.4379430000000  0.4827440000000 1.0
C      1  0.4612900000000  0.5456350000000  0.4553720000000 1.0
C      1  0.4601480000000  0.5155530000000  0.5631520000000 1.0
C      1  0.4359410000000  0.4755740000000  0.4536650000000 1.0
C      1  0.4358430000000  0.5511540000000  0.5025070000000 1.0
C      1  0.4353690000000  0.4712220000000  0.5447050000000 1.0
C      1  0.4947250000000  0.4717120000000  0.5472840000000 1.0
C      1  0.4962230000000  0.4735050000000  0.4517690000000 1.0
C      1  0.4974880000000  0.5557330000000  0.5011780000000 1.0
C      1  0.5413310000000  0.4555380000000  0.4660370000000 1.0
C      1  0.5416570000000  0.5508410000000  0.4770920000000 1.0
C      1  0.5391790000000  0.4906250000000  0.5624140000000 1.0
C      1  0.4458890000000  0.5539400000000  0.4776470000000 1.0
C      1  0.4446060000000  0.4919950000000  0.5593310000000 1.0
C      1  0.4458100000000  0.4527720000000  0.4641510000000 1.0
C      1  0.5084290000000  0.4919740000000  0.5645400000000 1.0
C      1  0.5109930000000  0.4501300000000  0.4639950000000 1.0
C      1  0.5116750000000  0.5567520000000  0.4745920000000 1.0
C      1  0.5074540000000  0.4504920000000  0.5295540000000 1.0
C      1  0.5090050000000  0.4986450000000  0.4402330000000 1.0
C      1  0.5079800000000  0.5527390000000  0.5296900000000 1.0
C      1  0.5507820000000  0.5152660000000  0.5513900000000 1.0
C      1  0.5596650000000  0.4539770000000  0.4918660000000 1.0
C      1  0.5543900000000  0.5330200000000  0.4548660000000 1.0
C      1  0.4497920000000  0.5413140000000  0.5529710000000 1.0
C      1  0.4503680000000  0.4331730000000  0.5101630000000 1.0
C      1  0.4506390000000  0.5242270000000  0.4376280000000 1.0
C      1  0.5577350000000  0.5070390000000  0.4423490000000 1.0
C      1  0.5586160000000  0.5489990000000  0.5339480000000 1.0
C      1  0.5561020000000  0.4533940000000  0.5221020000000 1.0
C      1  0.5306130000000  0.4888710000000  0.5059210000000 1.0
C      1  0.5388020000000  0.4993810000000  0.4806240000000 1.0
C      1  0.5406800000000  0.5108370000000  0.5236810000000 1.0
C      1  0.4359490000000  0.4517000000000  0.5260370000000 1.0
C      1  0.4361360000000  0.5014460000000  0.4460660000000 1.0
C      1  0.4356100000000  0.5447230000000  0.5286850000000 1.0
C      1  0.4970060000000  0.5224630000000  0.4283850000000 1.0
C      1  0.4954420000000  0.5524610000000  0.5558550000000 1.0
C      1  0.4970540000000  0.4272530000000  0.5151290000000 1.0
C      1  0.5535910000000  0.5553410000000  0.5061510000000 1.0
C      1  0.5505430000000  0.4663740000000  0.5467980000000 1.0
C      1  0.5527100000000  0.4784800000000  0.4452350000000 1.0
C      1  0.5799370000000  0.4743740000000  0.4852780000000 1.0
C      1  0.5685060000000  0.5003770000000  0.4849290000000 1.0
C      1  0.5685960000000  0.5143230000000  0.5096050000000 1.0
C      1  0.5128580000000  0.4678790000000  0.5067110000000 1.0
C      1  0.5175120000000  0.5100500000000  0.4659480000000 1.0
C      1  0.5145850000000  0.5244280000000  0.5279460000000 1.0
C      1  0.4907050000000  0.5130810000000  0.4776720000000 1.0
C      1  0.4879680000000  0.5140660000000  0.5222750000000 1.0
C      1  0.4851690000000  0.4753830000000  0.5006020000000 1.0
C      1  0.4928080000000  0.5478280000000  0.4510880000000 1.0
C      1  0.4904250000000  0.5174150000000  0.5675420000000 1.0
C      1  0.4926000000000  0.4338770000000  0.4831660000000 1.0
C      1  0.4809680000000  0.4858580000000  0.4749350000000 1.0
C      1  0.4824950000000  0.5295780000000  0.4986860000000 1.0
C      1  0.4791130000000  0.4875680000000  0.5261430000000 1.0
C      1  0.4711750000000  0.4181320000000  0.5234130000000 1.0
C      1  0.4708370000000  0.5199510000000  0.4175630000000 1.0
C      1  0.4692060000000  0.5616160000000  0.5589940000000 1.0
END
