TITL C-2323491-8878-312 -0.000771210802086175 125000 -354.528893094951 0 0 60 (C1) n - 1
REM
REM in /home/bkarasulu/CARBON/AIRSS/Generating-Clusters/LCBOP/Higher-Symm/Only-C60/SD-CG/FIRE-HFTN
REM
REM
REM
REM
REM
REM ./C.cell (50c204cfd26239f34c78669fe23a5462)
REM
REM compiler GCC version 9.2.1 20190827 (Red Hat 9.2.1-1)
REM options -cpp -mtune=generic -march=x86-64 -g -O0 -fpre-include=/usr/include/finclude/math-vector-fortran.h
REM seed -329836172 2089751294 -445593199 -138379510 1100932571 1577546618 1074995369 -877195429 -1376934810 -306163985 -1143568859 -715485452 -548302594 1575976232 230980013 2145777655 -1582372536 1559367106 1417921381 -2000661084 -874284676 -1615885879 1302086105 1466434777 -2009543375 662048124 -1053210468 -2133029702 -998274222 1312859089 -2104466265 957090664 1644184682
REM
CELL 1.54180   50.00000   50.00000   50.00000   90.00000   90.00000   90.00000
LATT -1
SFAC C  
C      1  0.4311030000000  0.5346620000000  0.4647770000000 1.0
C      1  0.4677920000000  0.4637920000000  0.4409120000000 1.0
C      1  0.4505580000000  0.4313340000000  0.5041940000000 1.0
C      1  0.4677940000000  0.4912680000000  0.5081130000000 1.0
C      1  0.5217360000000  0.5218410000000  0.4502760000000 1.0
C      1  0.4438800000000  0.5062260000000  0.4250150000000 1.0
C      1  0.4407240000000  0.5282030000000  0.4905590000000 1.0
C      1  0.5417670000000  0.5695700000000  0.4915520000000 1.0
C      1  0.4895450000000  0.5472190000000  0.4720230000000 1.0
C      1  0.5170210000000  0.4841010000000  0.5062410000000 1.0
C      1  0.5367090000000  0.5068030000000  0.4689680000000 1.0
C      1  0.4978410000000  0.5229740000000  0.5200240000000 1.0
C      1  0.5486080000000  0.5638870000000  0.4634350000000 1.0
C      1  0.5656620000000  0.5197320000000  0.4351660000000 1.0
C      1  0.4996320000000  0.5539270000000  0.5542460000000 1.0
C      1  0.5797350000000  0.5020560000000  0.5236870000000 1.0
C      1  0.4447840000000  0.4997320000000  0.4947640000000 1.0
C      1  0.4109420000000  0.4770920000000  0.5358400000000 1.0
C      1  0.4720450000000  0.4522680000000  0.4661970000000 1.0
C      1  0.5237840000000  0.4724820000000  0.5507570000000 1.0
C      1  0.4653330000000  0.4304460000000  0.5281640000000 1.0
C      1  0.5004540000000  0.5256960000000  0.5486340000000 1.0
C      1  0.4527730000000  0.4383990000000  0.5523290000000 1.0
C      1  0.4507770000000  0.5502000000000  0.5069680000000 1.0
C      1  0.4293320000000  0.4794230000000  0.5555300000000 1.0
C      1  0.5253800000000  0.4600430000000  0.4633530000000 1.0
C      1  0.5926150000000  0.5098190000000  0.5467720000000 1.0
C      1  0.5637170000000  0.4999250000000  0.4785000000000 1.0
C      1  0.5221480000000  0.5735360000000  0.5108000000000 1.0
C      1  0.4983520000000  0.5695150000000  0.5275410000000 1.0
C      1  0.4536070000000  0.4659660000000  0.5605870000000 1.0
C      1  0.5557850000000  0.4939510000000  0.4300460000000 1.0
C      1  0.4802990000000  0.4763150000000  0.5605840000000 1.0
C      1  0.4309310000000  0.4744780000000  0.4903720000000 1.0
C      1  0.4575080000000  0.5733260000000  0.5504650000000 1.0
C      1  0.5633960000000  0.4783120000000  0.5191220000000 1.0
C      1  0.4936750000000  0.4964450000000  0.5135270000000 1.0
C      1  0.5655810000000  0.5435920000000  0.4499740000000 1.0
C      1  0.4931280000000  0.4382260000000  0.5268870000000 1.0
C      1  0.5362130000000  0.4788390000000  0.5270530000000 1.0
C      1  0.5003090000000  0.4567040000000  0.5487190000000 1.0
C      1  0.4332500000000  0.5258910000000  0.4396100000000 1.0
C      1  0.4767090000000  0.5647560000000  0.5686030000000 1.0
C      1  0.5401440000000  0.4718650000000  0.4375220000000 1.0
C      1  0.5650840000000  0.4713910000000  0.4902260000000 1.0
C      1  0.4100040000000  0.4711750000000  0.5094000000000 1.0
C      1  0.5072250000000  0.5460370000000  0.4503580000000 1.0
C      1  0.5212580000000  0.4855520000000  0.4788740000000 1.0
C      1  0.5488590000000  0.4489620000000  0.4809700000000 1.0
C      1  0.4572770000000  0.4831920000000  0.4259950000000 1.0
C      1  0.4943230000000  0.5389180000000  0.4971090000000 1.0
C      1  0.5787730000000  0.5153870000000  0.4980320000000 1.0
C      1  0.6041730000000  0.5171620000000  0.5689450000000 1.0
C      1  0.4969200000000  0.5001980000000  0.5619700000000 1.0
C      1  0.4990750000000  0.4447590000000  0.4742640000000 1.0
C      1  0.4490740000000  0.4516490000000  0.4843030000000 1.0
C      1  0.5071160000000  0.4338400000000  0.5016440000000 1.0
C      1  0.5248730000000  0.5679940000000  0.4474340000000 1.0
C      1  0.4669350000000  0.5686450000000  0.5228300000000 1.0
C      1  0.5359560000000  0.4303060000000  0.4992370000000 1.0
END
