TITL C-2323478-8180-200 40.4361467559923 125000 -357.088096053522 0 0 60 (S4) n - 1
REM
REM in /home/bkarasulu/CARBON/AIRSS/Generating-Clusters/LCBOP/Higher-Symm/Only-C60/SD-CG/FIRE-HFTN
REM
REM
REM
REM
REM
REM ./C.cell (50c204cfd26239f34c78669fe23a5462)
REM
REM compiler GCC version 9.2.1 20190827 (Red Hat 9.2.1-1)
REM options -cpp -mtune=generic -march=x86-64 -g -O0 -fpre-include=/usr/include/finclude/math-vector-fortran.h
REM seed -854454812 -1771219739 477353378 -1233526871 -1523814506 -391783252 -1502455722 842228839 1566261620 -88478017 -983977779 129814680 1571376260 119081899 -2017234722 1001610778 -1374849467 -1291807726 1797330365 1138236810 1968774730 -582581914 2116966311 69207373 491003575 172215573 1181049276 2115264499 1450483258 2012741394 67785627 -1585921572 224204842
REM
CELL 1.54180   50.00000   50.00000   50.00000   90.00000   90.00000   90.00000
LATT -1
SFAC C  
C      1  0.2739850000000  0.4700560000000  0.6157380000000 1.0
C      1  0.4705800000000  0.7254780000000  0.3830870000000 1.0
C      1  0.7249500000000  0.5299580000000  0.6177910000000 1.0
C      1  0.5304860000000  0.2745100000000  0.3833830000000 1.0
C      1  0.4391680000000  0.4853800000000  0.5559600000000 1.0
C      1  0.4856340000000  0.5605730000000  0.4436940000000 1.0
C      1  0.5603190000000  0.5146260000000  0.5565120000000 1.0
C      1  0.5148790000000  0.4394210000000  0.4438340000000 1.0
C      1  0.5177640000000  0.4157030000000  0.4583750000000 1.0
C      1  0.4155160000000  0.4824280000000  0.5413260000000 1.0
C      1  0.4826160000000  0.5842920000000  0.4582060000000 1.0
C      1  0.5841040000000  0.5175760000000  0.5420930000000 1.0
C      1  0.6318530000000  0.5217740000000  0.5677610000000 1.0
C      1  0.5220770000000  0.3678360000000  0.4329470000000 1.0
C      1  0.3675350000000  0.4782330000000  0.5665570000000 1.0
C      1  0.4785360000000  0.6321570000000  0.4327350000000 1.0
C      1  0.5069530000000  0.5122490000000  0.5546050000000 1.0
C      1  0.5124950000000  0.4927950000000  0.4454830000000 1.0
C      1  0.4925490000000  0.4877560000000  0.5545410000000 1.0
C      1  0.4880020000000  0.5071990000000  0.4453710000000 1.0
C      1  0.4817460000000  0.5828290000000  0.4861290000000 1.0
C      1  0.5827660000000  0.5183180000000  0.5141600000000 1.0
C      1  0.5183800000000  0.4171690000000  0.4863040000000 1.0
C      1  0.4171080000000  0.4816830000000  0.5134070000000 1.0
C      1  0.6551250000000  0.5238200000000  0.5802680000000 1.0
C      1  0.5241790000000  0.3445060000000  0.4205570000000 1.0
C      1  0.3441490000000  0.4761890000000  0.5788520000000 1.0
C      1  0.4765470000000  0.6554850000000  0.4203240000000 1.0
C      1  0.4745580000000  0.6788140000000  0.4079130000000 1.0
C      1  0.6783980000000  0.5258650000000  0.5927750000000 1.0
C      1  0.5262810000000  0.3211760000000  0.4081670000000 1.0
C      1  0.3207630000000  0.4741450000000  0.5911460000000 1.0
C      1  0.2973770000000  0.4721000000000  0.6034400000000 1.0
C      1  0.4725690000000  0.7021430000000  0.3955020000000 1.0
C      1  0.7016710000000  0.5279110000000  0.6052810000000 1.0
C      1  0.5283830000000  0.2978460000000  0.3957770000000 1.0
C      1  0.3909100000000  0.4802770000000  0.5542680000000 1.0
C      1  0.4805240000000  0.6088380000000  0.4451410000000 1.0
C      1  0.6085900000000  0.5197290000000  0.5552590000000 1.0
C      1  0.5199760000000  0.3911560000000  0.4453320000000 1.0
C      1  0.2509780000000  0.4680450000000  0.6278330000000 1.0
C      1  0.4686230000000  0.7484290000000  0.3708780000000 1.0
C      1  0.7478450000000  0.5319700000000  0.6300950000000 1.0
C      1  0.5325540000000  0.2515570000000  0.3711940000000 1.0
C      1  0.5728340000000  0.5170130000000  0.4896070000000 1.0
C      1  0.5169640000000  0.4272140000000  0.5108060000000 1.0
C      1  0.4272640000000  0.4829860000000  0.4889450000000 1.0
C      1  0.4829380000000  0.5727860000000  0.5106430000000 1.0
C      1  0.4644050000000  0.4947720000000  0.4538080000000 1.0
C      1  0.4945650000000  0.5358080000000  0.5460030000000 1.0
C      1  0.5360150000000  0.5052230000000  0.4541340000000 1.0
C      1  0.5050150000000  0.4641970000000  0.5460540000000 1.0
C      1  0.4876510000000  0.5344960000000  0.4393460000000 1.0
C      1  0.5342220000000  0.5126280000000  0.5607520000000 1.0
C      1  0.5129020000000  0.4654980000000  0.4394640000000 1.0
C      1  0.4652250000000  0.4873780000000  0.5604380000000 1.0
C      1  0.4438040000000  0.4870850000000  0.4686200000000 1.0
C      1  0.4869450000000  0.5563400000000  0.5310620000000 1.0
C      1  0.5564800000000  0.5129120000000  0.4691330000000 1.0
C      1  0.5127710000000  0.4436630000000  0.5311850000000 1.0
END
