TITL C-2323491-8878-199 -0.00551511249482147 125000 -364.12287490572 0 0 60 (C5) n - 1
REM
REM in /home/bkarasulu/CARBON/AIRSS/Generating-Clusters/LCBOP/Higher-Symm/Only-C60/SD-CG/FIRE-HFTN
REM
REM
REM
REM
REM
REM ./C.cell (50c204cfd26239f34c78669fe23a5462)
REM
REM compiler GCC version 9.2.1 20190827 (Red Hat 9.2.1-1)
REM options -cpp -mtune=generic -march=x86-64 -g -O0 -fpre-include=/usr/include/finclude/math-vector-fortran.h
REM seed 1024661494 -1684238585 2133591042 1720159355 -1616789967 822306504 172663333 -694882726 534972593 -903484539 334247970 1864468633 -612973410 -628180483 1891817917 -1358006433 493613217 -869673710 17086707 -1970812731 1047793053 1078140116 1383563966 1414198521 1450961194 -292505846 1771276939 1495016028 1261808888 1895757145 376232789 1638341722 885561915
REM
CELL 1.54180   50.00000   50.00000   50.00000   90.00000   90.00000   90.00000
LATT -1
SFAC C  
C      1  0.4639340000000  0.4619140000000  0.5622550000000 1.0
C      1  0.4639340000000  0.4290230000000  0.4830150000000 1.0
C      1  0.4639350000000  0.4942200000000  0.4272480000000 1.0
C      1  0.4639350000000  0.5674050000000  0.4720210000000 1.0
C      1  0.4639350000000  0.5474390000000  0.5554600000000 1.0
C      1  0.5362610000000  0.5393680000000  0.5623670000000 1.0
C      1  0.5362610000000  0.5714790000000  0.4818310000000 1.0
C      1  0.5362610000000  0.5048090000000  0.4264050000000 1.0
C      1  0.5362610000000  0.4314930000000  0.4726840000000 1.0
C      1  0.5362610000000  0.4528510000000  0.5567130000000 1.0
C      1  0.5094670000000  0.5103890000000  0.4168110000000 1.0
C      1  0.5094670000000  0.5823270000000  0.4841730000000 1.0
C      1  0.5094670000000  0.5404930000000  0.5734070000000 1.0
C      1  0.5094660000000  0.4426980000000  0.5611950000000 1.0
C      1  0.5094660000000  0.4240930000000  0.4644130000000 1.0
C      1  0.4904950000000  0.4873930000000  0.4178810000000 1.0
C      1  0.4904950000000  0.4180040000000  0.4866140000000 1.0
C      1  0.4904950000000  0.4619310000000  0.5738460000000 1.0
C      1  0.4904950000000  0.5584680000000  0.5590250000000 1.0
C      1  0.4904950000000  0.5742040000000  0.4626340000000 1.0
C      1  0.4983860000000  0.5596660000000  0.4387110000000 1.0
C      1  0.4983860000000  0.5767270000000  0.5378060000000 1.0
C      1  0.4983860000000  0.4877540000000  0.5846540000000 1.0
C      1  0.4983860000000  0.4157050000000  0.5145130000000 1.0
C      1  0.4983860000000  0.4601480000000  0.4243150000000 1.0
C      1  0.5010920000000  0.4380070000000  0.4401380000000 1.0
C      1  0.5010920000000  0.4239110000000  0.5404600000000 1.0
C      1  0.5010920000000  0.5149670000000  0.5848680000000 1.0
C      1  0.5010930000000  0.5853390000000  0.5119910000000 1.0
C      1  0.5010930000000  0.5377750000000  0.4225430000000 1.0
C      1  0.4617140000000  0.5256730000000  0.5375080000000 1.0
C      1  0.4617130000000  0.4722610000000  0.5360070000000 1.0
C      1  0.4617130000000  0.4571830000000  0.4847460000000 1.0
C      1  0.4617140000000  0.5012760000000  0.4545650000000 1.0
C      1  0.4617140000000  0.5436060000000  0.4871740000000 1.0
C      1  0.5385090000000  0.4709220000000  0.5350350000000 1.0
C      1  0.5385100000000  0.5243340000000  0.5384810000000 1.0
C      1  0.5385100000000  0.5441170000000  0.4887480000000 1.0
C      1  0.5385100000000  0.5029320000000  0.4545650000000 1.0
C      1  0.5385090000000  0.4576940000000  0.4831710000000 1.0
C      1  0.4412780000000  0.5142940000000  0.5208360000000 1.0
C      1  0.4412770000000  0.4846010000000  0.5200330000000 1.0
C      1  0.4412770000000  0.4761890000000  0.4915450000000 1.0
C      1  0.4412780000000  0.5006840000000  0.4747410000000 1.0
C      1  0.4412780000000  0.5242340000000  0.4928450000000 1.0
C      1  0.5588320000000  0.4839040000000  0.5194850000000 1.0
C      1  0.5588320000000  0.5135580000000  0.5213300000000 1.0
C      1  0.5588320000000  0.5244750000000  0.4936970000000 1.0
C      1  0.5588320000000  0.5015690000000  0.4747750000000 1.0
C      1  0.5588320000000  0.4764940000000  0.4907130000000 1.0
C      1  0.5130170000000  0.5175370000000  0.5298100000000 1.0
C      1  0.5130170000000  0.4770680000000  0.5258910000000 1.0
C      1  0.5130170000000  0.4682900000000  0.4861910000000 1.0
C      1  0.5130170000000  0.5033340000000  0.4655750000000 1.0
C      1  0.5130170000000  0.5337700000000  0.4925330000000 1.0
C      1  0.4870150000000  0.4766300000000  0.5255150000000 1.0
C      1  0.4870150000000  0.5170440000000  0.5301110000000 1.0
C      1  0.4870150000000  0.5339040000000  0.4930950000000 1.0
C      1  0.4870150000000  0.5039100000000  0.4656220000000 1.0
C      1  0.4870150000000  0.4685120000000  0.4856580000000 1.0
END
