TITL C-2323485-8600-564 2.74585898826839e-05 125000 -361.985544353846 0 0 60 (C1) n - 1
REM
REM in /home/bkarasulu/CARBON/AIRSS/Generating-Clusters/LCBOP/Higher-Symm/Only-C60/SD-CG/FIRE-HFTN
REM
REM
REM
REM
REM
REM ./C.cell (50c204cfd26239f34c78669fe23a5462)
REM
REM compiler GCC version 9.2.1 20190827 (Red Hat 9.2.1-1)
REM options -cpp -mtune=generic -march=x86-64 -g -O0 -fpre-include=/usr/include/finclude/math-vector-fortran.h
REM seed 1293842058 -1895944595 -331318423 41428744 1938004376 906437219 632583776 -868600607 1656941300 -673209202 -338159238 758297422 1291878583 599314486 268749653 -1464654838 1931814509 164027348 -2065194976 1082241137 1337481818 -1524669821 1073759590 -2144902567 -1910833788 -1628254258 1467338606 -1020372519 -570671927 248365860 2843255 1742376058 2086070263
REM
CELL 1.54180   50.00000   50.00000   50.00000   90.00000   90.00000   90.00000
LATT -1
SFAC C  
C      1  0.5359420000000  0.5075190000000  0.5563880000000 1.0
C      1  0.5015470000000  0.4722830000000  0.4443080000000 1.0
C      1  0.5224000000000  0.5165400000000  0.4738220000000 1.0
C      1  0.5481660000000  0.4517940000000  0.5249320000000 1.0
C      1  0.5107240000000  0.4714940000000  0.5465010000000 1.0
C      1  0.4930270000000  0.5747300000000  0.4543680000000 1.0
C      1  0.5833680000000  0.5088010000000  0.4654170000000 1.0
C      1  0.5634830000000  0.4711110000000  0.5394610000000 1.0
C      1  0.5320540000000  0.5385530000000  0.4549960000000 1.0
C      1  0.4770160000000  0.4796420000000  0.5894150000000 1.0
C      1  0.4345180000000  0.4809390000000  0.5000590000000 1.0
C      1  0.4834660000000  0.5317880000000  0.4556340000000 1.0
C      1  0.4399430000000  0.5180260000000  0.4683130000000 1.0
C      1  0.5295180000000  0.4710510000000  0.4354430000000 1.0
C      1  0.5025070000000  0.4287140000000  0.5265900000000 1.0
C      1  0.4984180000000  0.4946600000000  0.5337400000000 1.0
C      1  0.5581360000000  0.4992560000000  0.5388910000000 1.0
C      1  0.4539410000000  0.4920670000000  0.4569810000000 1.0
C      1  0.5117980000000  0.5190760000000  0.5432520000000 1.0
C      1  0.4782710000000  0.4896330000000  0.4394860000000 1.0
C      1  0.4566690000000  0.5584700000000  0.5164400000000 1.0
C      1  0.5203800000000  0.5656580000000  0.4634550000000 1.0
C      1  0.4697070000000  0.5565850000000  0.4558380000000 1.0
C      1  0.5037440000000  0.4842230000000  0.5914360000000 1.0
C      1  0.4386920000000  0.5611620000000  0.4945300000000 1.0
C      1  0.5659850000000  0.5122320000000  0.5141110000000 1.0
C      1  0.4868530000000  0.5158430000000  0.4324600000000 1.0
C      1  0.4454680000000  0.5477970000000  0.4698960000000 1.0
C      1  0.5001290000000  0.4256110000000  0.4987710000000 1.0
C      1  0.4311550000000  0.4163490000000  0.5451630000000 1.0
C      1  0.4523640000000  0.4335320000000  0.5448180000000 1.0
C      1  0.5227020000000  0.4842100000000  0.5703790000000 1.0
C      1  0.5468380000000  0.5610240000000  0.5059140000000 1.0
C      1  0.4997440000000  0.5490250000000  0.5000370000000 1.0
C      1  0.5213400000000  0.4483550000000  0.5345680000000 1.0
C      1  0.5314040000000  0.5326510000000  0.4270730000000 1.0
C      1  0.5602250000000  0.4716230000000  0.4791420000000 1.0
C      1  0.4789050000000  0.4243750000000  0.5414100000000 1.0
C      1  0.4492970000000  0.4787400000000  0.5243800000000 1.0
C      1  0.4247680000000  0.5067670000000  0.4912020000000 1.0
C      1  0.5087330000000  0.5224840000000  0.4159330000000 1.0
C      1  0.5045590000000  0.4673090000000  0.4728230000000 1.0
C      1  0.5736570000000  0.4960320000000  0.4427100000000 1.0
C      1  0.5625570000000  0.5402580000000  0.5123850000000 1.0
C      1  0.5545870000000  0.4749250000000  0.4494180000000 1.0
C      1  0.4833570000000  0.5517130000000  0.5224660000000 1.0
C      1  0.4729210000000  0.4940020000000  0.5234780000000 1.0
C      1  0.4898190000000  0.4450520000000  0.4817160000000 1.0
C      1  0.5224040000000  0.5655560000000  0.4928900000000 1.0
C      1  0.5196380000000  0.4894160000000  0.4828620000000 1.0
C      1  0.4959760000000  0.5425170000000  0.5462960000000 1.0
C      1  0.4966090000000  0.5280690000000  0.4809290000000 1.0
C      1  0.4158520000000  0.5760240000000  0.4966190000000 1.0
C      1  0.4568180000000  0.4727500000000  0.5728710000000 1.0
C      1  0.4487160000000  0.4617790000000  0.5477110000000 1.0
C      1  0.5544480000000  0.4508480000000  0.4973460000000 1.0
C      1  0.4470650000000  0.4701470000000  0.4757860000000 1.0
C      1  0.4621770000000  0.4466400000000  0.4765830000000 1.0
C      1  0.5723730000000  0.4973220000000  0.4899270000000 1.0
C      1  0.4931220000000  0.5552480000000  0.5702350000000 1.0
END
