TITL C-2323491-8878-190 -7.01648030969359e-07 125000 -363.818469754562 0 0 60 (Cs) n - 1
REM
REM in /home/bkarasulu/CARBON/AIRSS/Generating-Clusters/LCBOP/Higher-Symm/Only-C60/SD-CG/FIRE-HFTN
REM
REM
REM
REM
REM
REM ./C.cell (50c204cfd26239f34c78669fe23a5462)
REM
REM compiler GCC version 9.2.1 20190827 (Red Hat 9.2.1-1)
REM options -cpp -mtune=generic -march=x86-64 -g -O0 -fpre-include=/usr/include/finclude/math-vector-fortran.h
REM seed -221083227 1568614147 -1784610433 1568414192 -1559125484 -213782210 -1377625805 1021612183 291655620 -511176443 -1326631849 -1371135072 2031190685 1219533583 -1124091014 1728474916 790941961 868741687 -1259776011 -6119374 -1205799857 2004941707 920404159 1762919194 237318829 1672408337 199828547 1065729271 -343079138 -486685751 -2028284363 38900789 364195304
REM
CELL 1.54180   50.00000   50.00000   50.00000   90.00000   90.00000   90.00000
LATT -1
SFAC C  
C      1  0.4758200000000  0.5719540000000  0.5046970000000 1.0
C      1  0.4973440000000  0.5719570000000  0.5251270000000 1.0
C      1  0.5240170000000  0.5725040000000  0.5111830000000 1.0
C      1  0.5183530000000  0.5723440000000  0.4816000000000 1.0
C      1  0.4888450000000  0.5717210000000  0.4780330000000 1.0
C      1  0.4758130000000  0.4280470000000  0.5046860000000 1.0
C      1  0.4973370000000  0.4280400000000  0.5251160000000 1.0
C      1  0.5240100000000  0.4274920000000  0.5111720000000 1.0
C      1  0.5183460000000  0.4276570000000  0.4815900000000 1.0
C      1  0.4888380000000  0.4282840000000  0.4780220000000 1.0
C      1  0.5286030000000  0.5244400000000  0.5441260000000 1.0
C      1  0.5500040000000  0.5243170000000  0.4851370000000 1.0
C      1  0.5027090000000  0.5254050000000  0.4318290000000 1.0
C      1  0.4519260000000  0.5240620000000  0.4824820000000 1.0
C      1  0.4577300000000  0.5256330000000  0.5536630000000 1.0
C      1  0.5286010000000  0.4755510000000  0.5441230000000 1.0
C      1  0.5500020000000  0.4756810000000  0.4851330000000 1.0
C      1  0.5027060000000  0.4746050000000  0.4318250000000 1.0
C      1  0.4519240000000  0.4759450000000  0.4824790000000 1.0
C      1  0.4577280000000  0.4743630000000  0.5536600000000 1.0
C      1  0.5022610000000  0.4858070000000  0.4773180000000 1.0
C      1  0.4787860000000  0.4771750000000  0.4917260000000 1.0
C      1  0.4859980000000  0.4857850000000  0.5186280000000 1.0
C      1  0.5124150000000  0.4753330000000  0.5204870000000 1.0
C      1  0.5229060000000  0.4754950000000  0.4943220000000 1.0
C      1  0.5022620000000  0.5141960000000  0.4773210000000 1.0
C      1  0.4787880000000  0.5228280000000  0.4917290000000 1.0
C      1  0.4859990000000  0.5142130000000  0.5186300000000 1.0
C      1  0.5124180000000  0.5246620000000  0.5204910000000 1.0
C      1  0.5229080000000  0.5245040000000  0.4943250000000 1.0
C      1  0.5541440000000  0.5334540000000  0.5321580000000 1.0
C      1  0.5454170000000  0.5334160000000  0.4574770000000 1.0
C      1  0.4767810000000  0.5335040000000  0.4421290000000 1.0
C      1  0.4391710000000  0.5334740000000  0.5073450000000 1.0
C      1  0.4846440000000  0.5337510000000  0.5611900000000 1.0
C      1  0.5541410000000  0.4665370000000  0.5321530000000 1.0
C      1  0.5454140000000  0.4665860000000  0.4574730000000 1.0
C      1  0.4767780000000  0.4665060000000  0.4421240000000 1.0
C      1  0.4391680000000  0.4665300000000  0.5073400000000 1.0
C      1  0.4846410000000  0.4662420000000  0.5611850000000 1.0
C      1  0.5082670000000  0.5147800000000  0.5639950000000 1.0
C      1  0.5640690000000  0.5148510000000  0.5099000000000 1.0
C      1  0.5292400000000  0.5150100000000  0.4398940000000 1.0
C      1  0.4561190000000  0.5148660000000  0.4542020000000 1.0
C      1  0.4414790000000  0.5150440000000  0.5312270000000 1.0
C      1  0.5082660000000  0.4852100000000  0.5639930000000 1.0
C      1  0.5640680000000  0.4851410000000  0.5098980000000 1.0
C      1  0.5292380000000  0.4849960000000  0.4398910000000 1.0
C      1  0.4561180000000  0.4851450000000  0.4542000000000 1.0
C      1  0.4414780000000  0.4849570000000  0.5312250000000 1.0
C      1  0.4776050000000  0.5597230000000  0.4547410000000 1.0
C      1  0.4497780000000  0.5608990000000  0.5103270000000 1.0
C      1  0.4919810000000  0.5599540000000  0.5505510000000 1.0
C      1  0.5479720000000  0.5612870000000  0.5231980000000 1.0
C      1  0.5356590000000  0.5610780000000  0.4613750000000 1.0
C      1  0.4775990000000  0.4402860000000  0.4547320000000 1.0
C      1  0.4497720000000  0.4391040000000  0.5103180000000 1.0
C      1  0.4919760000000  0.4400390000000  0.5505430000000 1.0
C      1  0.5479660000000  0.4387050000000  0.5231890000000 1.0
C      1  0.5356530000000  0.4389240000000  0.4613670000000 1.0
END
