TITL C-2323478-8180-429 0.0169950800278243 125000 -347.164689383912 0 0 60 (Td) n - 1
REM
REM in /home/bkarasulu/CARBON/AIRSS/Generating-Clusters/LCBOP/Higher-Symm/Only-C60/SD-CG/FIRE-HFTN
REM
REM
REM
REM
REM
REM ./C.cell (50c204cfd26239f34c78669fe23a5462)
REM
REM compiler GCC version 9.2.1 20190827 (Red Hat 9.2.1-1)
REM options -cpp -mtune=generic -march=x86-64 -g -O0 -fpre-include=/usr/include/finclude/math-vector-fortran.h
REM seed -2117235657 1328043915 -1351016141 -1495680357 1752561131 1914634924 2110769344 408279964 -1646546839 -5034831 1115500822 197029312 -1816895591 1966400544 -349126858 -1826348682 -43228083 917301548 651434961 -348622683 -633001567 -1988847201 -981807415 -1355427210 1652308260 707437373 -830412141 -1162066517 747563842 373558033 2128586689 2016769802 -52301897
REM
CELL 1.54180   50.00000   50.00000   50.00000   90.00000   90.00000   90.00000
LATT -1
SFAC C  
C      1  0.5710300000000  0.5519610000000  0.5100240000000 1.0
C      1  0.5100240000000  0.5710300000000  0.5519610000000 1.0
C      1  0.5519610000000  0.5100240000000  0.5710300000000 1.0
C      1  0.4289700000000  0.4480390000000  0.5100240000000 1.0
C      1  0.4289700000000  0.5519610000000  0.4899760000000 1.0
C      1  0.5710300000000  0.4480390000000  0.4899760000000 1.0
C      1  0.4899760000000  0.4289700000000  0.5519610000000 1.0
C      1  0.4899760000000  0.5710300000000  0.4480390000000 1.0
C      1  0.5100240000000  0.4289700000000  0.4480390000000 1.0
C      1  0.4480390000000  0.4899760000000  0.5710300000000 1.0
C      1  0.4480390000000  0.5100240000000  0.4289700000000 1.0
C      1  0.5519610000000  0.4899760000000  0.4289700000000 1.0
C      1  0.5519610000000  0.5710300000000  0.5100240000000 1.0
C      1  0.5710300000000  0.5100240000000  0.5519610000000 1.0
C      1  0.5100240000000  0.5519610000000  0.5710300000000 1.0
C      1  0.4480390000000  0.4289700000000  0.5100240000000 1.0
C      1  0.5519610000000  0.4289700000000  0.4899760000000 1.0
C      1  0.4480390000000  0.5710300000000  0.4899760000000 1.0
C      1  0.4289700000000  0.4899760000000  0.5519610000000 1.0
C      1  0.5710300000000  0.4899760000000  0.4480390000000 1.0
C      1  0.4289700000000  0.5100240000000  0.4480390000000 1.0
C      1  0.4899760000000  0.4480390000000  0.5710300000000 1.0
C      1  0.5100240000000  0.4480390000000  0.4289700000000 1.0
C      1  0.4899760000000  0.5519610000000  0.4289700000000 1.0
C      1  0.5259480000000  0.5058030000000  0.5613450000000 1.0
C      1  0.5613450000000  0.5259480000000  0.5058030000000 1.0
C      1  0.5058030000000  0.5613450000000  0.5259480000000 1.0
C      1  0.4740520000000  0.4941970000000  0.5613450000000 1.0
C      1  0.4740520000000  0.5058030000000  0.4386550000000 1.0
C      1  0.5259480000000  0.4941970000000  0.4386550000000 1.0
C      1  0.4386550000000  0.4740520000000  0.5058030000000 1.0
C      1  0.4386550000000  0.5259480000000  0.4941970000000 1.0
C      1  0.5613450000000  0.4740520000000  0.4941970000000 1.0
C      1  0.4941970000000  0.4386550000000  0.5259480000000 1.0
C      1  0.4941970000000  0.5613450000000  0.4740520000000 1.0
C      1  0.5058030000000  0.4386550000000  0.4740520000000 1.0
C      1  0.5058030000000  0.5259480000000  0.5613450000000 1.0
C      1  0.5259480000000  0.5613450000000  0.5058030000000 1.0
C      1  0.5613450000000  0.5058030000000  0.5259480000000 1.0
C      1  0.4941970000000  0.4740520000000  0.5613450000000 1.0
C      1  0.5058030000000  0.4740520000000  0.4386550000000 1.0
C      1  0.4941970000000  0.5259480000000  0.4386550000000 1.0
C      1  0.4740520000000  0.4386550000000  0.5058030000000 1.0
C      1  0.5259480000000  0.4386550000000  0.4941970000000 1.0
C      1  0.4740520000000  0.5613450000000  0.4941970000000 1.0
C      1  0.4386550000000  0.4941970000000  0.5259480000000 1.0
C      1  0.5613450000000  0.4941970000000  0.4740520000000 1.0
C      1  0.4386550000000  0.5058030000000  0.4740520000000 1.0
C      1  0.4809560000000  0.5190440000000  0.5478360000000 1.0
C      1  0.5478360000000  0.4809560000000  0.5190440000000 1.0
C      1  0.5190440000000  0.5478360000000  0.4809560000000 1.0
C      1  0.5190440000000  0.4809560000000  0.5478360000000 1.0
C      1  0.5190440000000  0.5190440000000  0.4521640000000 1.0
C      1  0.4809560000000  0.4809560000000  0.4521640000000 1.0
C      1  0.4521640000000  0.5190440000000  0.5190440000000 1.0
C      1  0.4521640000000  0.4809560000000  0.4809560000000 1.0
C      1  0.5478360000000  0.5190440000000  0.4809560000000 1.0
C      1  0.4809560000000  0.4521640000000  0.4809560000000 1.0
C      1  0.4809560000000  0.5478360000000  0.5190440000000 1.0
C      1  0.5190440000000  0.4521640000000  0.5190440000000 1.0
END
