TITL C-2323482-8828-490 0.52591048271106 125000 -349.291077475083 0 0 60 (C3) n - 1
REM
REM in /home/bkarasulu/CARBON/AIRSS/Generating-Clusters/LCBOP/Higher-Symm/Only-C60/SD-CG/FIRE-HFTN
REM
REM
REM
REM
REM
REM ./C.cell (50c204cfd26239f34c78669fe23a5462)
REM
REM compiler GCC version 9.2.1 20190827 (Red Hat 9.2.1-1)
REM options -cpp -mtune=generic -march=x86-64 -g -O0 -fpre-include=/usr/include/finclude/math-vector-fortran.h
REM seed 1527865903 1369676697 993621307 -1111793920 1382126799 -1880052705 -1133569056 -1275775698 -339472737 860894292 167461412 -808525611 842600788 247883840 83679722 1916694649 2109718671 -74204195 -1700556589 -171168056 1529590744 -1117675550 431508544 1553455775 134159235 1530031858 1816585408 443924502 720900900 -246817189 565871442 -173955005 899449468
REM
CELL 1.54180   50.00000   50.00000   50.00000   90.00000   90.00000   90.00000
LATT -1
SFAC C  
C      1  0.4718770000000  0.4929040000000  0.5769160000000 1.0
C      1  0.5202130000000  0.4792070000000  0.5769180000000 1.0
C      1  0.5079070000000  0.5279160000000  0.5769120000000 1.0
C      1  0.4357480000000  0.4400380000000  0.5027450000000 1.0
C      1  0.5840550000000  0.4743380000000  0.5027430000000 1.0
C      1  0.4801970000000  0.5856250000000  0.5027290000000 1.0
C      1  0.5369230000000  0.4878760000000  0.5332800000000 1.0
C      1  0.4920410000000  0.5380450000000  0.5332740000000 1.0
C      1  0.4710340000000  0.4740910000000  0.5332810000000 1.0
C      1  0.4515300000000  0.4573440000000  0.4849230000000 1.0
C      1  0.5611750000000  0.4793490000000  0.4849220000000 1.0
C      1  0.4872960000000  0.5633020000000  0.4849110000000 1.0
C      1  0.4926770000000  0.4735850000000  0.5830330000000 1.0
C      1  0.5265440000000  0.5068810000000  0.5830300000000 1.0
C      1  0.4807750000000  0.5195630000000  0.5830280000000 1.0
C      1  0.3685490000000  0.5305510000000  0.3951990000000 1.0
C      1  0.5392600000000  0.3708650000000  0.3952200000000 1.0
C      1  0.5921960000000  0.5985480000000  0.3951940000000 1.0
C      1  0.5788720000000  0.4533290000000  0.5206760000000 1.0
C      1  0.5009840000000  0.5916440000000  0.5206590000000 1.0
C      1  0.4201430000000  0.4550340000000  0.5206740000000 1.0
C      1  0.5147900000000  0.4039460000000  0.4279490000000 1.0
C      1  0.5757850000000  0.5608220000000  0.4279320000000 1.0
C      1  0.4094280000000  0.5352070000000  0.4279320000000 1.0
C      1  0.4562620000000  0.4874730000000  0.5535980000000 1.0
C      1  0.5327220000000  0.4683950000000  0.5536010000000 1.0
C      1  0.5110140000000  0.5441500000000  0.5535920000000 1.0
C      1  0.4708500000000  0.5394590000000  0.4801190000000 1.0
C      1  0.4804010000000  0.4550220000000  0.4801290000000 1.0
C      1  0.5487500000000  0.5055120000000  0.4801240000000 1.0
C      1  0.3888190000000  0.5328600000000  0.4114290000000 1.0
C      1  0.5271260000000  0.3872680000000  0.4114480000000 1.0
C      1  0.5840590000000  0.5798410000000  0.4114270000000 1.0
C      1  0.5052820000000  0.4337660000000  0.5366980000000 1.0
C      1  0.5547220000000  0.5376980000000  0.5366870000000 1.0
C      1  0.4399940000000  0.5285480000000  0.5366860000000 1.0
C      1  0.5456330000000  0.4538370000000  0.4898240000000 1.0
C      1  0.5171610000000  0.5625990000000  0.4898120000000 1.0
C      1  0.4372060000000  0.4835600000000  0.4898190000000 1.0
C      1  0.5239960000000  0.5734860000000  0.5171130000000 1.0
C      1  0.4243630000000  0.4840410000000  0.5171220000000 1.0
C      1  0.5516400000000  0.4424790000000  0.5171290000000 1.0
C      1  0.5586810000000  0.5234630000000  0.4613730000000 1.0
C      1  0.4503370000000  0.5390800000000  0.4613700000000 1.0
C      1  0.4909840000000  0.4374430000000  0.4613820000000 1.0
C      1  0.5252760000000  0.5110810000000  0.4964880000000 1.0
C      1  0.4777660000000  0.5163480000000  0.4964870000000 1.0
C      1  0.4969590000000  0.4725700000000  0.4964920000000 1.0
C      1  0.5674640000000  0.5418600000000  0.4444660000000 1.0
C      1  0.4300120000000  0.5374860000000  0.4444640000000 1.0
C      1  0.5025260000000  0.4206350000000  0.4444790000000 1.0
C      1  0.5028840000000  0.5257780000000  0.5088120000000 1.0
C      1  0.4762350000000  0.4896100000000  0.5088160000000 1.0
C      1  0.5208810000000  0.4846150000000  0.5088170000000 1.0
C      1  0.4822710000000  0.4481260000000  0.5366140000000 1.0
C      1  0.5537920000000  0.5105910000000  0.5366080000000 1.0
C      1  0.4639350000000  0.5412960000000  0.5366030000000 1.0
C      1  0.5319850000000  0.4432130000000  0.5387690000000 1.0
C      1  0.5331890000000  0.5561010000000  0.5387560000000 1.0
C      1  0.4348240000000  0.5006990000000  0.5387610000000 1.0
END
