TITL C-2323481-8605-511 -1.07054994621064e-06 125000 -348.049947473531 0 0 60 (C1) n - 1
REM
REM in /home/bkarasulu/CARBON/AIRSS/Generating-Clusters/LCBOP/Higher-Symm/Only-C60/SD-CG/FIRE-HFTN
REM
REM
REM
REM
REM
REM ./C.cell (50c204cfd26239f34c78669fe23a5462)
REM
REM compiler GCC version 9.2.1 20190827 (Red Hat 9.2.1-1)
REM options -cpp -mtune=generic -march=x86-64 -g -O0 -fpre-include=/usr/include/finclude/math-vector-fortran.h
REM seed 1395191029 -1063188717 -1567660504 2130397432 -652337267 1335189039 428283549 722678338 932036101 1248898021 -1564658386 -245795930 1316074799 -383841472 1089372020 -1791226395 842945494 115076485 -1201023675 -998325366 94726085 1980763320 1703156872 -303573211 156047902 1019473579 648598306 539365236 1749909096 567434626 1862116459 -1799766910 -1729941108
REM
CELL 1.54180   50.00000   50.00000   50.00000   90.00000   90.00000   90.00000
LATT -1
SFAC C  
C      1  0.5473280000000  0.4560660000000  0.4664620000000 1.0
C      1  0.4532100000000  0.4414920000000  0.5222350000000 1.0
C      1  0.5481950000000  0.4734990000000  0.5598170000000 1.0
C      1  0.4552040000000  0.5432500000000  0.5502910000000 1.0
C      1  0.5444660000000  0.5646200000000  0.4746450000000 1.0
C      1  0.4544700000000  0.5132580000000  0.4373010000000 1.0
C      1  0.4792110000000  0.5557160000000  0.5532770000000 1.0
C      1  0.5221550000000  0.5730510000000  0.4620950000000 1.0
C      1  0.4771090000000  0.5085810000000  0.4234540000000 1.0
C      1  0.5267550000000  0.4393280000000  0.4621600000000 1.0
C      1  0.4732250000000  0.4263770000000  0.5321340000000 1.0
C      1  0.5250000000000  0.4779940000000  0.5728970000000 1.0
C      1  0.5331690000000  0.5225660000000  0.5378320000000 1.0
C      1  0.4728240000000  0.5599000000000  0.4971770000000 1.0
C      1  0.5189900000000  0.5210880000000  0.4652000000000 1.0
C      1  0.4802600000000  0.4770310000000  0.4647580000000 1.0
C      1  0.5151770000000  0.4583580000000  0.5114140000000 1.0
C      1  0.4842590000000  0.4915020000000  0.5279040000000 1.0
C      1  0.5696100000000  0.4785870000000  0.5146340000000 1.0
C      1  0.4295710000000  0.5116210000000  0.5192830000000 1.0
C      1  0.5687450000000  0.5246130000000  0.4933850000000 1.0
C      1  0.4311130000000  0.5133140000000  0.4815970000000 1.0
C      1  0.5676350000000  0.4953390000000  0.4909430000000 1.0
C      1  0.4318630000000  0.4810960000000  0.4997980000000 1.0
C      1  0.5055800000000  0.5599310000000  0.5484150000000 1.0
C      1  0.4954780000000  0.5733450000000  0.4580620000000 1.0
C      1  0.5039940000000  0.5062560000000  0.4231070000000 1.0
C      1  0.5002310000000  0.4346790000000  0.4611150000000 1.0
C      1  0.4996060000000  0.4203020000000  0.5330020000000 1.0
C      1  0.4983470000000  0.4822640000000  0.5724480000000 1.0
C      1  0.5219900000000  0.5188580000000  0.4913210000000 1.0
C      1  0.4770220000000  0.4973020000000  0.4813780000000 1.0
C      1  0.5102830000000  0.4838200000000  0.5203500000000 1.0
C      1  0.4752490000000  0.5084640000000  0.5069340000000 1.0
C      1  0.5258020000000  0.5065820000000  0.5161230000000 1.0
C      1  0.4747240000000  0.5361370000000  0.5088450000000 1.0
C      1  0.5577910000000  0.4825180000000  0.4662740000000 1.0
C      1  0.4430700000000  0.4552000000000  0.4994190000000 1.0
C      1  0.5595030000000  0.4621990000000  0.5361410000000 1.0
C      1  0.4415100000000  0.5186770000000  0.5439970000000 1.0
C      1  0.5570410000000  0.5512860000000  0.4965860000000 1.0
C      1  0.4421260000000  0.5268450000000  0.4591620000000 1.0
C      1  0.4769280000000  0.4886600000000  0.5550470000000 1.0
C      1  0.5306450000000  0.5505940000000  0.5385520000000 1.0
C      1  0.4709530000000  0.5655580000000  0.4697790000000 1.0
C      1  0.5256400000000  0.5088170000000  0.4410120000000 1.0
C      1  0.4764560000000  0.4493850000000  0.4645910000000 1.0
C      1  0.5223970000000  0.4344550000000  0.5241750000000 1.0
C      1  0.4467930000000  0.5554920000000  0.4580970000000 1.0
C      1  0.5516440000000  0.4969800000000  0.4419050000000 1.0
C      1  0.4507550000000  0.4421070000000  0.4746410000000 1.0
C      1  0.5500810000000  0.4350690000000  0.5312210000000 1.0
C      1  0.4503700000000  0.4968920000000  0.5608540000000 1.0
C      1  0.5509020000000  0.5632110000000  0.5225470000000 1.0
C      1  0.4343700000000  0.4243510000000  0.4619470000000 1.0
C      1  0.5660280000000  0.4130730000000  0.5330160000000 1.0
C      1  0.4346590000000  0.4855350000000  0.5799810000000 1.0
C      1  0.5642930000000  0.5854030000000  0.5313210000000 1.0
C      1  0.4285730000000  0.5722420000000  0.4464390000000 1.0
C      1  0.5696220000000  0.4992650000000  0.4215000000000 1.0
END
