TITL C-2323490-8774-384 1.81685716045381e-06 125000 -344.443138165907 0 0 60 (C1) n - 1
REM
REM in /home/bkarasulu/CARBON/AIRSS/Generating-Clusters/LCBOP/Higher-Symm/Only-C60/SD-CG/FIRE-HFTN
REM
REM
REM
REM
REM
REM ./C.cell (50c204cfd26239f34c78669fe23a5462)
REM
REM compiler GCC version 9.2.1 20190827 (Red Hat 9.2.1-1)
REM options -cpp -mtune=generic -march=x86-64 -g -O0 -fpre-include=/usr/include/finclude/math-vector-fortran.h
REM seed 1751156179 -353239113 -1744943908 -1766040988 1490591889 -1816056765 1568411856 -1909886976 -550937397 743702942 1410913596 -1280975935 -126194899 772598057 -413253958 -114989682 -768848340 363037782 -1409285383 1803188020 513779064 -1104219275 -320204958 111406429 -1053531452 1902338490 -742221524 -1158885844 1670182379 322528522 -546641851 705949435 -243052455
REM
CELL 1.54180   50.00000   50.00000   50.00000   90.00000   90.00000   90.00000
LATT -1
SFAC C  
C      1  0.5281560000000  0.5160700000000  0.4165930000000 1.0
C      1  0.5252600000000  0.4229550000000  0.5233160000000 1.0
C      1  0.4141450000000  0.5283070000000  0.5195490000000 1.0
C      1  0.4818990000000  0.4887740000000  0.4138540000000 1.0
C      1  0.5188850000000  0.4952400000000  0.5694750000000 1.0
C      1  0.4646860000000  0.4931980000000  0.5863260000000 1.0
C      1  0.4855400000000  0.5866270000000  0.5159210000000 1.0
C      1  0.5117500000000  0.5739330000000  0.4698350000000 1.0
C      1  0.4843790000000  0.4116720000000  0.4888450000000 1.0
C      1  0.5677570000000  0.4725410000000  0.5053650000000 1.0
C      1  0.4126500000000  0.4840710000000  0.4894240000000 1.0
C      1  0.5936620000000  0.5196830000000  0.4899950000000 1.0
C      1  0.5080820000000  0.5146490000000  0.5877780000000 1.0
C      1  0.5095660000000  0.4214460000000  0.4784490000000 1.0
C      1  0.4263360000000  0.5298210000000  0.4930160000000 1.0
C      1  0.4751170000000  0.4737240000000  0.5678700000000 1.0
C      1  0.5283300000000  0.4885420000000  0.4260210000000 1.0
C      1  0.4810650000000  0.5152740000000  0.4257040000000 1.0
C      1  0.4833610000000  0.5676150000000  0.4713000000000 1.0
C      1  0.5114010000000  0.5735750000000  0.5186810000000 1.0
C      1  0.4992820000000  0.4348080000000  0.5278850000000 1.0
C      1  0.5867800000000  0.4724160000000  0.4837790000000 1.0
C      1  0.4234860000000  0.4813960000000  0.5163700000000 1.0
C      1  0.5747280000000  0.5193760000000  0.5115760000000 1.0
C      1  0.4712870000000  0.5157790000000  0.4525580000000 1.0
C      1  0.5083150000000  0.4484420000000  0.4686870000000 1.0
C      1  0.4506160000000  0.4719100000000  0.5165530000000 1.0
C      1  0.5371190000000  0.4859200000000  0.4531140000000 1.0
C      1  0.4721300000000  0.4783010000000  0.5372600000000 1.0
C      1  0.5313810000000  0.5282590000000  0.5321690000000 1.0
C      1  0.4769010000000  0.5372830000000  0.4732760000000 1.0
C      1  0.5123540000000  0.5496440000000  0.5351030000000 1.0
C      1  0.4978250000000  0.4635360000000  0.5276340000000 1.0
C      1  0.5480200000000  0.5292820000000  0.5090340000000 1.0
C      1  0.4543070000000  0.5360600000000  0.4944760000000 1.0
C      1  0.5299180000000  0.4665320000000  0.4732170000000 1.0
C      1  0.4744570000000  0.5080910000000  0.5360680000000 1.0
C      1  0.5216920000000  0.4791990000000  0.5225540000000 1.0
C      1  0.4604940000000  0.4668140000000  0.4910650000000 1.0
C      1  0.5264390000000  0.5011840000000  0.5421250000000 1.0
C      1  0.4654500000000  0.4907300000000  0.4632960000000 1.0
C      1  0.5452310000000  0.5106490000000  0.4642390000000 1.0
C      1  0.4879620000000  0.5414560000000  0.5451300000000 1.0
C      1  0.5048350000000  0.5272910000000  0.4840170000000 1.0
C      1  0.4833490000000  0.4597090000000  0.4651050000000 1.0
C      1  0.5332110000000  0.5252820000000  0.4848000000000 1.0
C      1  0.4633280000000  0.5369460000000  0.5203070000000 1.0
C      1  0.5393930000000  0.4709100000000  0.5006600000000 1.0
C      1  0.5256310000000  0.5763270000000  0.4936820000000 1.0
C      1  0.5749280000000  0.4932730000000  0.5240680000000 1.0
C      1  0.5039440000000  0.4704420000000  0.5729640000000 1.0
C      1  0.5044950000000  0.5300460000000  0.4182880000000 1.0
C      1  0.4787320000000  0.4195460000000  0.5146650000000 1.0
C      1  0.5307710000000  0.4158970000000  0.4972200000000 1.0
C      1  0.4715080000000  0.5839360000000  0.4922500000000 1.0
C      1  0.4150680000000  0.5037900000000  0.5322520000000 1.0
C      1  0.5992320000000  0.4960360000000  0.4770140000000 1.0
C      1  0.4161100000000  0.5084200000000  0.4768780000000 1.0
C      1  0.4817620000000  0.5126960000000  0.5957040000000 1.0
C      1  0.5055050000000  0.4746760000000  0.4156410000000 1.0
END
