TITL C-2323481-8605-115 0.269236567189277 125000 -357.825314227145 0 0 60 (C1) n - 1
REM
REM in /home/bkarasulu/CARBON/AIRSS/Generating-Clusters/LCBOP/Higher-Symm/Only-C60/SD-CG/FIRE-HFTN
REM
REM
REM
REM
REM
REM ./C.cell (50c204cfd26239f34c78669fe23a5462)
REM
REM compiler GCC version 9.2.1 20190827 (Red Hat 9.2.1-1)
REM options -cpp -mtune=generic -march=x86-64 -g -O0 -fpre-include=/usr/include/finclude/math-vector-fortran.h
REM seed 1303341169 138523895 -259771980 -208730935 -1648519982 -1646638878 -1268620249 1968041372 -1830365292 653296306 -174779516 1098819165 396859870 793693879 -561125120 392999427 1934267120 1142605943 -1472087996 1376372995 1950026446 779580731 1669999006 -944471787 -133530704 1467643361 -695828485 2096950715 1959532985 1338724219 1442938753 447763950 1063561771
REM
CELL 1.54180   50.00000   50.00000   50.00000   90.00000   90.00000   90.00000
LATT -1
SFAC C  
C      1  0.5915300000000  0.5202170000000  0.4958190000000 1.0
C      1  0.4120360000000  0.4740970000000  0.5057250000000 1.0
C      1  0.5144570000000  0.4711680000000  0.5250630000000 1.0
C      1  0.4886260000000  0.5346530000000  0.5057400000000 1.0
C      1  0.4876650000000  0.4663450000000  0.5124350000000 1.0
C      1  0.5168490000000  0.5324890000000  0.4954330000000 1.0
C      1  0.4016540000000  0.4892100000000  0.5270250000000 1.0
C      1  0.6011150000000  0.5145950000000  0.5216500000000 1.0
C      1  0.5408200000000  0.5453440000000  0.4429750000000 1.0
C      1  0.4620490000000  0.4415870000000  0.4543830000000 1.0
C      1  0.5035660000000  0.5745170000000  0.4541750000000 1.0
C      1  0.4848950000000  0.4185500000000  0.4184380000000 1.0
C      1  0.4218440000000  0.5422980000000  0.4911170000000 1.0
C      1  0.5786510000000  0.4508620000000  0.5133170000000 1.0
C      1  0.5803750000000  0.5287650000000  0.4732100000000 1.0
C      1  0.4246110000000  0.4605910000000  0.4865720000000 1.0
C      1  0.5517360000000  0.4557980000000  0.4696140000000 1.0
C      1  0.4501790000000  0.5198550000000  0.4543940000000 1.0
C      1  0.4879830000000  0.4932710000000  0.4708200000000 1.0
C      1  0.5166510000000  0.4897970000000  0.4718300000000 1.0
C      1  0.5171100000000  0.5573280000000  0.5350350000000 1.0
C      1  0.4843040000000  0.4671650000000  0.5594070000000 1.0
C      1  0.4758800000000  0.4944170000000  0.5636990000000 1.0
C      1  0.5225550000000  0.5356040000000  0.5533270000000 1.0
C      1  0.4206640000000  0.5395070000000  0.5190860000000 1.0
C      1  0.5803050000000  0.4662320000000  0.5367810000000 1.0
C      1  0.5077890000000  0.5303460000000  0.5766900000000 1.0
C      1  0.4889330000000  0.5116970000000  0.5817420000000 1.0
C      1  0.5132140000000  0.5505860000000  0.4428300000000 1.0
C      1  0.4854930000000  0.4365730000000  0.4397720000000 1.0
C      1  0.4076870000000  0.5165830000000  0.5286800000000 1.0
C      1  0.5935090000000  0.4908780000000  0.5346290000000 1.0
C      1  0.4315010000000  0.5329920000000  0.4681030000000 1.0
C      1  0.5689470000000  0.4487980000000  0.4886270000000 1.0
C      1  0.3859380000000  0.4773530000000  0.5460040000000 1.0
C      1  0.6177910000000  0.5322990000000  0.5341940000000 1.0
C      1  0.5376580000000  0.4584110000000  0.5658890000000 1.0
C      1  0.4635330000000  0.5620240000000  0.5391600000000 1.0
C      1  0.4730970000000  0.5117470000000  0.5131610000000 1.0
C      1  0.5301700000000  0.4942810000000  0.5192510000000 1.0
C      1  0.4882800000000  0.5608790000000  0.5231580000000 1.0
C      1  0.5131570000000  0.4637490000000  0.5536520000000 1.0
C      1  0.4949130000000  0.5294760000000  0.4390600000000 1.0
C      1  0.5095070000000  0.4494850000000  0.4463640000000 1.0
C      1  0.5350260000000  0.5127510000000  0.5407840000000 1.0
C      1  0.4654510000000  0.5070820000000  0.5401780000000 1.0
C      1  0.4414010000000  0.4493240000000  0.4692670000000 1.0
C      1  0.5635870000000  0.5376370000000  0.4545150000000 1.0
C      1  0.5271530000000  0.5058710000000  0.4931510000000 1.0
C      1  0.4772760000000  0.4882420000000  0.4969820000000 1.0
C      1  0.4722720000000  0.4558150000000  0.5349360000000 1.0
C      1  0.5320160000000  0.5528680000000  0.5096970000000 1.0
C      1  0.4770650000000  0.5121730000000  0.4524740000000 1.0
C      1  0.5270990000000  0.4657770000000  0.4610100000000 1.0
C      1  0.4378610000000  0.5548700000000  0.5352790000000 1.0
C      1  0.5634540000000  0.4600100000000  0.5584850000000 1.0
C      1  0.4837770000000  0.3846260000000  0.3783010000000 1.0
C      1  0.4886460000000  0.5828350000000  0.5023240000000 1.0
C      1  0.4843320000000  0.4014510000000  0.3982070000000 1.0
C      1  0.4943570000000  0.5862480000000  0.4763740000000 1.0
END
