TITL C-2323480-5884-417 -0.000197440212377977 125000 -353.491175663359 0 0 60 (C3) n - 1
REM
REM in /home/bkarasulu/CARBON/AIRSS/Generating-Clusters/LCBOP/Higher-Symm/Only-C60/SD-CG/FIRE-HFTN
REM
REM
REM
REM
REM
REM ./C.cell (50c204cfd26239f34c78669fe23a5462)
REM
REM compiler GCC version 9.2.1 20190827 (Red Hat 9.2.1-1)
REM options -cpp -mtune=generic -march=x86-64 -g -O0 -fpre-include=/usr/include/finclude/math-vector-fortran.h
REM seed -426350065 -742191067 -778854050 -301809664 174789344 1616030039 -1197944811 -1461280976 -1320322099 1067960544 -1016972653 -1905435353 1713119435 -950134630 1904174088 -2048848115 -111534829 641980990 -479241069 2012669986 150964261 -1615665432 -1630488229 -2016586221 -1613435510 2109271678 1229826573 1552532916 120130839 218278444 1930537326 -2019218803 -319977895
REM
CELL 1.54180   50.00000   50.00000   50.00000   90.00000   90.00000   90.00000
LATT -1
SFAC C  
C      1  0.4764450000000  0.5521990000000  0.4592540000000 1.0
C      1  0.4764670000000  0.5521810000000  0.5407820000000 1.0
C      1  0.5470620000000  0.5522020000000  0.5000000000000 1.0
C      1  0.5379840000000  0.5481050000000  0.5518660000000 1.0
C      1  0.5259040000000  0.5481280000000  0.4411810000000 1.0
C      1  0.4360880000000  0.5480980000000  0.5069860000000 1.0
C      1  0.5223910000000  0.4561280000000  0.4224390000000 1.0
C      1  0.4216540000000  0.4560900000000  0.5193800000000 1.0
C      1  0.5559760000000  0.4561030000000  0.5581510000000 1.0
C      1  0.6105500000000  0.4572010000000  0.5061930000000 1.0
C      1  0.4501070000000  0.4571990000000  0.4011560000000 1.0
C      1  0.4393640000000  0.4571540000000  0.5926220000000 1.0
C      1  0.5885460000000  0.5434060000000  0.4778940000000 1.0
C      1  0.4365630000000  0.5433910000000  0.4343790000000 1.0
C      1  0.4748690000000  0.5433620000000  0.5877570000000 1.0
C      1  0.5453610000000  0.4659120000000  0.4314730000000 1.0
C      1  0.4179890000000  0.4658770000000  0.4949720000000 1.0
C      1  0.5366670000000  0.4658780000000  0.5735310000000 1.0
C      1  0.6057120000000  0.4732420000000  0.4623790000000 1.0
C      1  0.4145750000000  0.4732190000000  0.4272560000000 1.0
C      1  0.4797260000000  0.4731870000000  0.6103470000000 1.0
C      1  0.4908570000000  0.4778790000000  0.5847220000000 1.0
C      1  0.5779530000000  0.4779200000000  0.4655530000000 1.0
C      1  0.4312010000000  0.4779000000000  0.4497100000000 1.0
C      1  0.5669510000000  0.4734370000000  0.4918960000000 1.0
C      1  0.4595180000000  0.4734300000000  0.4460660000000 1.0
C      1  0.4735440000000  0.4734050000000  0.5620200000000 1.0
C      1  0.4314020000000  0.4549810000000  0.5440410000000 1.0
C      1  0.5724600000000  0.4550050000000  0.5373780000000 1.0
C      1  0.4961600000000  0.4550200000000  0.4185500000000 1.0
C      1  0.5612820000000  0.4853150000000  0.4440000000000 1.0
C      1  0.4208680000000  0.4852850000000  0.4749260000000 1.0
C      1  0.5178580000000  0.4852770000000  0.5810650000000 1.0
C      1  0.4098170000000  0.5416770000000  0.5173710000000 1.0
C      1  0.5601170000000  0.5416900000000  0.5694230000000 1.0
C      1  0.5300450000000  0.5417200000000  0.4132340000000 1.0
C      1  0.5410790000000  0.4807210000000  0.4974280000000 1.0
C      1  0.4772420000000  0.4807180000000  0.4657060000000 1.0
C      1  0.4816890000000  0.4807020000000  0.5368520000000 1.0
C      1  0.4579330000000  0.5557470000000  0.5221410000000 1.0
C      1  0.5401830000000  0.5557590000000  0.5253710000000 1.0
C      1  0.5018560000000  0.5557700000000  0.4525260000000 1.0
C      1  0.4692190000000  0.4614780000000  0.4216360000000 1.0
C      1  0.4475430000000  0.4614410000000  0.5658320000000 1.0
C      1  0.5832580000000  0.4614760000000  0.5125060000000 1.0
C      1  0.5153050000000  0.5335220000000  0.5636470000000 1.0
C      1  0.5474530000000  0.5335520000000  0.4549280000000 1.0
C      1  0.4372260000000  0.5335280000000  0.4814470000000 1.0
C      1  0.5482640000000  0.5210520000000  0.4107340000000 1.0
C      1  0.3985520000000  0.5210060000000  0.5028400000000 1.0
C      1  0.5531740000000  0.5210120000000  0.5864410000000 1.0
C      1  0.4887540000000  0.5428940000000  0.5641390000000 1.0
C      1  0.5611500000000  0.5429260000000  0.4776790000000 1.0
C      1  0.4500750000000  0.5429120000000  0.4582120000000 1.0
C      1  0.4168390000000  0.5121530000000  0.4820800000000 1.0
C      1  0.5260560000000  0.5121480000000  0.5809820000000 1.0
C      1  0.5570990000000  0.5121860000000  0.4369470000000 1.0
C      1  0.4548880000000  0.4629990000000  0.6140540000000 1.0
C      1  0.6213460000000  0.4630560000000  0.4820340000000 1.0
C      1  0.4237840000000  0.4630410000000  0.4038870000000 1.0
END
