TITL C-2323486-8761-365 2.68230009915226e-06 125000 -378.663601611283 0 0 60 (Cs) n - 1
REM
REM in /home/bkarasulu/CARBON/AIRSS/Generating-Clusters/LCBOP/Higher-Symm/Only-C60/SD-CG/FIRE-HFTN
REM
REM
REM
REM
REM
REM ./C.cell (50c204cfd26239f34c78669fe23a5462)
REM
REM compiler GCC version 9.2.1 20190827 (Red Hat 9.2.1-1)
REM options -cpp -mtune=generic -march=x86-64 -g -O0 -fpre-include=/usr/include/finclude/math-vector-fortran.h
REM seed -1184077796 -1774822511 927794765 -2023619795 368293394 1699398963 1048910867 1590454822 785002568 208920027 24497999 2030670070 1512828382 -307264780 -1133538680 1847908783 -401144949 339430391 1410253045 -527399019 -1810182366 -382809530 -1585763557 -1357776929 620414741 527625050 2000108626 1602783939 -691194386 -1506651614 1191249008 -979796743 871260450
REM
CELL 1.54180   50.00000   50.00000   50.00000   90.00000   90.00000   90.00000
LATT -1
SFAC C  
C      1  0.4868950000000  0.4530750000000  0.4731700000000 1.0
C      1  0.4868090000000  0.5476260000000  0.4708150000000 1.0
C      1  0.4867740000000  0.5005290000000  0.5545400000000 1.0
C      1  0.4868970000000  0.4530750000000  0.5268310000000 1.0
C      1  0.4868110000000  0.5476250000000  0.5291860000000 1.0
C      1  0.4867700000000  0.5005300000000  0.4454610000000 1.0
C      1  0.5523620000000  0.4607450000000  0.5376920000000 1.0
C      1  0.5518600000000  0.4863660000000  0.4482170000000 1.0
C      1  0.5490790000000  0.5531650000000  0.5143370000000 1.0
C      1  0.5523590000000  0.4607460000000  0.4623040000000 1.0
C      1  0.5518640000000  0.4863650000000  0.5517790000000 1.0
C      1  0.5490780000000  0.5531660000000  0.4856600000000 1.0
C      1  0.5124650000000  0.5275710000000  0.5835920000000 1.0
C      1  0.5138470000000  0.4160990000000  0.4864440000000 1.0
C      1  0.5103840000000  0.5516420000000  0.4286110000000 1.0
C      1  0.5124590000000  0.5275720000000  0.4164080000000 1.0
C      1  0.5138480000000  0.4160990000000  0.5135540000000 1.0
C      1  0.5103890000000  0.5516410000000  0.5713880000000 1.0
C      1  0.5647320000000  0.4558460000000  0.4866670000000 1.0
C      1  0.5626790000000  0.5326070000000  0.4718190000000 1.0
C      1  0.5630930000000  0.5099570000000  0.5422860000000 1.0
C      1  0.5647330000000  0.4558460000000  0.5133280000000 1.0
C      1  0.5626810000000  0.5326070000000  0.5281770000000 1.0
C      1  0.5630900000000  0.5099580000000  0.4577090000000 1.0
C      1  0.4581990000000  0.4978570000000  0.5556680000000 1.0
C      1  0.4583120000000  0.4535120000000  0.4700190000000 1.0
C      1  0.4583350000000  0.5501820000000  0.4740430000000 1.0
C      1  0.4581960000000  0.4978580000000  0.4443350000000 1.0
C      1  0.4583140000000  0.4535120000000  0.5299830000000 1.0
C      1  0.4583360000000  0.5501820000000  0.5259610000000 1.0
C      1  0.4970640000000  0.5254320000000  0.4859350000000 1.0
C      1  0.4967430000000  0.5008820000000  0.5277210000000 1.0
C      1  0.4966530000000  0.4766820000000  0.4861030000000 1.0
C      1  0.4970650000000  0.5254320000000  0.5140650000000 1.0
C      1  0.4967410000000  0.5008830000000  0.4722790000000 1.0
C      1  0.4966540000000  0.4766820000000  0.5138970000000 1.0
C      1  0.4481990000000  0.4517730000000  0.5566990000000 1.0
C      1  0.4480160000000  0.4755280000000  0.4296000000000 1.0
C      1  0.4486970000000  0.5741540000000  0.5137040000000 1.0
C      1  0.4481950000000  0.4517730000000  0.4433040000000 1.0
C      1  0.4480210000000  0.4755270000000  0.5704030000000 1.0
C      1  0.4486960000000  0.5741540000000  0.4863010000000 1.0
C      1  0.5079900000000  0.5014880000000  0.4266090000000 1.0
C      1  0.5071270000000  0.5603880000000  0.5446170000000 1.0
C      1  0.5083810000000  0.4356810000000  0.5334740000000 1.0
C      1  0.5079950000000  0.5014870000000  0.5733900000000 1.0
C      1  0.5071240000000  0.5603880000000  0.4553830000000 1.0
C      1  0.5083780000000  0.4356810000000  0.4665250000000 1.0
C      1  0.4455080000000  0.5008320000000  0.5290670000000 1.0
C      1  0.4454660000000  0.4751890000000  0.4857070000000 1.0
C      1  0.4457390000000  0.5257060000000  0.4851900000000 1.0
C      1  0.4455060000000  0.5008320000000  0.4709360000000 1.0
C      1  0.4454670000000  0.4751890000000  0.5142960000000 1.0
C      1  0.4457400000000  0.5257060000000  0.5148140000000 1.0
C      1  0.5291120000000  0.4834160000000  0.4320050000000 1.0
C      1  0.5301520000000  0.5677800000000  0.5296480000000 1.0
C      1  0.5293280000000  0.4482880000000  0.5478340000000 1.0
C      1  0.5291170000000  0.4834150000000  0.5679930000000 1.0
C      1  0.5301500000000  0.5677800000000  0.4703500000000 1.0
C      1  0.5293240000000  0.4482880000000  0.4521640000000 1.0
END
