TITL C-2323491-8878-37 4.04591958162864e-07 125000 -371.024998446895 0 0 60 (C1) n - 1
REM
REM in /home/bkarasulu/CARBON/AIRSS/Generating-Clusters/LCBOP/Higher-Symm/Only-C60/SD-CG/FIRE-HFTN
REM
REM
REM
REM
REM
REM ./C.cell (50c204cfd26239f34c78669fe23a5462)
REM
REM compiler GCC version 9.2.1 20190827 (Red Hat 9.2.1-1)
REM options -cpp -mtune=generic -march=x86-64 -g -O0 -fpre-include=/usr/include/finclude/math-vector-fortran.h
REM seed 2052591633 -288934844 -1909277489 351250890 -847017212 2077563690 2066660327 518851132 2098580801 -1382390342 995229365 -2145593207 42995359 709385030 1151733887 -874740811 -1861949901 -1122845550 -1209715338 -525567740 1122206782 269883723 2030055770 1895312769 -1708133125 -2114266128 2079538908 -100348151 -1148299487 -1657916918 -810720746 -107052159 193472974
REM
CELL 1.54180   50.00000   50.00000   50.00000   90.00000   90.00000   90.00000
LATT -1
SFAC C  
C      1  0.5397710000000  0.4648310000000  0.5168050000000 1.0
C      1  0.5187400000000  0.4528360000000  0.4664700000000 1.0
C      1  0.4617270000000  0.4643000000000  0.4766180000000 1.0
C      1  0.4778070000000  0.4636680000000  0.5316620000000 1.0
C      1  0.5394620000000  0.5375810000000  0.5146780000000 1.0
C      1  0.5166900000000  0.5452800000000  0.4638550000000 1.0
C      1  0.4613500000000  0.5331470000000  0.4735780000000 1.0
C      1  0.4850170000000  0.5361920000000  0.5340930000000 1.0
C      1  0.4644790000000  0.4951920000000  0.5735750000000 1.0
C      1  0.5753370000000  0.4976100000000  0.5317790000000 1.0
C      1  0.5181550000000  0.5218670000000  0.4095860000000 1.0
C      1  0.3880910000000  0.5179900000000  0.5436010000000 1.0
C      1  0.4895440000000  0.4917580000000  0.5824810000000 1.0
C      1  0.5834900000000  0.4917790000000  0.5066540000000 1.0
C      1  0.5261090000000  0.4987720000000  0.4243620000000 1.0
C      1  0.3850840000000  0.4911720000000  0.5426980000000 1.0
C      1  0.5289530000000  0.5214270000000  0.5840950000000 1.0
C      1  0.5844350000000  0.5172240000000  0.4648740000000 1.0
C      1  0.4930020000000  0.5320780000000  0.4076480000000 1.0
C      1  0.4110370000000  0.5321650000000  0.5438110000000 1.0
C      1  0.5172990000000  0.4951370000000  0.5804530000000 1.0
C      1  0.5808560000000  0.4918350000000  0.4784050000000 1.0
C      1  0.5055540000000  0.4791740000000  0.4240350000000 1.0
C      1  0.4043740000000  0.4723340000000  0.5419390000000 1.0
C      1  0.4500190000000  0.4579670000000  0.5259300000000 1.0
C      1  0.5278890000000  0.4620870000000  0.5426230000000 1.0
C      1  0.5475320000000  0.4535450000000  0.4705070000000 1.0
C      1  0.4729430000000  0.4558670000000  0.4510210000000 1.0
C      1  0.4572820000000  0.5384360000000  0.5264040000000 1.0
C      1  0.5335460000000  0.5455750000000  0.5415260000000 1.0
C      1  0.5450520000000  0.5461070000000  0.4657000000000 1.0
C      1  0.4699890000000  0.5453240000000  0.4482340000000 1.0
C      1  0.4705280000000  0.5278180000000  0.4249640000000 1.0
C      1  0.4381390000000  0.5242950000000  0.5425810000000 1.0
C      1  0.5454050000000  0.5286530000000  0.5613650000000 1.0
C      1  0.5598420000000  0.5255930000000  0.4519990000000 1.0
C      1  0.4777880000000  0.4767550000000  0.4313790000000 1.0
C      1  0.4324430000000  0.4743030000000  0.5416490000000 1.0
C      1  0.5356680000000  0.4823250000000  0.5611520000000 1.0
C      1  0.5602600000000  0.4780750000000  0.4611160000000 1.0
C      1  0.5094310000000  0.4750680000000  0.4822870000000 1.0
C      1  0.4809570000000  0.4847720000000  0.4871940000000 1.0
C      1  0.4823890000000  0.4881730000000  0.5174690000000 1.0
C      1  0.5278990000000  0.4863440000000  0.5014270000000 1.0
C      1  0.5071200000000  0.5241890000000  0.4804560000000 1.0
C      1  0.4811340000000  0.5127480000000  0.4774280000000 1.0
C      1  0.4965870000000  0.5118580000000  0.5245040000000 1.0
C      1  0.5211270000000  0.5153930000000  0.5061080000000 1.0
C      1  0.5055420000000  0.5531340000000  0.5446650000000 1.0
C      1  0.5528210000000  0.5506630000000  0.4932110000000 1.0
C      1  0.4953030000000  0.5593780000000  0.4515250000000 1.0
C      1  0.4514850000000  0.5430500000000  0.4984050000000 1.0
C      1  0.5009470000000  0.4523110000000  0.5430350000000 1.0
C      1  0.5532780000000  0.4473630000000  0.4984920000000 1.0
C      1  0.4969060000000  0.4395870000000  0.4542080000000 1.0
C      1  0.4457580000000  0.4532780000000  0.4976550000000 1.0
C      1  0.5476910000000  0.4994000000000  0.4432830000000 1.0
C      1  0.4444590000000  0.4981530000000  0.5537780000000 1.0
C      1  0.4624630000000  0.5003760000000  0.4270070000000 1.0
C      1  0.5560130000000  0.5022850000000  0.5519570000000 1.0
END
