TITL C-2323491-8878-161 0.0248289181509151 125000 -361.031196397748 0 0 60 (D2) n - 1
REM
REM in /home/bkarasulu/CARBON/AIRSS/Generating-Clusters/LCBOP/Higher-Symm/Only-C60/SD-CG/FIRE-HFTN
REM
REM
REM
REM
REM
REM ./C.cell (50c204cfd26239f34c78669fe23a5462)
REM
REM compiler GCC version 9.2.1 20190827 (Red Hat 9.2.1-1)
REM options -cpp -mtune=generic -march=x86-64 -g -O0 -fpre-include=/usr/include/finclude/math-vector-fortran.h
REM seed -616749250 1584985271 -329448718 866239999 499260310 -1044999081 -240678816 -1661002985 1500897822 371518296 1291171035 -1083416063 -827950262 -1855008040 2048603098 -1906727938 -1556316576 -29206842 635588708 1572827878 1456092616 -1498216395 -1442669511 -1828635530 -662009394 -14211203 -836598267 -621345437 -662555352 1116536022 448883866 765375458 -1677645841
REM
CELL 1.54180   50.00000   50.00000   50.00000   90.00000   90.00000   90.00000
LATT -1
SFAC C  
C      1  0.5144350000000  0.5237500000000  0.5956160000000 1.0
C      1  0.4855650000000  0.5237500000000  0.4043840000000 1.0
C      1  0.4855660000000  0.4762500000000  0.5956160000000 1.0
C      1  0.5144330000000  0.4762500000000  0.4043840000000 1.0
C      1  0.4167180000000  0.5084520000000  0.5106960000000 1.0
C      1  0.5832820000000  0.5084520000000  0.4893040000000 1.0
C      1  0.5832830000000  0.4915480000000  0.5106950000000 1.0
C      1  0.4167170000000  0.4915480000000  0.4893050000000 1.0
C      1  0.5594310000000  0.5176780000000  0.4769090000000 1.0
C      1  0.4405690000000  0.5176780000000  0.5230920000000 1.0
C      1  0.4405690000000  0.4823220000000  0.4769100000000 1.0
C      1  0.5594310000000  0.4823220000000  0.5230900000000 1.0
C      1  0.4864750000000  0.5251460000000  0.5903010000000 1.0
C      1  0.5135250000000  0.5251460000000  0.4096990000000 1.0
C      1  0.5135270000000  0.4748540000000  0.5903010000000 1.0
C      1  0.4864730000000  0.4748540000000  0.4096990000000 1.0
C      1  0.4639610000000  0.5128840000000  0.5069590000000 1.0
C      1  0.5360390000000  0.5128840000000  0.4930410000000 1.0
C      1  0.5360390000000  0.4871160000000  0.5069580000000 1.0
C      1  0.4639610000000  0.4871160000000  0.4930420000000 1.0
C      1  0.4591170000000  0.5635720000000  0.3786280000000 1.0
C      1  0.5408830000000  0.5635720000000  0.6213720000000 1.0
C      1  0.5408810000000  0.4364280000000  0.3786270000000 1.0
C      1  0.4591190000000  0.4364280000000  0.6213730000000 1.0
C      1  0.5495750000000  0.4992480000000  0.5686180000000 1.0
C      1  0.4504250000000  0.4992490000000  0.4313820000000 1.0
C      1  0.4504260000000  0.5007520000000  0.5686190000000 1.0
C      1  0.5495740000000  0.5007510000000  0.4313810000000 1.0
C      1  0.4723800000000  0.4998960000000  0.5867810000000 1.0
C      1  0.5276200000000  0.4998960000000  0.4132190000000 1.0
C      1  0.5276220000000  0.5001040000000  0.5867810000000 1.0
C      1  0.4723780000000  0.5001040000000  0.4132190000000 1.0
C      1  0.4720280000000  0.4559740000000  0.6089970000000 1.0
C      1  0.5279720000000  0.4559740000000  0.3910030000000 1.0
C      1  0.5279750000000  0.5440260000000  0.6089970000000 1.0
C      1  0.4720260000000  0.5440260000000  0.3910030000000 1.0
C      1  0.4440790000000  0.5222970000000  0.5507680000000 1.0
C      1  0.5559210000000  0.5222970000000  0.4492320000000 1.0
C      1  0.5559220000000  0.4777030000000  0.5507670000000 1.0
C      1  0.4440780000000  0.4777030000000  0.4492330000000 1.0
C      1  0.5535790000000  0.5828330000000  0.6335160000000 1.0
C      1  0.4464220000000  0.5828340000000  0.3664840000000 1.0
C      1  0.4464240000000  0.4171670000000  0.6335170000000 1.0
C      1  0.5535760000000  0.4171670000000  0.3664830000000 1.0
C      1  0.4902940000000  0.5248460000000  0.5109570000000 1.0
C      1  0.5097060000000  0.5248460000000  0.4890430000000 1.0
C      1  0.5097060000000  0.4751540000000  0.5109570000000 1.0
C      1  0.4902930000000  0.4751540000000  0.4890430000000 1.0
C      1  0.5008360000000  0.5137330000000  0.4639990000000 1.0
C      1  0.4991650000000  0.5137330000000  0.5360010000000 1.0
C      1  0.4991640000000  0.4862670000000  0.4639990000000 1.0
C      1  0.5008360000000  0.4862670000000  0.5360010000000 1.0
C      1  0.5270620000000  0.5479170000000  0.4199480000000 1.0
C      1  0.4729380000000  0.5479170000000  0.5800520000000 1.0
C      1  0.4729370000000  0.4520830000000  0.4199480000000 1.0
C      1  0.5270630000000  0.4520830000000  0.5800520000000 1.0
C      1  0.5467910000000  0.4528490000000  0.5612720000000 1.0
C      1  0.4532090000000  0.4528490000000  0.4387280000000 1.0
C      1  0.4532100000000  0.5471510000000  0.5612730000000 1.0
C      1  0.5467900000000  0.5471510000000  0.4387270000000 1.0
END
