TITL C-2323490-8774-332 5.07427598105942e-05 125000 -351.723665514867 0 0 60 (C1) n - 1
REM
REM in /home/bkarasulu/CARBON/AIRSS/Generating-Clusters/LCBOP/Higher-Symm/Only-C60/SD-CG/FIRE-HFTN
REM
REM
REM
REM
REM
REM ./C.cell (50c204cfd26239f34c78669fe23a5462)
REM
REM compiler GCC version 9.2.1 20190827 (Red Hat 9.2.1-1)
REM options -cpp -mtune=generic -march=x86-64 -g -O0 -fpre-include=/usr/include/finclude/math-vector-fortran.h
REM seed 1898695523 735138549 1913167219 -1080195089 294454027 1696618625 -488209810 197941796 1780916972 -227020891 1800081615 -1759861502 436372290 -1838986073 -2125168655 -1122452128 1096413958 -2041725378 1767282950 1680018877 1581498339 413789204 1913214744 1968538598 -165425663 -1820202037 993287514 580039017 1498068307 269781389 -745457802 1236184200 1031468586
REM
CELL 1.54180   50.00000   50.00000   50.00000   90.00000   90.00000   90.00000
LATT -1
SFAC C  
C      1  0.5154710000000  0.4324470000000  0.4808920000000 1.0
C      1  0.5160030000000  0.5507430000000  0.4550450000000 1.0
C      1  0.5172340000000  0.5141450000000  0.5615340000000 1.0
C      1  0.4599860000000  0.5502540000000  0.5093730000000 1.0
C      1  0.4611930000000  0.4676800000000  0.5394350000000 1.0
C      1  0.4615120000000  0.4802940000000  0.4496440000000 1.0
C      1  0.5130000000000  0.4720100000000  0.5069050000000 1.0
C      1  0.5069320000000  0.5100600000000  0.4842300000000 1.0
C      1  0.5082600000000  0.5179290000000  0.5104400000000 1.0
C      1  0.5298020000000  0.5635710000000  0.4772460000000 1.0
C      1  0.5322490000000  0.4910950000000  0.5519190000000 1.0
C      1  0.5321930000000  0.4516230000000  0.4663850000000 1.0
C      1  0.6019230000000  0.4710550000000  0.5507920000000 1.0
C      1  0.6029930000000  0.4388040000000  0.4849210000000 1.0
C      1  0.6032060000000  0.5681930000000  0.4652290000000 1.0
C      1  0.5198090000000  0.4520290000000  0.5264250000000 1.0
C      1  0.5269390000000  0.5007100000000  0.4640730000000 1.0
C      1  0.5240230000000  0.5419240000000  0.5193920000000 1.0
C      1  0.5801130000000  0.5616820000000  0.4753970000000 1.0
C      1  0.5796900000000  0.4822070000000  0.5430210000000 1.0
C      1  0.5804870000000  0.4510450000000  0.4801580000000 1.0
C      1  0.4867490000000  0.4377100000000  0.4734430000000 1.0
C      1  0.4863120000000  0.5525660000000  0.4597580000000 1.0
C      1  0.4885890000000  0.5066050000000  0.5659910000000 1.0
C      1  0.5236520000000  0.5393560000000  0.5492250000000 1.0
C      1  0.5217350000000  0.4286930000000  0.5094390000000 1.0
C      1  0.5277750000000  0.5254460000000  0.4463150000000 1.0
C      1  0.4848930000000  0.4622820000000  0.4549630000000 1.0
C      1  0.4817260000000  0.5588880000000  0.4902450000000 1.0
C      1  0.4846100000000  0.4776090000000  0.5560270000000 1.0
C      1  0.4555810000000  0.5409050000000  0.5821090000000 1.0
C      1  0.4525590000000  0.4114740000000  0.4983460000000 1.0
C      1  0.4571010000000  0.5466570000000  0.4196310000000 1.0
C      1  0.4698880000000  0.5364940000000  0.4414180000000 1.0
C      1  0.4696080000000  0.5288910000000  0.5621430000000 1.0
C      1  0.4678420000000  0.4337850000000  0.4953410000000 1.0
C      1  0.4335270000000  0.5397120000000  0.5029630000000 1.0
C      1  0.4339580000000  0.4772410000000  0.5337960000000 1.0
C      1  0.4348210000000  0.4809950000000  0.4625630000000 1.0
C      1  0.4867470000000  0.4746670000000  0.5022020000000 1.0
C      1  0.4810770000000  0.5103040000000  0.4749540000000 1.0
C      1  0.4841120000000  0.5148770000000  0.5232040000000 1.0
C      1  0.4694970000000  0.5087070000000  0.4493340000000 1.0
C      1  0.4689210000000  0.5362150000000  0.5341010000000 1.0
C      1  0.4692170000000  0.4557490000000  0.5137300000000 1.0
C      1  0.5139410000000  0.4673090000000  0.5505060000000 1.0
C      1  0.5141820000000  0.4726510000000  0.4541810000000 1.0
C      1  0.5104390000000  0.5632410000000  0.5003800000000 1.0
C      1  0.5555270000000  0.4933350000000  0.5339440000000 1.0
C      1  0.5562670000000  0.4639260000000  0.4764050000000 1.0
C      1  0.5556490000000  0.5540320000000  0.4857260000000 1.0
C      1  0.4232500000000  0.5073670000000  0.4634260000000 1.0
C      1  0.4210780000000  0.5263340000000  0.5250780000000 1.0
C      1  0.4222930000000  0.4649680000000  0.5104520000000 1.0
C      1  0.4241910000000  0.5032500000000  0.5387510000000 1.0
C      1  0.4254910000000  0.4644870000000  0.4835770000000 1.0
C      1  0.4253020000000  0.5302210000000  0.4776630000000 1.0
C      1  0.5560310000000  0.5063380000000  0.5073300000000 1.0
C      1  0.5514350000000  0.4921700000000  0.4818020000000 1.0
C      1  0.5514090000000  0.5350460000000  0.5070840000000 1.0
END
