TITL C-3909787-7025-21 10.5768370420762 125000 -18869.3200679221 0 0 127 (C1) n - 1
REM
REM in /home/nfs/bkarasulu/CARBON/AIRSS/Generating-Clusters/ReaxFF-fromJPCA2015/Units_Real/with-SteepDescent/Only-C1/SD-CG/Try1-3A/FIRE-CG
REM
REM
REM
REM
REM
REM ./C.cell (11c1c37f851c82e70ff6c80c92926a4b)
REM
REM compiler GCC version 9.2.1 20190827 (Red Hat 9.2.1-1)
REM options -cpp -mtune=generic -march=x86-64 -g -O0 -fpre-include=/usr/include/finclude/math-vector-fortran.h
REM seed 635482062 1803822743 1069319910 -717983068 -1383671131 -1150995557 63113471 -2003051115 -791962320 1191573702 1053104443 951399346 -1283615969 79518924 -1010133480 -444006547 1488842603 -1907725717 -758947392 -1349392900 1050775969 -922554175 -156298474 -767632160 287465046 -871909778 -667283046 91043150 -1352735111 1304612017 1467431706 1025736245 -798217554
REM
CELL 1.54180   50.00000   50.00000   50.00000   90.00000   90.00000   90.00000
LATT -1
SFAC C  
C      1  0.4426150000000  0.4980180000000  0.4193930000000 1.0
C      1  0.5109180000000  0.4701670000000  0.5586870000000 1.0
C      1  0.5244270000000  0.5788930000000  0.4457340000000 1.0
C      1  0.4353420000000  0.5083260000000  0.5665910000000 1.0
C      1  0.5428540000000  0.5273370000000  0.5845490000000 1.0
C      1  0.5281250000000  0.4416910000000  0.4187000000000 1.0
C      1  0.5386420000000  0.4223820000000  0.5357800000000 1.0
C      1  0.5003220000000  0.4447240000000  0.4147120000000 1.0
C      1  0.5304930000000  0.4610630000000  0.5112840000000 1.0
C      1  0.4879360000000  0.5008460000000  0.4700000000000 1.0
C      1  0.4388060000000  0.4350650000000  0.5556880000000 1.0
C      1  0.5015020000000  0.5732200000000  0.5760500000000 1.0
C      1  0.4797830000000  0.5239760000000  0.4457380000000 1.0
C      1  0.5153880000000  0.5535580000000  0.5107840000000 1.0
C      1  0.5103080000000  0.5755290000000  0.5282080000000 1.0
C      1  0.4906590000000  0.5138290000000  0.5429760000000 1.0
C      1  0.5119050000000  0.4145690000000  0.5448470000000 1.0
C      1  0.4244450000000  0.4677760000000  0.4838400000000 1.0
C      1  0.5070610000000  0.6013950000000  0.5120850000000 1.0
C      1  0.4625020000000  0.5697480000000  0.5379780000000 1.0
C      1  0.4373780000000  0.5195920000000  0.4877350000000 1.0
C      1  0.4949640000000  0.5495130000000  0.5929720000000 1.0
C      1  0.5315220000000  0.5184220000000  0.5376700000000 1.0
C      1  0.5120440000000  0.5273940000000  0.5565440000000 1.0
C      1  0.5572900000000  0.4230210000000  0.4856640000000 1.0
C      1  0.5393900000000  0.4313040000000  0.5081310000000 1.0
C      1  0.5203400000000  0.6046740000000  0.4854870000000 1.0
C      1  0.4656840000000  0.5444250000000  0.5933630000000 1.0
C      1  0.4377790000000  0.4252230000000  0.4814500000000 1.0
C      1  0.5122540000000  0.5346710000000  0.4459500000000 1.0
C      1  0.5064370000000  0.5864680000000  0.4675970000000 1.0
C      1  0.4587730000000  0.4982280000000  0.4905280000000 1.0
C      1  0.4666520000000  0.4250410000000  0.5523810000000 1.0
C      1  0.5912490000000  0.5184600000000  0.5314450000000 1.0
C      1  0.4606410000000  0.5165700000000  0.5824610000000 1.0
C      1  0.5579010000000  0.4877240000000  0.4134640000000 1.0
C      1  0.4792420000000  0.4594790000000  0.4890940000000 1.0
C      1  0.4533540000000  0.4510960000000  0.4376080000000 1.0
C      1  0.5486200000000  0.5100540000000  0.4626620000000 1.0
C      1  0.4063710000000  0.4894230000000  0.5305740000000 1.0
C      1  0.4425710000000  0.4639420000000  0.5550550000000 1.0
C      1  0.5379560000000  0.5423940000000  0.4087650000000 1.0
C      1  0.5295620000000  0.5122260000000  0.4416550000000 1.0
C      1  0.5242180000000  0.3991730000000  0.4753630000000 1.0
C      1  0.4752840000000  0.4576380000000  0.4176060000000 1.0
C      1  0.4853410000000  0.5022510000000  0.5896530000000 1.0
C      1  0.5002700000000  0.4781730000000  0.4549120000000 1.0
C      1  0.4594800000000  0.5443500000000  0.4533010000000 1.0
C      1  0.4191850000000  0.4824580000000  0.4592330000000 1.0
C      1  0.5248120000000  0.5460390000000  0.4705990000000 1.0
C      1  0.5505030000000  0.5158300000000  0.4064010000000 1.0
C      1  0.5889800000000  0.4908370000000  0.4882980000000 1.0
C      1  0.4361580000000  0.4736630000000  0.4367200000000 1.0
C      1  0.5479620000000  0.5920940000000  0.4856650000000 1.0
C      1  0.5692940000000  0.5447550000000  0.4944570000000 1.0
C      1  0.4172690000000  0.5106570000000  0.4668380000000 1.0
C      1  0.5574450000000  0.4445660000000  0.5455450000000 1.0
C      1  0.4035710000000  0.4597680000000  0.5299680000000 1.0
C      1  0.4844070000000  0.4730280000000  0.5942660000000 1.0
C      1  0.4049750000000  0.4741300000000  0.5050040000000 1.0
C      1  0.4651140000000  0.4730880000000  0.5342450000000 1.0
C      1  0.5346100000000  0.4700940000000  0.4140340000000 1.0
C      1  0.4619660000000  0.5777690000000  0.5071830000000 1.0
C      1  0.4552860000000  0.4311600000000  0.4601300000000 1.0
C      1  0.5469410000000  0.5711150000000  0.4636940000000 1.0
C      1  0.5283440000000  0.5665400000000  0.5735600000000 1.0
C      1  0.4894010000000  0.4858320000000  0.5461340000000 1.0
C      1  0.4151580000000  0.5572920000000  0.5031090000000 1.0
C      1  0.5006340000000  0.4517570000000  0.5780810000000 1.0
C      1  0.5433280000000  0.4648830000000  0.4683040000000 1.0
C      1  0.5798340000000  0.4526170000000  0.5305610000000 1.0
C      1  0.5115710000000  0.5238420000000  0.5861340000000 1.0
C      1  0.4279730000000  0.4278090000000  0.5054190000000 1.0
C      1  0.5812220000000  0.4625530000000  0.5005350000000 1.0
C      1  0.5148900000000  0.4883790000000  0.4290990000000 1.0
C      1  0.5837590000000  0.5253520000000  0.5572900000000 1.0
C      1  0.5024790000000  0.5589120000000  0.4848090000000 1.0
C      1  0.4631800000000  0.4980640000000  0.5179370000000 1.0
C      1  0.5100390000000  0.3960530000000  0.4972570000000 1.0
C      1  0.4979900000000  0.4024940000000  0.5213450000000 1.0
C      1  0.4939440000000  0.4265950000000  0.5648040000000 1.0
C      1  0.4534300000000  0.4717900000000  0.4870700000000 1.0
C      1  0.4560850000000  0.4734180000000  0.5932760000000 1.0
C      1  0.5609370000000  0.5095950000000  0.5705950000000 1.0
C      1  0.5235820000000  0.4303400000000  0.4467110000000 1.0
C      1  0.5598890000000  0.5816140000000  0.5082830000000 1.0
C      1  0.4200170000000  0.4350150000000  0.5317030000000 1.0
C      1  0.4261670000000  0.5194890000000  0.4266820000000 1.0
C      1  0.5864270000000  0.5328730000000  0.4522030000000 1.0
C      1  0.5197190000000  0.5571370000000  0.4268240000000 1.0
C      1  0.4709760000000  0.5078910000000  0.4222010000000 1.0
C      1  0.5431110000000  0.4134210000000  0.4609830000000 1.0
C      1  0.4714170000000  0.5257040000000  0.5235710000000 1.0
C      1  0.5868810000000  0.4500110000000  0.4559270000000 1.0
C      1  0.5030610000000  0.4736540000000  0.5006830000000 1.0
C      1  0.5731640000000  0.5507960000000  0.5497060000000 1.0
C      1  0.5217360000000  0.5244530000000  0.5102130000000 1.0
C      1  0.5751250000000  0.5540260000000  0.4671700000000 1.0
C      1  0.5041860000000  0.5012990000000  0.4947890000000 1.0
C      1  0.4690950000000  0.4400030000000  0.5276790000000 1.0
C      1  0.5374110000000  0.4692790000000  0.5438220000000 1.0
C      1  0.5906620000000  0.5053350000000  0.5097560000000 1.0
C      1  0.5825820000000  0.4377950000000  0.4806650000000 1.0
C      1  0.5711870000000  0.5602270000000  0.5203800000000 1.0
C      1  0.4278590000000  0.5345450000000  0.5190540000000 1.0
C      1  0.4828940000000  0.5966040000000  0.4989390000000 1.0
C      1  0.4786150000000  0.4212870000000  0.5079450000000 1.0
C      1  0.4888490000000  0.5752560000000  0.5485640000000 1.0
C      1  0.4865620000000  0.4853560000000  0.4147600000000 1.0
C      1  0.5521680000000  0.4722780000000  0.4941530000000 1.0
C      1  0.5438020000000  0.5285400000000  0.4858140000000 1.0
C      1  0.5524300000000  0.5532170000000  0.5721030000000 1.0
C      1  0.4559400000000  0.5398760000000  0.4795230000000 1.0
C      1  0.5776890000000  0.4827900000000  0.4348160000000 1.0
C      1  0.4221900000000  0.5119260000000  0.5409060000000 1.0
C      1  0.5637310000000  0.4596220000000  0.4454480000000 1.0
C      1  0.4315240000000  0.5795080000000  0.4968490000000 1.0
C      1  0.5486530000000  0.4972760000000  0.5472100000000 1.0
C      1  0.4333660000000  0.4809050000000  0.5774760000000 1.0
C      1  0.4108010000000  0.5314420000000  0.4465040000000 1.0
C      1  0.5163390000000  0.4550380000000  0.4622260000000 1.0
C      1  0.4312290000000  0.5528900000000  0.4505010000000 1.0
C      1  0.4780090000000  0.4320330000000  0.4794850000000 1.0
C      1  0.5775920000000  0.5029270000000  0.4591240000000 1.0
C      1  0.4746280000000  0.5482090000000  0.4972060000000 1.0
C      1  0.4195390000000  0.5663070000000  0.4744130000000 1.0
C      1  0.4499220000000  0.5439380000000  0.5367170000000 1.0
END
