TITL C-3909652-3393-22 6.28396204259947 125000 -17843.1023890596 0 0 119 (C1) n - 1
REM
REM in /home/nfs/bkarasulu/CARBON/AIRSS/Generating-Clusters/ReaxFF-fromJPCA2015/Units_Real/with-SteepDescent/Only-C1/SD-CG/Try1-3A/FIRE-CG
REM
REM
REM
REM
REM
REM ./C.cell (11c1c37f851c82e70ff6c80c92926a4b)
REM
REM compiler GCC version 9.2.1 20190827 (Red Hat 9.2.1-1)
REM options -cpp -mtune=generic -march=x86-64 -g -O0 -fpre-include=/usr/include/finclude/math-vector-fortran.h
REM seed -253412901 63052949 1822182447 559368568 2135763310 -44128853 1997302187 1658056092 533453955 1464397799 1290642346 -1474764082 746655234 1888873498 -1899274710 1787206152 -1984042345 -1181889388 -649946290 2051477542 984366710 -1025522700 1453802526 1283507074 1257548725 372891079 1666367272 -24810266 107982869 1925106935 -1118998630 -2134379470 142665609
REM
CELL 1.54180   50.00000   50.00000   50.00000   90.00000   90.00000   90.00000
LATT -1
SFAC C  
C      1  0.4755870000000  0.4834250000000  0.4046530000000 1.0
C      1  0.5585080000000  0.5119770000000  0.5558710000000 1.0
C      1  0.4602540000000  0.5597770000000  0.4333690000000 1.0
C      1  0.4432620000000  0.5703120000000  0.4820720000000 1.0
C      1  0.4970970000000  0.4803300000000  0.5483120000000 1.0
C      1  0.5623920000000  0.4494700000000  0.5624070000000 1.0
C      1  0.4829580000000  0.5340250000000  0.4724760000000 1.0
C      1  0.4384200000000  0.5475260000000  0.4488430000000 1.0
C      1  0.4949160000000  0.4325880000000  0.5206270000000 1.0
C      1  0.5408290000000  0.5608530000000  0.5860800000000 1.0
C      1  0.4195450000000  0.5587040000000  0.4694800000000 1.0
C      1  0.4693200000000  0.4930980000000  0.5955920000000 1.0
C      1  0.5169820000000  0.4850270000000  0.4094060000000 1.0
C      1  0.4575690000000  0.5465540000000  0.4714620000000 1.0
C      1  0.4522570000000  0.5172900000000  0.5937930000000 1.0
C      1  0.5505710000000  0.5682230000000  0.4487740000000 1.0
C      1  0.4179960000000  0.5076580000000  0.5270140000000 1.0
C      1  0.4771110000000  0.5785940000000  0.4487780000000 1.0
C      1  0.4867710000000  0.4560670000000  0.5663920000000 1.0
C      1  0.5184060000000  0.5866950000000  0.4785110000000 1.0
C      1  0.4217680000000  0.5353660000000  0.5194970000000 1.0
C      1  0.4675070000000  0.4692210000000  0.4844500000000 1.0
C      1  0.4774560000000  0.4414650000000  0.5421750000000 1.0
C      1  0.4611850000000  0.4929800000000  0.4991680000000 1.0
C      1  0.4531400000000  0.4582280000000  0.5352440000000 1.0
C      1  0.5142670000000  0.4008330000000  0.4692700000000 1.0
C      1  0.4969820000000  0.5427510000000  0.4027510000000 1.0
C      1  0.5112930000000  0.5028170000000  0.5077970000000 1.0
C      1  0.4211630000000  0.4981740000000  0.4530910000000 1.0
C      1  0.5771130000000  0.4893240000000  0.4486530000000 1.0
C      1  0.4644960000000  0.5883070000000  0.4733100000000 1.0
C      1  0.5763420000000  0.5041870000000  0.4917300000000 1.0
C      1  0.5520390000000  0.5579680000000  0.4989070000000 1.0
C      1  0.4594670000000  0.5708370000000  0.5398030000000 1.0
C      1  0.4349280000000  0.5539310000000  0.5395140000000 1.0
C      1  0.5245160000000  0.5593790000000  0.4388500000000 1.0
C      1  0.5527110000000  0.4229120000000  0.4822340000000 1.0
C      1  0.4250600000000  0.4974780000000  0.5540430000000 1.0
C      1  0.5167410000000  0.5305770000000  0.4251020000000 1.0
C      1  0.4144670000000  0.5382250000000  0.4905500000000 1.0
C      1  0.4875070000000  0.5686200000000  0.5495960000000 1.0
C      1  0.5544620000000  0.4883190000000  0.4289160000000 1.0
C      1  0.4710800000000  0.5401040000000  0.4142140000000 1.0
C      1  0.5461470000000  0.5786660000000  0.4775020000000 1.0
C      1  0.5486830000000  0.4602830000000  0.4390700000000 1.0
C      1  0.5082220000000  0.5409420000000  0.4851540000000 1.0
C      1  0.5364230000000  0.5317170000000  0.5939420000000 1.0
C      1  0.4167360000000  0.4667680000000  0.4880150000000 1.0
C      1  0.4690620000000  0.5088030000000  0.4243640000000 1.0
C      1  0.4395200000000  0.4517570000000  0.4207580000000 1.0
C      1  0.4922760000000  0.5066390000000  0.5590560000000 1.0
C      1  0.4775500000000  0.5838390000000  0.4991500000000 1.0
C      1  0.4124330000000  0.4926490000000  0.5014070000000 1.0
C      1  0.5865620000000  0.5389360000000  0.5236060000000 1.0
C      1  0.4121990000000  0.5115980000000  0.4798610000000 1.0
C      1  0.4358600000000  0.4424450000000  0.5143850000000 1.0
C      1  0.5894220000000  0.4711360000000  0.5265110000000 1.0
C      1  0.4288960000000  0.5174990000000  0.5751890000000 1.0
C      1  0.5349640000000  0.5051990000000  0.4149540000000 1.0
C      1  0.4559030000000  0.4646300000000  0.4071640000000 1.0
C      1  0.4618170000000  0.4707000000000  0.5789770000000 1.0
C      1  0.4356620000000  0.5454570000000  0.5676110000000 1.0
C      1  0.5125970000000  0.5515190000000  0.5903220000000 1.0
C      1  0.4705830000000  0.5135790000000  0.5398120000000 1.0
C      1  0.5384920000000  0.4421850000000  0.5747720000000 1.0
C      1  0.5220520000000  0.4876920000000  0.5875180000000 1.0
C      1  0.5876860000000  0.4502610000000  0.5056070000000 1.0
C      1  0.5381200000000  0.5273510000000  0.5406280000000 1.0
C      1  0.5845170000000  0.5174480000000  0.5411820000000 1.0
C      1  0.5641500000000  0.4504280000000  0.4845700000000 1.0
C      1  0.5336710000000  0.4194150000000  0.4610600000000 1.0
C      1  0.4972550000000  0.4647270000000  0.4121150000000 1.0
C      1  0.5369220000000  0.4647850000000  0.4994410000000 1.0
C      1  0.5323260000000  0.5028070000000  0.5264410000000 1.0
C      1  0.5101300000000  0.4548040000000  0.5088070000000 1.0
C      1  0.5695430000000  0.4628870000000  0.4585030000000 1.0
C      1  0.5908480000000  0.5091710000000  0.4666100000000 1.0
C      1  0.4911610000000  0.4102540000000  0.5015350000000 1.0
C      1  0.4873490000000  0.5547310000000  0.5748440000000 1.0
C      1  0.4259750000000  0.4460930000000  0.4442420000000 1.0
C      1  0.5577870000000  0.4124730000000  0.5302110000000 1.0
C      1  0.5449180000000  0.5067890000000  0.5818280000000 1.0
C      1  0.5167200000000  0.4606050000000  0.5790820000000 1.0
C      1  0.5329170000000  0.5529360000000  0.5263710000000 1.0
C      1  0.5524080000000  0.4243010000000  0.5567540000000 1.0
C      1  0.5485740000000  0.5111750000000  0.4829750000000 1.0
C      1  0.4445970000000  0.5034430000000  0.4390030000000 1.0
C      1  0.5002000000000  0.4790280000000  0.5203770000000 1.0
C      1  0.4665230000000  0.5598380000000  0.5141410000000 1.0
C      1  0.4146270000000  0.4695940000000  0.4596970000000 1.0
C      1  0.4703750000000  0.5087190000000  0.4763890000000 1.0
C      1  0.5455040000000  0.4781760000000  0.5252430000000 1.0
C      1  0.5059310000000  0.5771250000000  0.4530670000000 1.0
C      1  0.4779120000000  0.4311310000000  0.4515870000000 1.0
C      1  0.5274720000000  0.4905290000000  0.4813960000000 1.0
C      1  0.4609160000000  0.5437000000000  0.5834230000000 1.0
C      1  0.5066340000000  0.4923750000000  0.4581070000000 1.0
C      1  0.4962940000000  0.5021730000000  0.5878070000000 1.0
C      1  0.5372650000000  0.5376010000000  0.4812810000000 1.0
C      1  0.5044120000000  0.5306450000000  0.5104580000000 1.0
C      1  0.4788710000000  0.5342810000000  0.5205000000000 1.0
C      1  0.4883340000000  0.4125260000000  0.4719670000000 1.0
C      1  0.5425030000000  0.4074860000000  0.5047290000000 1.0
C      1  0.4593850000000  0.4905420000000  0.5270630000000 1.0
C      1  0.4495280000000  0.4359730000000  0.4576030000000 1.0
C      1  0.4451080000000  0.4497570000000  0.4859420000000 1.0
C      1  0.4984030000000  0.5123130000000  0.4401220000000 1.0
C      1  0.5166680000000  0.3958370000000  0.4974970000000 1.0
C      1  0.5933430000000  0.5384140000000  0.4734850000000 1.0
C      1  0.5263110000000  0.4411020000000  0.4429980000000 1.0
C      1  0.4786930000000  0.4846010000000  0.4628240000000 1.0
C      1  0.5774000000000  0.4266480000000  0.5157950000000 1.0
C      1  0.5107320000000  0.5713790000000  0.5302120000000 1.0
C      1  0.5664660000000  0.4724800000000  0.5451020000000 1.0
C      1  0.5905530000000  0.4987390000000  0.5182060000000 1.0
C      1  0.4987080000000  0.4447510000000  0.4357260000000 1.0
C      1  0.5831230000000  0.5514580000000  0.4986760000000 1.0
C      1  0.4402890000000  0.4727500000000  0.5599350000000 1.0
C      1  0.5054480000000  0.5866130000000  0.5049590000000 1.0
END
