TITL C-3909648-4458-25 15.0330368551567 125000 -13863.6051786887 0 0 94 (C1) n - 1
REM
REM in /home/nfs/bkarasulu/CARBON/AIRSS/Generating-Clusters/ReaxFF-fromJPCA2015/Units_Real/with-SteepDescent/Only-C1/SD-CG/Try1-3A/FIRE-CG
REM
REM
REM
REM
REM
REM ./C.cell (11c1c37f851c82e70ff6c80c92926a4b)
REM
REM compiler GCC version 9.2.1 20190827 (Red Hat 9.2.1-1)
REM options -cpp -mtune=generic -march=x86-64 -g -O0 -fpre-include=/usr/include/finclude/math-vector-fortran.h
REM seed 1046336521 -25599347 -949250678 -322571512 -80179921 1811516050 -229249819 1031433387 823541747 -1397632785 1572995566 -882285200 -1301602823 -471558743 998990107 1764432481 372826607 1171730707 25535529 -1286251757 -295588469 937142793 -121290920 122223684 1033645503 -1498043509 -862754952 1570415775 -830107824 -1493666442 310592632 -264700151 -882310839
REM
CELL 1.54180   50.00000   50.00000   50.00000   90.00000   90.00000   90.00000
LATT -1
SFAC C  
C      1  0.5766700000000  0.4657510000000  0.4886450000000 1.0
C      1  0.5211770000000  0.4432280000000  0.5475780000000 1.0
C      1  0.4561650000000  0.5849320000000  0.5146050000000 1.0
C      1  0.4133850000000  0.4846330000000  0.5107630000000 1.0
C      1  0.5523460000000  0.5061860000000  0.4337780000000 1.0
C      1  0.5058380000000  0.4937260000000  0.5820910000000 1.0
C      1  0.4710800000000  0.4811180000000  0.4762450000000 1.0
C      1  0.4429730000000  0.5107620000000  0.4503610000000 1.0
C      1  0.4174260000000  0.4784610000000  0.4833510000000 1.0
C      1  0.4851480000000  0.4350170000000  0.4247010000000 1.0
C      1  0.4824940000000  0.4187570000000  0.4497190000000 1.0
C      1  0.5365430000000  0.4574960000000  0.4682500000000 1.0
C      1  0.5340210000000  0.5789860000000  0.5176400000000 1.0
C      1  0.4491020000000  0.4321720000000  0.4853980000000 1.0
C      1  0.5750460000000  0.4945070000000  0.5555100000000 1.0
C      1  0.4907170000000  0.5913720000000  0.4925210000000 1.0
C      1  0.5329090000000  0.4899340000000  0.5781610000000 1.0
C      1  0.4848530000000  0.4623330000000  0.4942330000000 1.0
C      1  0.4343330000000  0.5507240000000  0.4901430000000 1.0
C      1  0.4802280000000  0.4852950000000  0.4032890000000 1.0
C      1  0.5984010000000  0.5178930000000  0.5171180000000 1.0
C      1  0.5426140000000  0.4266290000000  0.5031040000000 1.0
C      1  0.5043180000000  0.5143730000000  0.4931020000000 1.0
C      1  0.4714010000000  0.5766690000000  0.4780060000000 1.0
C      1  0.4208820000000  0.5257640000000  0.4910130000000 1.0
C      1  0.5558520000000  0.5113650000000  0.5684900000000 1.0
C      1  0.4291900000000  0.4523460000000  0.4915750000000 1.0
C      1  0.4261770000000  0.4603880000000  0.5197610000000 1.0
C      1  0.4617330000000  0.4844250000000  0.5363280000000 1.0
C      1  0.5837840000000  0.5426860000000  0.5190130000000 1.0
C      1  0.5560310000000  0.5302310000000  0.4492130000000 1.0
C      1  0.5074950000000  0.5434080000000  0.4874020000000 1.0
C      1  0.5521350000000  0.4569550000000  0.4379720000000 1.0
C      1  0.5905610000000  0.4931240000000  0.5310430000000 1.0
C      1  0.4486230000000  0.4597890000000  0.5385380000000 1.0
C      1  0.5678280000000  0.4805150000000  0.4407050000000 1.0
C      1  0.5305380000000  0.4969220000000  0.4990220000000 1.0
C      1  0.5470670000000  0.5600830000000  0.5145770000000 1.0
C      1  0.4953810000000  0.4317610000000  0.5388870000000 1.0
C      1  0.4791860000000  0.5034960000000  0.5795720000000 1.0
C      1  0.5205620000000  0.5825210000000  0.4941900000000 1.0
C      1  0.4556690000000  0.4240700000000  0.4599190000000 1.0
C      1  0.4523700000000  0.5575160000000  0.4687880000000 1.0
C      1  0.5203230000000  0.5329280000000  0.5600610000000 1.0
C      1  0.4323410000000  0.5548670000000  0.5476220000000 1.0
C      1  0.4432840000000  0.5607600000000  0.5191790000000 1.0
C      1  0.5566230000000  0.4449530000000  0.4857410000000 1.0
C      1  0.5606830000000  0.5531680000000  0.5349280000000 1.0
C      1  0.5052160000000  0.5491030000000  0.4388560000000 1.0
C      1  0.5669520000000  0.4528670000000  0.5336960000000 1.0
C      1  0.4874690000000  0.5032520000000  0.4707490000000 1.0
C      1  0.4732880000000  0.4846820000000  0.5589660000000 1.0
C      1  0.4452200000000  0.5148860000000  0.5314060000000 1.0
C      1  0.4728560000000  0.5330680000000  0.5767400000000 1.0
C      1  0.5288030000000  0.4967730000000  0.4487890000000 1.0
C      1  0.4802160000000  0.5978690000000  0.5209280000000 1.0
C      1  0.5315920000000  0.4634680000000  0.5660200000000 1.0
C      1  0.4893860000000  0.5086140000000  0.4181900000000 1.0
C      1  0.4706500000000  0.4329930000000  0.5061800000000 1.0
C      1  0.5731710000000  0.5163760000000  0.4703690000000 1.0
C      1  0.5778540000000  0.4873790000000  0.4683310000000 1.0
C      1  0.5343400000000  0.4934930000000  0.5259990000000 1.0
C      1  0.4581470000000  0.5358350000000  0.4465750000000 1.0
C      1  0.4951810000000  0.5481060000000  0.5659680000000 1.0
C      1  0.5534640000000  0.4743480000000  0.5469740000000 1.0
C      1  0.4959000000000  0.5060100000000  0.5198330000000 1.0
C      1  0.5869360000000  0.5302370000000  0.4925630000000 1.0
C      1  0.4944450000000  0.5447420000000  0.4633110000000 1.0
C      1  0.5162890000000  0.5108870000000  0.5401510000000 1.0
C      1  0.4612110000000  0.5386060000000  0.5229940000000 1.0
C      1  0.5305510000000  0.5585530000000  0.4787180000000 1.0
C      1  0.5844280000000  0.4680880000000  0.5165610000000 1.0
C      1  0.5171010000000  0.4135300000000  0.4948850000000 1.0
C      1  0.4558140000000  0.4839050000000  0.4521860000000 1.0
C      1  0.4872820000000  0.5783490000000  0.5398060000000 1.0
C      1  0.4952610000000  0.4163740000000  0.5141870000000 1.0
C      1  0.4836200000000  0.5515470000000  0.5381310000000 1.0
C      1  0.4474370000000  0.4633390000000  0.4326330000000 1.0
C      1  0.4460500000000  0.5422290000000  0.5701700000000 1.0
C      1  0.5444360000000  0.4353470000000  0.5306660000000 1.0
C      1  0.4697740000000  0.4584290000000  0.4125770000000 1.0
C      1  0.4204620000000  0.5108940000000  0.5167200000000 1.0
C      1  0.4298200000000  0.5276100000000  0.5522380000000 1.0
C      1  0.4842140000000  0.4798230000000  0.5190970000000 1.0
C      1  0.5366520000000  0.4854330000000  0.4744310000000 1.0
C      1  0.5335440000000  0.5493090000000  0.4507280000000 1.0
C      1  0.5490170000000  0.5375860000000  0.5586200000000 1.0
C      1  0.4671240000000  0.4388470000000  0.5343600000000 1.0
C      1  0.4473480000000  0.4368260000000  0.4399950000000 1.0
C      1  0.5071770000000  0.4504100000000  0.4763710000000 1.0
C      1  0.5061000000000  0.4229040000000  0.4689090000000 1.0
C      1  0.4236460000000  0.5046790000000  0.4709850000000 1.0
C      1  0.4800060000000  0.5360590000000  0.4266530000000 1.0
C      1  0.5010380000000  0.5013420000000  0.4449360000000 1.0
END
