TITL C-3909648-4458-36 37.6005817983281 125000 -23019.3326317696 0 0 156 (C1) n - 1
REM
REM in /home/nfs/bkarasulu/CARBON/AIRSS/Generating-Clusters/ReaxFF-fromJPCA2015/Units_Real/with-SteepDescent/Only-C1/SD-CG/Try1-3A/FIRE-CG
REM
REM
REM
REM
REM
REM ./C.cell (11c1c37f851c82e70ff6c80c92926a4b)
REM
REM compiler GCC version 9.2.1 20190827 (Red Hat 9.2.1-1)
REM options -cpp -mtune=generic -march=x86-64 -g -O0 -fpre-include=/usr/include/finclude/math-vector-fortran.h
REM seed 1295716869 -1290790639 -1776474682 -1194944019 -1072557575 173044818 1395823700 -1957263525 -480839194 -1550412975 818097565 -1064852228 -1505036664 1952882549 1838840652 615912208 1382136969 -232982026 -282999423 1942820587 -1975892710 135728550 990160829 1295628317 -968426676 -973746049 1895471971 -978384988 239070291 -696235437 -1166083018 573900835 -370995818
REM
CELL 1.54180   50.00000   50.00000   50.00000   90.00000   90.00000   90.00000
LATT -1
SFAC C  
C      1  0.4799930000000  0.5491080000000  0.4993300000000 1.0
C      1  0.5146380000000  0.4386100000000  0.4219790000000 1.0
C      1  0.5943190000000  0.4974420000000  0.5375870000000 1.0
C      1  0.5522280000000  0.4993060000000  0.5448080000000 1.0
C      1  0.4193440000000  0.5546640000000  0.4336930000000 1.0
C      1  0.5020680000000  0.6018880000000  0.5368760000000 1.0
C      1  0.5730150000000  0.4706360000000  0.4566460000000 1.0
C      1  0.4325290000000  0.4448500000000  0.5434860000000 1.0
C      1  0.4829630000000  0.5968790000000  0.5112820000000 1.0
C      1  0.4515700000000  0.4791110000000  0.5801070000000 1.0
C      1  0.5596930000000  0.4572540000000  0.5706500000000 1.0
C      1  0.5364290000000  0.5448680000000  0.4163920000000 1.0
C      1  0.4782610000000  0.4418960000000  0.5195990000000 1.0
C      1  0.5075410000000  0.3954900000000  0.5357680000000 1.0
C      1  0.5149620000000  0.4936180000000  0.4057670000000 1.0
C      1  0.4629620000000  0.4015380000000  0.5168770000000 1.0
C      1  0.4694030000000  0.5665700000000  0.4219500000000 1.0
C      1  0.5636160000000  0.4250320000000  0.5251340000000 1.0
C      1  0.4608480000000  0.4296480000000  0.4372170000000 1.0
C      1  0.4914840000000  0.4591830000000  0.4811650000000 1.0
C      1  0.5373350000000  0.5608050000000  0.5078320000000 1.0
C      1  0.5175200000000  0.5820400000000  0.4416400000000 1.0
C      1  0.5239380000000  0.4509960000000  0.5440600000000 1.0
C      1  0.4938640000000  0.4907990000000  0.5464800000000 1.0
C      1  0.4364030000000  0.4530950000000  0.5719910000000 1.0
C      1  0.5297600000000  0.6029770000000  0.5317590000000 1.0
C      1  0.6078680000000  0.4563040000000  0.5224290000000 1.0
C      1  0.4305170000000  0.5778310000000  0.5107930000000 1.0
C      1  0.4756780000000  0.4408500000000  0.5984380000000 1.0
C      1  0.5615340000000  0.4733100000000  0.4284370000000 1.0
C      1  0.5419330000000  0.5855720000000  0.4586620000000 1.0
C      1  0.5055820000000  0.4794340000000  0.5217520000000 1.0
C      1  0.4454510000000  0.5206020000000  0.4187710000000 1.0
C      1  0.5058110000000  0.4509540000000  0.5225830000000 1.0
C      1  0.5624530000000  0.5642440000000  0.4592110000000 1.0
C      1  0.5073700000000  0.5515450000000  0.4543280000000 1.0
C      1  0.4977430000000  0.4865770000000  0.6035810000000 1.0
C      1  0.4730370000000  0.5533080000000  0.5882600000000 1.0
C      1  0.5075420000000  0.4751580000000  0.4641750000000 1.0
C      1  0.5306590000000  0.4651730000000  0.4213820000000 1.0
C      1  0.5491290000000  0.4028730000000  0.5063020000000 1.0
C      1  0.5119630000000  0.4050910000000  0.4603210000000 1.0
C      1  0.4450090000000  0.5093880000000  0.5796060000000 1.0
C      1  0.6001500000000  0.4723860000000  0.4683070000000 1.0
C      1  0.4547580000000  0.5893240000000  0.5221240000000 1.0
C      1  0.5117400000000  0.5337220000000  0.5960150000000 1.0
C      1  0.5457520000000  0.5110760000000  0.5699930000000 1.0
C      1  0.3904230000000  0.4937970000000  0.4733170000000 1.0
C      1  0.4851540000000  0.4857840000000  0.3962180000000 1.0
C      1  0.4850440000000  0.4362690000000  0.4191560000000 1.0
C      1  0.5393560000000  0.5240940000000  0.4641730000000 1.0
C      1  0.5771650000000  0.5290880000000  0.5016670000000 1.0
C      1  0.5966410000000  0.5089690000000  0.5087000000000 1.0
C      1  0.4154640000000  0.4493020000000  0.4678340000000 1.0
C      1  0.5509090000000  0.4703110000000  0.5949810000000 1.0
C      1  0.4638740000000  0.5111210000000  0.4673300000000 1.0
C      1  0.4578240000000  0.5392330000000  0.5154870000000 1.0
C      1  0.6098280000000  0.4922450000000  0.4878660000000 1.0
C      1  0.4634400000000  0.4823650000000  0.5487550000000 1.0
C      1  0.4805430000000  0.5481430000000  0.4425470000000 1.0
C      1  0.4051690000000  0.4726300000000  0.4557260000000 1.0
C      1  0.4303630000000  0.5499910000000  0.5492010000000 1.0
C      1  0.5911420000000  0.4672560000000  0.5447460000000 1.0
C      1  0.5453490000000  0.4969350000000  0.5952540000000 1.0
C      1  0.4505930000000  0.5787630000000  0.4645920000000 1.0
C      1  0.5901080000000  0.4388190000000  0.5364570000000 1.0
C      1  0.5252870000000  0.4022910000000  0.5577730000000 1.0
C      1  0.4790800000000  0.3999610000000  0.5412480000000 1.0
C      1  0.5297580000000  0.4630470000000  0.4509170000000 1.0
C      1  0.4888740000000  0.4865450000000  0.4454710000000 1.0
C      1  0.5200790000000  0.5280450000000  0.4401880000000 1.0
C      1  0.4063640000000  0.4554690000000  0.4964400000000 1.0
C      1  0.5400190000000  0.4262980000000  0.5486210000000 1.0
C      1  0.4561890000000  0.5536290000000  0.5403790000000 1.0
C      1  0.5239850000000  0.5212910000000  0.3967500000000 1.0
C      1  0.4673600000000  0.5883570000000  0.4457130000000 1.0
C      1  0.4640250000000  0.5262510000000  0.4428120000000 1.0
C      1  0.4646080000000  0.4707800000000  0.4468080000000 1.0
C      1  0.5037570000000  0.5399670000000  0.3908100000000 1.0
C      1  0.4182760000000  0.4500080000000  0.5198900000000 1.0
C      1  0.5560500000000  0.4807490000000  0.4785610000000 1.0
C      1  0.5031640000000  0.5060550000000  0.4295010000000 1.0
C      1  0.4572040000000  0.4727310000000  0.4986500000000 1.0
C      1  0.5124900000000  0.5572070000000  0.5221320000000 1.0
C      1  0.5614040000000  0.5496570000000  0.4339330000000 1.0
C      1  0.4733660000000  0.4125350000000  0.5671780000000 1.0
C      1  0.5290610000000  0.5991770000000  0.4809370000000 1.0
C      1  0.4632630000000  0.4567800000000  0.4748530000000 1.0
C      1  0.4825940000000  0.4593420000000  0.4039060000000 1.0
C      1  0.4941450000000  0.5641090000000  0.4017440000000 1.0
C      1  0.5882450000000  0.5202720000000  0.5535580000000 1.0
C      1  0.4999420000000  0.6022010000000  0.4827510000000 1.0
C      1  0.4372540000000  0.4338420000000  0.4524580000000 1.0
C      1  0.5194830000000  0.5700430000000  0.4137040000000 1.0
C      1  0.5249500000000  0.4157310000000  0.4383680000000 1.0
C      1  0.5325980000000  0.5085310000000  0.5104860000000 1.0
C      1  0.4754450000000  0.4698370000000  0.5974270000000 1.0
C      1  0.4459700000000  0.4760650000000  0.4245830000000 1.0
C      1  0.4866210000000  0.4823240000000  0.4986370000000 1.0
C      1  0.5207810000000  0.3964920000000  0.5096990000000 1.0
C      1  0.4653070000000  0.4251570000000  0.5003410000000 1.0
C      1  0.3964980000000  0.5084390000000  0.5118300000000 1.0
C      1  0.5471720000000  0.4319410000000  0.5760330000000 1.0
C      1  0.4044180000000  0.5357010000000  0.5073970000000 1.0
C      1  0.5756920000000  0.5560410000000  0.4859110000000 1.0
C      1  0.4180710000000  0.4836610000000  0.4320210000000 1.0
C      1  0.5484070000000  0.4682670000000  0.5432750000000 1.0
C      1  0.5396920000000  0.5025760000000  0.4834280000000 1.0
C      1  0.5668670000000  0.5240370000000  0.4449610000000 1.0
C      1  0.4868730000000  0.5874520000000  0.5579980000000 1.0
C      1  0.4743780000000  0.4005920000000  0.4905780000000 1.0
C      1  0.4945070000000  0.4210130000000  0.5856910000000 1.0
C      1  0.5122700000000  0.5274670000000  0.5223640000000 1.0
C      1  0.3964310000000  0.5218010000000  0.4733160000000 1.0
C      1  0.4340380000000  0.5684580000000  0.4829370000000 1.0
C      1  0.5509060000000  0.4180360000000  0.4554350000000 1.0
C      1  0.4152950000000  0.5575410000000  0.5253500000000 1.0
C      1  0.5671330000000  0.5004920000000  0.4302570000000 1.0
C      1  0.5586380000000  0.4004250000000  0.4787430000000 1.0
C      1  0.4590680000000  0.5797610000000  0.5491390000000 1.0
C      1  0.4404330000000  0.5134480000000  0.4837650000000 1.0
C      1  0.4535680000000  0.4314240000000  0.5809230000000 1.0
C      1  0.4341510000000  0.5202680000000  0.5550300000000 1.0
C      1  0.5240140000000  0.5552540000000  0.5848280000000 1.0
C      1  0.5831880000000  0.5691250000000  0.5254790000000 1.0
C      1  0.5228190000000  0.5441240000000  0.4794320000000 1.0
C      1  0.5231700000000  0.4162020000000  0.5830810000000 1.0
C      1  0.4606340000000  0.4543070000000  0.5377080000000 1.0
C      1  0.4983490000000  0.5185820000000  0.5499140000000 1.0
C      1  0.5759310000000  0.5809190000000  0.5010360000000 1.0
C      1  0.5477440000000  0.4567490000000  0.4917140000000 1.0
C      1  0.5260700000000  0.4800570000000  0.6063800000000 1.0
C      1  0.6125970000000  0.4641830000000  0.4937820000000 1.0
C      1  0.5466070000000  0.5403500000000  0.5727230000000 1.0
C      1  0.4043240000000  0.5306920000000  0.4473450000000 1.0
C      1  0.4464410000000  0.5038940000000  0.5343210000000 1.0
C      1  0.4586170000000  0.4934150000000  0.4050390000000 1.0
C      1  0.4412160000000  0.4953900000000  0.5063150000000 1.0
C      1  0.5579610000000  0.5154360000000  0.5207970000000 1.0
C      1  0.4933620000000  0.5973640000000  0.4554350000000 1.0
C      1  0.5444290000000  0.5910320000000  0.5063450000000 1.0
C      1  0.4961850000000  0.5692420000000  0.5782510000000 1.0
C      1  0.4352100000000  0.5387620000000  0.4951890000000 1.0
C      1  0.3915360000000  0.4830840000000  0.5005780000000 1.0
C      1  0.4914850000000  0.5157510000000  0.6034220000000 1.0
C      1  0.4934430000000  0.5711850000000  0.5069780000000 1.0
C      1  0.4639240000000  0.5260010000000  0.5946420000000 1.0
C      1  0.5031050000000  0.3957720000000  0.4851180000000 1.0
C      1  0.4425710000000  0.5511380000000  0.4168810000000 1.0
C      1  0.5709600000000  0.5452840000000  0.5562160000000 1.0
C      1  0.4174900000000  0.5121420000000  0.4287390000000 1.0
C      1  0.4996810000000  0.5293610000000  0.4925480000000 1.0
C      1  0.5610620000000  0.5557790000000  0.5303190000000 1.0
C      1  0.5559540000000  0.4521560000000  0.5178590000000 1.0
C      1  0.5433610000000  0.4436210000000  0.4669130000000 1.0
C      1  0.4883080000000  0.5058880000000  0.4815110000000 1.0
END
