TITL C-3909774-5894-9 25.5793944820259 125000 -11654.9065108517 0 0 80 (C1) n - 1
REM
REM in /home/nfs/bkarasulu/CARBON/AIRSS/Generating-Clusters/ReaxFF-fromJPCA2015/Units_Real/with-SteepDescent/Only-C1/SD-CG/Try1-3A/FIRE-CG
REM
REM
REM
REM
REM
REM ./C.cell (11c1c37f851c82e70ff6c80c92926a4b)
REM
REM compiler GCC version 9.2.1 20190827 (Red Hat 9.2.1-1)
REM options -cpp -mtune=generic -march=x86-64 -g -O0 -fpre-include=/usr/include/finclude/math-vector-fortran.h
REM seed 871585838 -538962537 331422188 986364340 -1819955690 353602592 -783599436 -649014609 1890016486 -1131576200 796853975 1148227841 613357486 869006086 113577255 1029445088 -1431796444 1394496219 786518742 1938210210 -999185868 1459424769 446084593 -230650373 1468470779 -1336453245 1693444497 1980246306 -1916070775 933615 1392740590 -1711994278 -866526959
REM
CELL 1.54180   50.00000   50.00000   50.00000   90.00000   90.00000   90.00000
LATT -1
SFAC C  
C      1  0.4508060000000  0.4997080000000  0.4350650000000 1.0
C      1  0.4952560000000  0.4161530000000  0.4854260000000 1.0
C      1  0.5053050000000  0.5102070000000  0.5494240000000 1.0
C      1  0.4333810000000  0.4818150000000  0.4900460000000 1.0
C      1  0.5357120000000  0.4250460000000  0.4728620000000 1.0
C      1  0.4655530000000  0.4851600000000  0.4511330000000 1.0
C      1  0.5105490000000  0.5469020000000  0.4371550000000 1.0
C      1  0.5737320000000  0.5031610000000  0.4926610000000 1.0
C      1  0.5372300000000  0.5417560000000  0.5577130000000 1.0
C      1  0.4808360000000  0.5190010000000  0.4826550000000 1.0
C      1  0.4958910000000  0.5245610000000  0.4239650000000 1.0
C      1  0.4318480000000  0.5092580000000  0.4783840000000 1.0
C      1  0.4985720000000  0.4858810000000  0.5392800000000 1.0
C      1  0.5725920000000  0.4875890000000  0.5410780000000 1.0
C      1  0.5307090000000  0.4867440000000  0.4692680000000 1.0
C      1  0.4598300000000  0.4623190000000  0.4503450000000 1.0
C      1  0.5026130000000  0.4331360000000  0.4491150000000 1.0
C      1  0.5052650000000  0.4790720000000  0.4605610000000 1.0
C      1  0.4605330000000  0.4562270000000  0.5553240000000 1.0
C      1  0.4833370000000  0.4919170000000  0.4731590000000 1.0
C      1  0.4814780000000  0.4371140000000  0.5581660000000 1.0
C      1  0.5121170000000  0.4160610000000  0.4656500000000 1.0
C      1  0.4215670000000  0.5535850000000  0.4761260000000 1.0
C      1  0.5532550000000  0.5021460000000  0.4523320000000 1.0
C      1  0.5009990000000  0.5191770000000  0.5894600000000 1.0
C      1  0.4545130000000  0.5306910000000  0.5357830000000 1.0
C      1  0.4990230000000  0.5763150000000  0.5408740000000 1.0
C      1  0.4671730000000  0.5245370000000  0.4272930000000 1.0
C      1  0.4277150000000  0.5121600000000  0.4500240000000 1.0
C      1  0.5158460000000  0.5033120000000  0.4193590000000 1.0
C      1  0.5390440000000  0.5161220000000  0.4307740000000 1.0
C      1  0.4708470000000  0.5723130000000  0.5328250000000 1.0
C      1  0.5579930000000  0.5348260000000  0.5341000000000 1.0
C      1  0.4700430000000  0.5629680000000  0.4591840000000 1.0
C      1  0.4991200000000  0.5615710000000  0.4597250000000 1.0
C      1  0.5039570000000  0.4532150000000  0.5410070000000 1.0
C      1  0.5628870000000  0.5210660000000  0.4729160000000 1.0
C      1  0.4972200000000  0.4496400000000  0.5108330000000 1.0
C      1  0.5427300000000  0.4687150000000  0.4331450000000 1.0
C      1  0.5145820000000  0.5533130000000  0.4833420000000 1.0
C      1  0.4545710000000  0.5279960000000  0.4869400000000 1.0
C      1  0.5368680000000  0.5397300000000  0.4464050000000 1.0
C      1  0.5133510000000  0.5576530000000  0.5597350000000 1.0
C      1  0.4373790000000  0.5065100000000  0.5383910000000 1.0
C      1  0.5290480000000  0.5181160000000  0.4993490000000 1.0
C      1  0.5448560000000  0.4655730000000  0.5112380000000 1.0
C      1  0.4688970000000  0.4807870000000  0.5741940000000 1.0
C      1  0.5659730000000  0.4560310000000  0.4963730000000 1.0
C      1  0.4830150000000  0.5275790000000  0.5472170000000 1.0
C      1  0.4918510000000  0.5411910000000  0.5725350000000 1.0
C      1  0.4523140000000  0.4443550000000  0.5014100000000 1.0
C      1  0.4864320000000  0.4966070000000  0.5175680000000 1.0
C      1  0.4547630000000  0.5474620000000  0.4397170000000 1.0
C      1  0.5651980000000  0.4917110000000  0.5676160000000 1.0
C      1  0.4345680000000  0.4825300000000  0.5197000000000 1.0
C      1  0.4267060000000  0.5415800000000  0.4501680000000 1.0
C      1  0.4781600000000  0.4286330000000  0.5036680000000 1.0
C      1  0.5029560000000  0.5305920000000  0.4987420000000 1.0
C      1  0.5281790000000  0.4619690000000  0.5563330000000 1.0
C      1  0.5550370000000  0.4386280000000  0.4822670000000 1.0
C      1  0.5212020000000  0.4772310000000  0.5800330000000 1.0
C      1  0.4338950000000  0.5648590000000  0.4987500000000 1.0
C      1  0.4604560000000  0.5579840000000  0.4869090000000 1.0
C      1  0.5712700000000  0.5091440000000  0.5206190000000 1.0
C      1  0.4952200000000  0.4907120000000  0.5847090000000 1.0
C      1  0.5506170000000  0.4667980000000  0.5390830000000 1.0
C      1  0.4468300000000  0.4582570000000  0.5268890000000 1.0
C      1  0.5419700000000  0.5414500000000  0.4779100000000 1.0
C      1  0.4939690000000  0.4591380000000  0.4417590000000 1.0
C      1  0.5318570000000  0.4893350000000  0.4979840000000 1.0
C      1  0.5649980000000  0.4735310000000  0.4498470000000 1.0
C      1  0.5441920000000  0.4952320000000  0.5852660000000 1.0
C      1  0.4463390000000  0.4589810000000  0.4766890000000 1.0
C      1  0.4511590000000  0.4967300000000  0.5605600000000 1.0
C      1  0.5171330000000  0.4736190000000  0.4222520000000 1.0
C      1  0.4466040000000  0.5574720000000  0.5266120000000 1.0
C      1  0.4861480000000  0.4745940000000  0.5012440000000 1.0
C      1  0.5624870000000  0.5594100000000  0.5307540000000 1.0
C      1  0.5738880000000  0.4755260000000  0.4786950000000 1.0
C      1  0.5279890000000  0.5203040000000  0.5763290000000 1.0
END
