TITL C-3909655-6256-6 5.90505443146797 125000 -11542.8238545583 0 0 78 (C1) n - 1
REM
REM in /home/nfs/bkarasulu/CARBON/AIRSS/Generating-Clusters/ReaxFF-fromJPCA2015/Units_Real/with-SteepDescent/Only-C1/SD-CG/Try1-3A/FIRE-CG
REM
REM
REM
REM
REM
REM ./C.cell (11c1c37f851c82e70ff6c80c92926a4b)
REM
REM compiler GCC version 9.2.1 20190827 (Red Hat 9.2.1-1)
REM options -cpp -mtune=generic -march=x86-64 -g -O0 -fpre-include=/usr/include/finclude/math-vector-fortran.h
REM seed 1180655709 -1541546655 1854108078 -1133952631 -657212762 43868649 -774888122 -553275641 849118828 -1688500389 -2126401328 -1067573765 -543593970 -822170445 248106449 303258802 -769947740 1057655510 -864063107 -995410138 1451881982 -1013807845 1518987822 -259563224 -1593617224 -1645643103 1331946642 -1686990782 -1342780196 467004256 1888609053 -1231567771 317717046
REM
CELL 1.54180   50.00000   50.00000   50.00000   90.00000   90.00000   90.00000
LATT -1
SFAC C  
C      1  0.5165730000000  0.5148120000000  0.5048210000000 1.0
C      1  0.5103410000000  0.4263710000000  0.4743850000000 1.0
C      1  0.4817480000000  0.5256190000000  0.5664950000000 1.0
C      1  0.5490100000000  0.5628620000000  0.4623490000000 1.0
C      1  0.4895630000000  0.5245250000000  0.5125970000000 1.0
C      1  0.5078380000000  0.5120680000000  0.5667510000000 1.0
C      1  0.5810460000000  0.5152550000000  0.4725610000000 1.0
C      1  0.4795160000000  0.5517890000000  0.5540240000000 1.0
C      1  0.4339270000000  0.4656290000000  0.5007830000000 1.0
C      1  0.4417370000000  0.4865020000000  0.4439410000000 1.0
C      1  0.4489590000000  0.4595020000000  0.4537830000000 1.0
C      1  0.4385360000000  0.4700680000000  0.5432960000000 1.0
C      1  0.5620790000000  0.5662370000000  0.4876550000000 1.0
C      1  0.4650180000000  0.4701430000000  0.5750240000000 1.0
C      1  0.5301050000000  0.5256150000000  0.5527360000000 1.0
C      1  0.5245470000000  0.5499080000000  0.4637840000000 1.0
C      1  0.5371400000000  0.4629020000000  0.4528990000000 1.0
C      1  0.5188500000000  0.4872040000000  0.4931590000000 1.0
C      1  0.5295780000000  0.4627900000000  0.5606580000000 1.0
C      1  0.4826190000000  0.4277610000000  0.4662450000000 1.0
C      1  0.5817370000000  0.5443240000000  0.4767470000000 1.0
C      1  0.5370390000000  0.4354440000000  0.4655000000000 1.0
C      1  0.4796620000000  0.5497190000000  0.5038150000000 1.0
C      1  0.5721130000000  0.4511620000000  0.5342760000000 1.0
C      1  0.5296070000000  0.5550230000000  0.5474420000000 1.0
C      1  0.4914160000000  0.4537670000000  0.4225830000000 1.0
C      1  0.4712820000000  0.4448230000000  0.4449510000000 1.0
C      1  0.5747490000000  0.5179830000000  0.4306010000000 1.0
C      1  0.5114940000000  0.4830440000000  0.5721780000000 1.0
C      1  0.4650410000000  0.4289360000000  0.4898080000000 1.0
C      1  0.5066180000000  0.5036820000000  0.4586260000000 1.0
C      1  0.5260030000000  0.5414070000000  0.4355460000000 1.0
C      1  0.5132180000000  0.4414390000000  0.5473160000000 1.0
C      1  0.4909580000000  0.4634190000000  0.5746670000000 1.0
C      1  0.5358920000000  0.4880860000000  0.4706060000000 1.0
C      1  0.4257320000000  0.4841020000000  0.5194060000000 1.0
C      1  0.5373680000000  0.5112290000000  0.5286520000000 1.0
C      1  0.4430040000000  0.4482440000000  0.4815300000000 1.0
C      1  0.4812870000000  0.5156780000000  0.4165530000000 1.0
C      1  0.4806370000000  0.4782220000000  0.5181720000000 1.0
C      1  0.4795900000000  0.4259680000000  0.5147400000000 1.0
C      1  0.4436350000000  0.4860260000000  0.5679570000000 1.0
C      1  0.4521450000000  0.5594880000000  0.5119420000000 1.0
C      1  0.5387970000000  0.5691320000000  0.5221760000000 1.0
C      1  0.4540590000000  0.5138960000000  0.5644650000000 1.0
C      1  0.5106860000000  0.5804620000000  0.5194120000000 1.0
C      1  0.4597290000000  0.5001710000000  0.4274480000000 1.0
C      1  0.4215940000000  0.5278430000000  0.4804190000000 1.0
C      1  0.4649420000000  0.4598400000000  0.5338470000000 1.0
C      1  0.4852540000000  0.5000780000000  0.4757260000000 1.0
C      1  0.4398860000000  0.5103530000000  0.4620860000000 1.0
C      1  0.5526420000000  0.5331210000000  0.4217700000000 1.0
C      1  0.5551220000000  0.4336400000000  0.5162510000000 1.0
C      1  0.5576090000000  0.4318020000000  0.4868500000000 1.0
C      1  0.5944520000000  0.5039770000000  0.4437760000000 1.0
C      1  0.5602300000000  0.4996980000000  0.5159070000000 1.0
C      1  0.5059800000000  0.5200960000000  0.4350280000000 1.0
C      1  0.4729270000000  0.5044050000000  0.5203570000000 1.0
C      1  0.4420620000000  0.5263910000000  0.5415510000000 1.0
C      1  0.4530650000000  0.5529910000000  0.5408070000000 1.0
C      1  0.5036630000000  0.5672320000000  0.5450730000000 1.0
C      1  0.4507620000000  0.5727820000000  0.4735820000000 1.0
C      1  0.5062590000000  0.4373220000000  0.5022530000000 1.0
C      1  0.4993200000000  0.4692760000000  0.4997080000000 1.0
C      1  0.4590400000000  0.5080260000000  0.4826640000000 1.0
C      1  0.5586790000000  0.4657800000000  0.5554480000000 1.0
C      1  0.4943010000000  0.5736440000000  0.4964840000000 1.0
C      1  0.5609390000000  0.4987960000000  0.4860020000000 1.0
C      1  0.5733690000000  0.4800720000000  0.5343730000000 1.0
C      1  0.5468440000000  0.5494830000000  0.5041660000000 1.0
C      1  0.4078220000000  0.5131540000000  0.5002600000000 1.0
C      1  0.5288980000000  0.5358630000000  0.4895300000000 1.0
C      1  0.4347850000000  0.5559730000000  0.4882770000000 1.0
C      1  0.5271650000000  0.4316980000000  0.5242310000000 1.0
C      1  0.4753200000000  0.5872860000000  0.4752890000000 1.0
C      1  0.5160440000000  0.4591260000000  0.4365810000000 1.0
C      1  0.4455570000000  0.5097070000000  0.5154220000000 1.0
C      1  0.4832360000000  0.4381080000000  0.5412250000000 1.0
END
