TITL C-3909640-4666-38 7.4475638283976 125000 -9442.46421249264 0 0 65 (C1) n - 1
REM
REM in /home/nfs/bkarasulu/CARBON/AIRSS/Generating-Clusters/ReaxFF-fromJPCA2015/Units_Real/with-SteepDescent/Only-C1/SD-CG/Try1-3A/FIRE-CG
REM
REM
REM
REM
REM
REM ./C.cell (11c1c37f851c82e70ff6c80c92926a4b)
REM
REM compiler GCC version 9.2.1 20190827 (Red Hat 9.2.1-1)
REM options -cpp -mtune=generic -march=x86-64 -g -O0 -fpre-include=/usr/include/finclude/math-vector-fortran.h
REM seed -531146326 -1698210625 5010893 -1551872241 -1312890124 -1757135604 -710132635 396088961 413087751 855521516 305743459 740077551 2131853296 568045021 1587478892 -82943234 -632320248 -885204232 -1736532379 -1113841707 116071664 -495327000 88045343 386147944 2053585127 -533110783 841185317 -808157102 1515483349 -1354576388 1204846661 -488283852 1940069701
REM
CELL 1.54180   50.00000   50.00000   50.00000   90.00000   90.00000   90.00000
LATT -1
SFAC C  
C      1  0.5113330000000  0.5680480000000  0.5357950000000 1.0
C      1  0.5697230000000  0.4508760000000  0.4948630000000 1.0
C      1  0.5705940000000  0.4946780000000  0.4682720000000 1.0
C      1  0.4840710000000  0.5169960000000  0.5367810000000 1.0
C      1  0.5286920000000  0.5267190000000  0.5121630000000 1.0
C      1  0.4607540000000  0.5327490000000  0.4363720000000 1.0
C      1  0.4360400000000  0.5507680000000  0.4980060000000 1.0
C      1  0.5158640000000  0.4428280000000  0.4961420000000 1.0
C      1  0.5330660000000  0.5668640000000  0.4781290000000 1.0
C      1  0.5791610000000  0.5001830000000  0.5087050000000 1.0
C      1  0.5083640000000  0.5252030000000  0.5673470000000 1.0
C      1  0.5150910000000  0.4981180000000  0.5724560000000 1.0
C      1  0.4387590000000  0.5416470000000  0.5251610000000 1.0
C      1  0.4432090000000  0.5538380000000  0.4499820000000 1.0
C      1  0.4285780000000  0.4596400000000  0.4943040000000 1.0
C      1  0.4714740000000  0.4701410000000  0.5578730000000 1.0
C      1  0.4723600000000  0.4388530000000  0.4658330000000 1.0
C      1  0.4495060000000  0.4444840000000  0.4825550000000 1.0
C      1  0.4846620000000  0.5575460000000  0.4724730000000 1.0
C      1  0.4292350000000  0.4711190000000  0.5231760000000 1.0
C      1  0.5396530000000  0.5486390000000  0.4614010000000 1.0
C      1  0.4513170000000  0.5037990000000  0.4335110000000 1.0
C      1  0.4358300000000  0.4920670000000  0.4526880000000 1.0
C      1  0.5803500000000  0.4777250000000  0.4882940000000 1.0
C      1  0.5508560000000  0.5003390000000  0.4496520000000 1.0
C      1  0.4558640000000  0.5267280000000  0.5443310000000 1.0
C      1  0.4791890000000  0.4962790000000  0.5163200000000 1.0
C      1  0.4986890000000  0.4775050000000  0.4284000000000 1.0
C      1  0.5144360000000  0.4598050000000  0.4483590000000 1.0
C      1  0.5334950000000  0.4784030000000  0.4605890000000 1.0
C      1  0.4647910000000  0.4577780000000  0.4462610000000 1.0
C      1  0.5444030000000  0.4951920000000  0.5730880000000 1.0
C      1  0.5711810000000  0.4892080000000  0.5321390000000 1.0
C      1  0.4374330000000  0.5052860000000  0.5440590000000 1.0
C      1  0.4836030000000  0.5371070000000  0.4938790000000 1.0
C      1  0.4978260000000  0.4738150000000  0.5665900000000 1.0
C      1  0.4278870000000  0.4778090000000  0.4721540000000 1.0
C      1  0.4541640000000  0.4621780000000  0.5370150000000 1.0
C      1  0.5102560000000  0.5299670000000  0.4322380000000 1.0
C      1  0.5110940000000  0.4909460000000  0.4771550000000 1.0
C      1  0.5334750000000  0.4374800000000  0.5583700000000 1.0
C      1  0.5581050000000  0.4489170000000  0.5468970000000 1.0
C      1  0.4664050000000  0.5123720000000  0.4935070000000 1.0
C      1  0.5009170000000  0.4505840000000  0.5202060000000 1.0
C      1  0.4765620000000  0.4666750000000  0.5169880000000 1.0
C      1  0.5631540000000  0.4781700000000  0.5557070000000 1.0
C      1  0.5551140000000  0.5212180000000  0.5077900000000 1.0
C      1  0.5071500000000  0.5032710000000  0.4294940000000 1.0
C      1  0.5592470000000  0.5178260000000  0.5719620000000 1.0
C      1  0.4342340000000  0.5211990000000  0.5018690000000 1.0
C      1  0.5150050000000  0.5778900000000  0.5115360000000 1.0
C      1  0.5723310000000  0.5384550000000  0.5710190000000 1.0
C      1  0.4862100000000  0.5426650000000  0.4445250000000 1.0
C      1  0.4819980000000  0.4929730000000  0.4742400000000 1.0
C      1  0.5629360000000  0.4395060000000  0.5193430000000 1.0
C      1  0.5028420000000  0.4443420000000  0.4700660000000 1.0
C      1  0.5386660000000  0.5279740000000  0.4432170000000 1.0
C      1  0.4225850000000  0.4993420000000  0.5218210000000 1.0
C      1  0.4673510000000  0.4787630000000  0.4280600000000 1.0
C      1  0.5085320000000  0.5763250000000  0.4847310000000 1.0
C      1  0.5016760000000  0.5323430000000  0.5166340000000 1.0
C      1  0.5067360000000  0.5488840000000  0.5539890000000 1.0
C      1  0.5448580000000  0.4379310000000  0.4979430000000 1.0
C      1  0.5079090000000  0.4509520000000  0.5490960000000 1.0
C      1  0.4531490000000  0.5620730000000  0.4764810000000 1.0
END
