TITL C-3909650-4365-24 15.0633267801514 125000 -15503.3763042623 0 0 104 (C1) n - 1
REM
REM in /home/nfs/bkarasulu/CARBON/AIRSS/Generating-Clusters/ReaxFF-fromJPCA2015/Units_Real/with-SteepDescent/Only-C1/SD-CG/Try1-3A/FIRE-CG
REM
REM
REM
REM
REM
REM ./C.cell (11c1c37f851c82e70ff6c80c92926a4b)
REM
REM compiler GCC version 9.2.1 20190827 (Red Hat 9.2.1-1)
REM options -cpp -mtune=generic -march=x86-64 -g -O0 -fpre-include=/usr/include/finclude/math-vector-fortran.h
REM seed -873730960 -1536514465 -37669671 -627229745 -1692138707 -58741925 1985203082 -1511894805 -282066561 -65984991 59749400 611298116 307674198 1928914352 -1663198492 -2119742087 40200117 -786142594 1424158877 -1669864074 -2126923617 -349025330 -1171497250 -267912237 198310455 -1969805437 -976079233 -133023153 695112982 -1188631252 1469797678 178307557 -1962516419
REM
CELL 1.54180   50.00000   50.00000   50.00000   90.00000   90.00000   90.00000
LATT -1
SFAC C  
C      1  0.4262880000000  0.5406440000000  0.4866880000000 1.0
C      1  0.5285300000000  0.4514930000000  0.5700350000000 1.0
C      1  0.5525550000000  0.4659240000000  0.5784190000000 1.0
C      1  0.5267840000000  0.4684810000000  0.4873150000000 1.0
C      1  0.5388690000000  0.5006730000000  0.4097220000000 1.0
C      1  0.4886720000000  0.4792590000000  0.5948930000000 1.0
C      1  0.4776980000000  0.4127780000000  0.5075250000000 1.0
C      1  0.5793840000000  0.5446000000000  0.5075710000000 1.0
C      1  0.5339230000000  0.4393110000000  0.4457190000000 1.0
C      1  0.4560110000000  0.5823300000000  0.4757660000000 1.0
C      1  0.5744100000000  0.4492150000000  0.5308200000000 1.0
C      1  0.5192420000000  0.5229400000000  0.5305460000000 1.0
C      1  0.5504820000000  0.5569510000000  0.5469930000000 1.0
C      1  0.5011660000000  0.4568150000000  0.5803990000000 1.0
C      1  0.5086500000000  0.4825910000000  0.5322490000000 1.0
C      1  0.4425450000000  0.4818620000000  0.5673370000000 1.0
C      1  0.4989910000000  0.5466560000000  0.4756040000000 1.0
C      1  0.4854590000000  0.5086910000000  0.5924540000000 1.0
C      1  0.5486580000000  0.4934950000000  0.5870180000000 1.0
C      1  0.4425910000000  0.4279020000000  0.4487520000000 1.0
C      1  0.5041360000000  0.4355120000000  0.4449400000000 1.0
C      1  0.4225460000000  0.5209020000000  0.5050280000000 1.0
C      1  0.4574720000000  0.4479210000000  0.4282320000000 1.0
C      1  0.5098180000000  0.4938440000000  0.4101110000000 1.0
C      1  0.4996290000000  0.5099600000000  0.4325010000000 1.0
C      1  0.5712090000000  0.5638550000000  0.5271130000000 1.0
C      1  0.5334380000000  0.5151500000000  0.5724440000000 1.0
C      1  0.4173510000000  0.4391530000000  0.5450150000000 1.0
C      1  0.5234870000000  0.4357110000000  0.5196800000000 1.0
C      1  0.5237640000000  0.5696990000000  0.5469290000000 1.0
C      1  0.4710580000000  0.5292400000000  0.4900410000000 1.0
C      1  0.4282070000000  0.4169920000000  0.5300160000000 1.0
C      1  0.4206690000000  0.5001610000000  0.5224840000000 1.0
C      1  0.5191710000000  0.5867880000000  0.5223180000000 1.0
C      1  0.4412190000000  0.5000000000000  0.4587210000000 1.0
C      1  0.5401370000000  0.4442910000000  0.4749960000000 1.0
C      1  0.5094760000000  0.5442960000000  0.5171880000000 1.0
C      1  0.5494760000000  0.5696760000000  0.4790120000000 1.0
C      1  0.4809590000000  0.5937840000000  0.4874620000000 1.0
C      1  0.4768400000000  0.5639570000000  0.5520740000000 1.0
C      1  0.4508500000000  0.5462250000000  0.4434110000000 1.0
C      1  0.4745760000000  0.5047100000000  0.5047370000000 1.0
C      1  0.4282870000000  0.4931980000000  0.4324130000000 1.0
C      1  0.5287370000000  0.5016880000000  0.5434280000000 1.0
C      1  0.5270960000000  0.5828270000000  0.4934630000000 1.0
C      1  0.4918160000000  0.5939150000000  0.5152160000000 1.0
C      1  0.5729580000000  0.5085990000000  0.5493570000000 1.0
C      1  0.4743220000000  0.5544770000000  0.4296160000000 1.0
C      1  0.4634520000000  0.4412620000000  0.5477120000000 1.0
C      1  0.4899820000000  0.4416640000000  0.5576220000000 1.0
C      1  0.4531790000000  0.5500650000000  0.5424190000000 1.0
C      1  0.5766960000000  0.5005170000000  0.5219040000000 1.0
C      1  0.4808310000000  0.5151010000000  0.5517740000000 1.0
C      1  0.4938080000000  0.4232930000000  0.4697880000000 1.0
C      1  0.5553790000000  0.5307860000000  0.5590730000000 1.0
C      1  0.4216840000000  0.4707700000000  0.5104940000000 1.0
C      1  0.5027970000000  0.5779270000000  0.4779790000000 1.0
C      1  0.5704240000000  0.4795020000000  0.4378510000000 1.0
C      1  0.5182910000000  0.4632160000000  0.5128840000000 1.0
C      1  0.5835730000000  0.4657530000000  0.4865390000000 1.0
C      1  0.5172110000000  0.5472820000000  0.4517250000000 1.0
C      1  0.5609430000000  0.5068660000000  0.4278380000000 1.0
C      1  0.4091350000000  0.5079770000000  0.4219420000000 1.0
C      1  0.5019940000000  0.4961240000000  0.4584920000000 1.0
C      1  0.5843050000000  0.4738710000000  0.5146230000000 1.0
C      1  0.5831370000000  0.4849940000000  0.4644780000000 1.0
C      1  0.4594060000000  0.5507110000000  0.5113760000000 1.0
C      1  0.5456430000000  0.5504770000000  0.4566480000000 1.0
C      1  0.5247240000000  0.4942270000000  0.4753320000000 1.0
C      1  0.4625430000000  0.4904530000000  0.5880960000000 1.0
C      1  0.5659880000000  0.5178380000000  0.4980440000000 1.0
C      1  0.5777660000000  0.5128010000000  0.4695210000000 1.0
C      1  0.5714110000000  0.4876440000000  0.5702960000000 1.0
C      1  0.4672560000000  0.4237110000000  0.4620880000000 1.0
C      1  0.4481660000000  0.5265190000000  0.4677020000000 1.0
C      1  0.5166250000000  0.4365100000000  0.5477750000000 1.0
C      1  0.5183940000000  0.5363330000000  0.4925590000000 1.0
C      1  0.5667180000000  0.4415040000000  0.4869530000000 1.0
C      1  0.4931450000000  0.4692180000000  0.4058640000000 1.0
C      1  0.4654550000000  0.4771940000000  0.3959880000000 1.0
C      1  0.4443480000000  0.4701490000000  0.4155940000000 1.0
C      1  0.4583400000000  0.5733880000000  0.4476350000000 1.0
C      1  0.4707850000000  0.4774970000000  0.4936060000000 1.0
C      1  0.4007630000000  0.4549610000000  0.5245760000000 1.0
C      1  0.4524420000000  0.5238940000000  0.5540590000000 1.0
C      1  0.4542290000000  0.4781920000000  0.4689840000000 1.0
C      1  0.5560610000000  0.4347310000000  0.5134700000000 1.0
C      1  0.4850860000000  0.5645370000000  0.5224520000000 1.0
C      1  0.5033610000000  0.4199100000000  0.4990740000000 1.0
C      1  0.4403990000000  0.5654240000000  0.4935090000000 1.0
C      1  0.4858820000000  0.4993060000000  0.5292780000000 1.0
C      1  0.4999020000000  0.5393100000000  0.4299210000000 1.0
C      1  0.4464130000000  0.4579450000000  0.5030260000000 1.0
C      1  0.5358690000000  0.5153300000000  0.4889330000000 1.0
C      1  0.4405240000000  0.4536400000000  0.5594730000000 1.0
C      1  0.5516440000000  0.4590480000000  0.4380520000000 1.0
C      1  0.5721250000000  0.5702580000000  0.4974290000000 1.0
C      1  0.4866160000000  0.4484510000000  0.4255830000000 1.0
C      1  0.4814100000000  0.4779360000000  0.4660120000000 1.0
C      1  0.4329030000000  0.5025800000000  0.5494120000000 1.0
C      1  0.5007760000000  0.5260930000000  0.5719530000000 1.0
C      1  0.5024220000000  0.5561600000000  0.5625580000000 1.0
C      1  0.4543360000000  0.4323540000000  0.5190260000000 1.0
C      1  0.5636910000000  0.5276510000000  0.4492330000000 1.0
END
