TITL C-3909788-9832-14 58.3510796933155 125000 -21839.633290377 0 0 149 (C1) n - 1
REM
REM in /home/nfs/bkarasulu/CARBON/AIRSS/Generating-Clusters/ReaxFF-fromJPCA2015/Units_Real/with-SteepDescent/Only-C1/SD-CG/Try1-3A/FIRE-CG
REM
REM
REM
REM
REM
REM ./C.cell (11c1c37f851c82e70ff6c80c92926a4b)
REM
REM compiler GCC version 9.2.1 20190827 (Red Hat 9.2.1-1)
REM options -cpp -mtune=generic -march=x86-64 -g -O0 -fpre-include=/usr/include/finclude/math-vector-fortran.h
REM seed 324134848 1927696840 702223855 1861384792 -1292764869 1169589521 3002717 -1668720360 -963947303 -546401517 -355210908 -1255791010 -1110989052 377292240 340503835 1603039933 -1055869421 -1604287152 1202509283 394874975 1270345390 632260069 -1663604040 -1574928397 -1825523572 -1043016089 1258081998 -2078779225 -84765686 -1513664535 -1861914843 1999351212 1102263414
REM
CELL 1.54180   50.00000   50.00000   50.00000   90.00000   90.00000   90.00000
LATT -1
SFAC C  
C      1  0.5013560000000  0.5727150000000  0.5809130000000 1.0
C      1  0.5206500000000  0.5755590000000  0.4361350000000 1.0
C      1  0.5222420000000  0.4796270000000  0.5897590000000 1.0
C      1  0.4672890000000  0.4656680000000  0.5865490000000 1.0
C      1  0.4380930000000  0.5671690000000  0.4494340000000 1.0
C      1  0.5342260000000  0.4100090000000  0.4916620000000 1.0
C      1  0.4216970000000  0.4925580000000  0.5943760000000 1.0
C      1  0.5624290000000  0.4506920000000  0.5558460000000 1.0
C      1  0.6015190000000  0.4660040000000  0.4863940000000 1.0
C      1  0.4893470000000  0.5896630000000  0.5601010000000 1.0
C      1  0.5273310000000  0.4192460000000  0.5426840000000 1.0
C      1  0.4476760000000  0.4784800000000  0.5166500000000 1.0
C      1  0.5219450000000  0.4374190000000  0.4929640000000 1.0
C      1  0.4106950000000  0.4739970000000  0.5396720000000 1.0
C      1  0.4740340000000  0.4303070000000  0.5592030000000 1.0
C      1  0.5895840000000  0.5098080000000  0.4516090000000 1.0
C      1  0.4733450000000  0.4366210000000  0.4331310000000 1.0
C      1  0.5160630000000  0.4789080000000  0.4543650000000 1.0
C      1  0.4256590000000  0.5522130000000  0.5366740000000 1.0
C      1  0.4847600000000  0.5100970000000  0.5700470000000 1.0
C      1  0.5922010000000  0.5364710000000  0.4995520000000 1.0
C      1  0.4351700000000  0.4961490000000  0.4989310000000 1.0
C      1  0.5470870000000  0.4399860000000  0.4517650000000 1.0
C      1  0.4338270000000  0.5082250000000  0.4270070000000 1.0
C      1  0.4289450000000  0.5216520000000  0.4529420000000 1.0
C      1  0.4787240000000  0.5928150000000  0.4598770000000 1.0
C      1  0.4815600000000  0.4714440000000  0.4019960000000 1.0
C      1  0.4442330000000  0.5031800000000  0.5617660000000 1.0
C      1  0.4635070000000  0.5884850000000  0.5456180000000 1.0
C      1  0.5769140000000  0.4194900000000  0.4851460000000 1.0
C      1  0.5261330000000  0.6052320000000  0.4735000000000 1.0
C      1  0.4370050000000  0.4686680000000  0.5850680000000 1.0
C      1  0.5389170000000  0.5236220000000  0.5073500000000 1.0
C      1  0.4747230000000  0.5486770000000  0.4399910000000 1.0
C      1  0.5520280000000  0.5156330000000  0.4003860000000 1.0
C      1  0.5659530000000  0.4598710000000  0.4617410000000 1.0
C      1  0.4992380000000  0.4319330000000  0.4452570000000 1.0
C      1  0.4918070000000  0.5729270000000  0.4432660000000 1.0
C      1  0.5993430000000  0.5170320000000  0.5208950000000 1.0
C      1  0.5144650000000  0.4511110000000  0.5803390000000 1.0
C      1  0.5215380000000  0.5099680000000  0.3943290000000 1.0
C      1  0.5432230000000  0.4083930000000  0.5197520000000 1.0
C      1  0.5875540000000  0.4444890000000  0.4727310000000 1.0
C      1  0.4523680000000  0.4000090000000  0.5192820000000 1.0
C      1  0.5848110000000  0.5322700000000  0.4709790000000 1.0
C      1  0.4301800000000  0.4419920000000  0.5043490000000 1.0
C      1  0.4498740000000  0.4143340000000  0.4710130000000 1.0
C      1  0.4893180000000  0.4073500000000  0.4591580000000 1.0
C      1  0.5578870000000  0.5450990000000  0.4693990000000 1.0
C      1  0.5814250000000  0.5289990000000  0.5387560000000 1.0
C      1  0.5617480000000  0.5308870000000  0.5753880000000 1.0
C      1  0.5587460000000  0.5133440000000  0.5405450000000 1.0
C      1  0.4722600000000  0.4854160000000  0.4823690000000 1.0
C      1  0.5718920000000  0.4455200000000  0.5260080000000 1.0
C      1  0.5096490000000  0.5331280000000  0.5317390000000 1.0
C      1  0.5599100000000  0.5684060000000  0.4891890000000 1.0
C      1  0.4907700000000  0.5540410000000  0.5325830000000 1.0
C      1  0.4743280000000  0.5372430000000  0.4124510000000 1.0
C      1  0.4560940000000  0.5095110000000  0.4833470000000 1.0
C      1  0.4839840000000  0.4422660000000  0.5832710000000 1.0
C      1  0.5384810000000  0.5889290000000  0.4945050000000 1.0
C      1  0.5141030000000  0.5343970000000  0.4374750000000 1.0
C      1  0.4522630000000  0.5848190000000  0.4685960000000 1.0
C      1  0.4509400000000  0.5411550000000  0.4584190000000 1.0
C      1  0.5954720000000  0.4629830000000  0.5145140000000 1.0
C      1  0.4177020000000  0.5422160000000  0.4919640000000 1.0
C      1  0.4817490000000  0.4567200000000  0.5142820000000 1.0
C      1  0.4615640000000  0.4615120000000  0.4179410000000 1.0
C      1  0.4732610000000  0.5320110000000  0.5524480000000 1.0
C      1  0.4180500000000  0.4594430000000  0.4680980000000 1.0
C      1  0.4781690000000  0.5543650000000  0.5037890000000 1.0
C      1  0.5490910000000  0.4783940000000  0.5023440000000 1.0
C      1  0.5640810000000  0.4685280000000  0.4092020000000 1.0
C      1  0.5303840000000  0.5203870000000  0.5467270000000 1.0
C      1  0.4021810000000  0.4701180000000  0.4900950000000 1.0
C      1  0.4763090000000  0.4105450000000  0.4862610000000 1.0
C      1  0.4917840000000  0.6048960000000  0.5066280000000 1.0
C      1  0.5243180000000  0.4742980000000  0.5374560000000 1.0
C      1  0.4699550000000  0.3837520000000  0.5057160000000 1.0
C      1  0.4625370000000  0.5198110000000  0.5304290000000 1.0
C      1  0.4189960000000  0.4334460000000  0.4344340000000 1.0
C      1  0.4970060000000  0.6077180000000  0.4780970000000 1.0
C      1  0.5905580000000  0.4888740000000  0.5248970000000 1.0
C      1  0.5339940000000  0.6004890000000  0.4441610000000 1.0
C      1  0.5271870000000  0.5712110000000  0.5661310000000 1.0
C      1  0.4983500000000  0.4282640000000  0.5393930000000 1.0
C      1  0.4095550000000  0.5226910000000  0.4757340000000 1.0
C      1  0.4514260000000  0.5780910000000  0.4978960000000 1.0
C      1  0.5671390000000  0.5142570000000  0.4373900000000 1.0
C      1  0.4598030000000  0.4935300000000  0.5397020000000 1.0
C      1  0.5170290000000  0.5078900000000  0.5958170000000 1.0
C      1  0.5174860000000  0.5046040000000  0.4712000000000 1.0
C      1  0.5044040000000  0.4597530000000  0.5537620000000 1.0
C      1  0.4382220000000  0.5563870000000  0.4224540000000 1.0
C      1  0.4058850000000  0.4998770000000  0.4982700000000 1.0
C      1  0.4240460000000  0.5156610000000  0.5728050000000 1.0
C      1  0.4262440000000  0.5613930000000  0.5089560000000 1.0
C      1  0.5448320000000  0.5162540000000  0.4793720000000 1.0
C      1  0.4595250000000  0.5502160000000  0.5725410000000 1.0
C      1  0.5146020000000  0.4785190000000  0.4312870000000 1.0
C      1  0.4446240000000  0.5669480000000  0.5541490000000 1.0
C      1  0.5570510000000  0.5643700000000  0.5340090000000 1.0
C      1  0.5177050000000  0.5942470000000  0.5144750000000 1.0
C      1  0.4289960000000  0.4592120000000  0.5583410000000 1.0
C      1  0.4374760000000  0.4234600000000  0.5259040000000 1.0
C      1  0.5327540000000  0.5243070000000  0.5759560000000 1.0
C      1  0.5362930000000  0.5500810000000  0.5196770000000 1.0
C      1  0.4656390000000  0.5954450000000  0.5174660000000 1.0
C      1  0.5020780000000  0.5282670000000  0.4115960000000 1.0
C      1  0.5614000000000  0.4852780000000  0.4762340000000 1.0
C      1  0.4984280000000  0.4924320000000  0.4942100000000 1.0
C      1  0.4637900000000  0.5286160000000  0.5048420000000 1.0
C      1  0.5386120000000  0.4366640000000  0.5624860000000 1.0
C      1  0.5099300000000  0.5788530000000  0.5406760000000 1.0
C      1  0.4164250000000  0.4632700000000  0.4377220000000 1.0
C      1  0.5088730000000  0.5226100000000  0.5054120000000 1.0
C      1  0.5703580000000  0.4180250000000  0.5143010000000 1.0
C      1  0.4814430000000  0.4808240000000  0.5650980000000 1.0
C      1  0.5771500000000  0.5597400000000  0.5110790000000 1.0
C      1  0.4450450000000  0.5308750000000  0.4106690000000 1.0
C      1  0.5008080000000  0.5269910000000  0.4625630000000 1.0
C      1  0.5611170000000  0.4880980000000  0.5267730000000 1.0
C      1  0.5030120000000  0.4759150000000  0.5173990000000 1.0
C      1  0.4936720000000  0.4306000000000  0.5087290000000 1.0
C      1  0.5705170000000  0.4972350000000  0.4170870000000 1.0
C      1  0.5189820000000  0.4493770000000  0.4603520000000 1.0
C      1  0.5523610000000  0.4443600000000  0.4203610000000 1.0
C      1  0.4078200000000  0.4568890000000  0.5151480000000 1.0
C      1  0.4463590000000  0.4367650000000  0.5508820000000 1.0
C      1  0.5128570000000  0.4780600000000  0.4037110000000 1.0
C      1  0.5384760000000  0.4584590000000  0.4002210000000 1.0
C      1  0.5535180000000  0.5588550000000  0.5633090000000 1.0
C      1  0.5645230000000  0.4772790000000  0.5692300000000 1.0
C      1  0.4987660000000  0.5425500000000  0.4864270000000 1.0
C      1  0.5575080000000  0.5364960000000  0.4197800000000 1.0
C      1  0.5445300000000  0.4511060000000  0.5071340000000 1.0
C      1  0.4365960000000  0.4793610000000  0.4241090000000 1.0
C      1  0.5901200000000  0.4909220000000  0.4747620000000 1.0
C      1  0.5529560000000  0.4150270000000  0.4703950000000 1.0
C      1  0.4830130000000  0.5512530000000  0.5896890000000 1.0
C      1  0.4912540000000  0.5228580000000  0.5945930000000 1.0
C      1  0.4593320000000  0.4616810000000  0.4958460000000 1.0
C      1  0.5399040000000  0.5497810000000  0.4399950000000 1.0
C      1  0.4256110000000  0.4303950000000  0.4647800000000 1.0
C      1  0.4070610000000  0.5016100000000  0.5309940000000 1.0
C      1  0.5358910000000  0.4818880000000  0.5643850000000 1.0
C      1  0.5745930000000  0.5052220000000  0.5685840000000 1.0
C      1  0.4632510000000  0.4111170000000  0.4449840000000 1.0
C      1  0.4135590000000  0.5258980000000  0.5450880000000 1.0
END
