TITL C-3909777-8277-19 57.6826878518229 125000 -24395.3605015509 0 0 165 (C1) n - 1
REM
REM in /home/nfs/bkarasulu/CARBON/AIRSS/Generating-Clusters/ReaxFF-fromJPCA2015/Units_Real/with-SteepDescent/Only-C1/SD-CG/Try1-3A/FIRE-CG
REM
REM
REM
REM
REM
REM ./C.cell (11c1c37f851c82e70ff6c80c92926a4b)
REM
REM compiler GCC version 9.2.1 20190827 (Red Hat 9.2.1-1)
REM options -cpp -mtune=generic -march=x86-64 -g -O0 -fpre-include=/usr/include/finclude/math-vector-fortran.h
REM seed -550676546 -851199351 -1925909879 -1303998506 -1503274766 357640150 890382991 -1524447955 991417328 1473213486 -908524068 779695962 215436514 117471564 -2066750121 -536458816 55174900 -996158566 -1005075708 600419626 13783203 1116555767 -546575547 -1276281151 -1600091955 -921146588 -1264716318 -1347642005 -881397946 -736695215 1530401080 -1242989912 1868386968
REM
CELL 1.54180   50.00000   50.00000   50.00000   90.00000   90.00000   90.00000
LATT -1
SFAC C  
C      1  0.4915650000000  0.5147510000000  0.4576960000000 1.0
C      1  0.5140970000000  0.5787090000000  0.4933880000000 1.0
C      1  0.5321720000000  0.5576820000000  0.5019080000000 1.0
C      1  0.5347740000000  0.5338510000000  0.4863040000000 1.0
C      1  0.5130610000000  0.5482920000000  0.4104180000000 1.0
C      1  0.4806060000000  0.4400740000000  0.5208540000000 1.0
C      1  0.4760930000000  0.3948450000000  0.5007140000000 1.0
C      1  0.4503160000000  0.5004310000000  0.5874500000000 1.0
C      1  0.5969140000000  0.4537680000000  0.5321590000000 1.0
C      1  0.4511290000000  0.4976030000000  0.4678960000000 1.0
C      1  0.4846200000000  0.5484240000000  0.4029440000000 1.0
C      1  0.4670600000000  0.5442750000000  0.5918120000000 1.0
C      1  0.4842360000000  0.5560990000000  0.4435350000000 1.0
C      1  0.5804200000000  0.4160310000000  0.4825320000000 1.0
C      1  0.5617630000000  0.4589630000000  0.5546800000000 1.0
C      1  0.4087060000000  0.4558090000000  0.5160040000000 1.0
C      1  0.6254410000000  0.5165140000000  0.4746420000000 1.0
C      1  0.4952590000000  0.4886880000000  0.4425680000000 1.0
C      1  0.4835660000000  0.4590540000000  0.5685620000000 1.0
C      1  0.4337900000000  0.5510010000000  0.4417770000000 1.0
C      1  0.5248840000000  0.4854410000000  0.4311710000000 1.0
C      1  0.5223510000000  0.4504860000000  0.5787900000000 1.0
C      1  0.4028580000000  0.5169380000000  0.4664650000000 1.0
C      1  0.4665800000000  0.6070890000000  0.4883160000000 1.0
C      1  0.4711230000000  0.5693210000000  0.4186740000000 1.0
C      1  0.4299140000000  0.5474510000000  0.5686780000000 1.0
C      1  0.5185320000000  0.3946730000000  0.4992460000000 1.0
C      1  0.5961790000000  0.4747770000000  0.4842930000000 1.0
C      1  0.4922570000000  0.5537860000000  0.5886890000000 1.0
C      1  0.4695350000000  0.5161800000000  0.4815670000000 1.0
C      1  0.5065170000000  0.4437760000000  0.4469190000000 1.0
C      1  0.5692480000000  0.4638560000000  0.4263220000000 1.0
C      1  0.6159270000000  0.4978080000000  0.4956730000000 1.0
C      1  0.5553520000000  0.5005760000000  0.5012600000000 1.0
C      1  0.5954670000000  0.4312600000000  0.4643450000000 1.0
C      1  0.4200200000000  0.4387890000000  0.4312710000000 1.0
C      1  0.4753390000000  0.4070130000000  0.4390830000000 1.0
C      1  0.5414060000000  0.4570620000000  0.4301030000000 1.0
C      1  0.4636040000000  0.4406310000000  0.5647940000000 1.0
C      1  0.5785270000000  0.4143390000000  0.5102320000000 1.0
C      1  0.5206780000000  0.4841760000000  0.5334630000000 1.0
C      1  0.3957370000000  0.5275230000000  0.4945920000000 1.0
C      1  0.4688200000000  0.4249000000000  0.5428270000000 1.0
C      1  0.5296820000000  0.4198880000000  0.5088760000000 1.0
C      1  0.4495440000000  0.5728940000000  0.4370950000000 1.0
C      1  0.5847420000000  0.5747970000000  0.4875320000000 1.0
C      1  0.5346280000000  0.5291010000000  0.4116420000000 1.0
C      1  0.4047160000000  0.4896260000000  0.4763720000000 1.0
C      1  0.5643140000000  0.5606180000000  0.4462230000000 1.0
C      1  0.4380570000000  0.4625200000000  0.4992840000000 1.0
C      1  0.4533420000000  0.4045060000000  0.5109810000000 1.0
C      1  0.4875060000000  0.5331640000000  0.5273640000000 1.0
C      1  0.5186290000000  0.5286510000000  0.4619460000000 1.0
C      1  0.5166280000000  0.6051180000000  0.4798700000000 1.0
C      1  0.5890930000000  0.4721560000000  0.5496240000000 1.0
C      1  0.4099110000000  0.4244530000000  0.4558260000000 1.0
C      1  0.5524690000000  0.5602220000000  0.5766700000000 1.0
C      1  0.4785830000000  0.5632680000000  0.5200220000000 1.0
C      1  0.5116490000000  0.3949850000000  0.4705500000000 1.0
C      1  0.4794520000000  0.5116930000000  0.5097050000000 1.0
C      1  0.3971100000000  0.5596430000000  0.5001830000000 1.0
C      1  0.4977820000000  0.3952700000000  0.5212190000000 1.0
C      1  0.4639010000000  0.4810170000000  0.6064660000000 1.0
C      1  0.5792480000000  0.4906620000000  0.4372440000000 1.0
C      1  0.5488310000000  0.4321070000000  0.5508260000000 1.0
C      1  0.5102240000000  0.5858240000000  0.5526100000000 1.0
C      1  0.3923860000000  0.4770750000000  0.5000030000000 1.0
C      1  0.3991030000000  0.4970430000000  0.5391860000000 1.0
C      1  0.4451210000000  0.5660910000000  0.5243770000000 1.0
C      1  0.4176670000000  0.4525320000000  0.4566890000000 1.0
C      1  0.4953500000000  0.4371340000000  0.4173230000000 1.0
C      1  0.4420990000000  0.4619300000000  0.6026300000000 1.0
C      1  0.4657540000000  0.4982710000000  0.5611340000000 1.0
C      1  0.4231950000000  0.5136930000000  0.5373090000000 1.0
C      1  0.4626720000000  0.5869750000000  0.5621470000000 1.0
C      1  0.4387060000000  0.4446760000000  0.4766250000000 1.0
C      1  0.4229720000000  0.4202690000000  0.4823940000000 1.0
C      1  0.5882510000000  0.5294760000000  0.5002550000000 1.0
C      1  0.4414970000000  0.5446200000000  0.5066810000000 1.0
C      1  0.4517990000000  0.5013180000000  0.5384690000000 1.0
C      1  0.4423990000000  0.5332720000000  0.5908730000000 1.0
C      1  0.5242550000000  0.4626640000000  0.5140490000000 1.0
C      1  0.4432290000000  0.5667700000000  0.5530210000000 1.0
C      1  0.4991340000000  0.6000920000000  0.4567610000000 1.0
C      1  0.5346510000000  0.5017990000000  0.4555700000000 1.0
C      1  0.4971790000000  0.5304200000000  0.5527740000000 1.0
C      1  0.4189230000000  0.4625100000000  0.5678120000000 1.0
C      1  0.5066210000000  0.5277610000000  0.5775950000000 1.0
C      1  0.4760980000000  0.6094060000000  0.5163880000000 1.0
C      1  0.5090250000000  0.4393270000000  0.5153070000000 1.0
C      1  0.5403410000000  0.5755170000000  0.5496210000000 1.0
C      1  0.4500510000000  0.4806180000000  0.4218090000000 1.0
C      1  0.4727810000000  0.5231670000000  0.4126640000000 1.0
C      1  0.4319350000000  0.4860020000000  0.4847840000000 1.0
C      1  0.5563400000000  0.5362670000000  0.4320700000000 1.0
C      1  0.5989420000000  0.4764100000000  0.4526180000000 1.0
C      1  0.4882580000000  0.4823040000000  0.5505650000000 1.0
C      1  0.5410040000000  0.4788410000000  0.5546360000000 1.0
C      1  0.4665090000000  0.4611240000000  0.5074780000000 1.0
C      1  0.5594940000000  0.5161960000000  0.5541940000000 1.0
C      1  0.4775550000000  0.5296000000000  0.4394550000000 1.0
C      1  0.6025560000000  0.4338890000000  0.5132420000000 1.0
C      1  0.4396960000000  0.4441490000000  0.5787040000000 1.0
C      1  0.5395980000000  0.5543980000000  0.5288010000000 1.0
C      1  0.4697710000000  0.5943580000000  0.4621510000000 1.0
C      1  0.4941330000000  0.5883380000000  0.5286400000000 1.0
C      1  0.5422320000000  0.5271900000000  0.5336850000000 1.0
C      1  0.5140330000000  0.5549120000000  0.4398590000000 1.0
C      1  0.4615210000000  0.6100940000000  0.5431020000000 1.0
C      1  0.5339240000000  0.4342820000000  0.4465150000000 1.0
C      1  0.5247990000000  0.4804680000000  0.4745620000000 1.0
C      1  0.5322220000000  0.5061960000000  0.5166260000000 1.0
C      1  0.5578870000000  0.6043650000000  0.5044710000000 1.0
C      1  0.5235030000000  0.4056210000000  0.4461970000000 1.0
C      1  0.5865600000000  0.5257370000000  0.5600810000000 1.0
C      1  0.5194850000000  0.5833760000000  0.4444770000000 1.0
C      1  0.5422230000000  0.4643580000000  0.4912500000000 1.0
C      1  0.4662870000000  0.4300380000000  0.4231990000000 1.0
C      1  0.6072840000000  0.4462540000000  0.4867560000000 1.0
C      1  0.4980600000000  0.4120830000000  0.5453580000000 1.0
C      1  0.5023750000000  0.4856810000000  0.3960790000000 1.0
C      1  0.5624000000000  0.5218070000000  0.4847510000000 1.0
C      1  0.4895080000000  0.4359150000000  0.4686480000000 1.0
C      1  0.4162240000000  0.5762440000000  0.5100720000000 1.0
C      1  0.5471730000000  0.4984310000000  0.5744770000000 1.0
C      1  0.4217750000000  0.5246950000000  0.4458290000000 1.0
C      1  0.6048440000000  0.5388060000000  0.4783490000000 1.0
C      1  0.4395840000000  0.4998980000000  0.4416140000000 1.0
C      1  0.5474510000000  0.5362500000000  0.5906450000000 1.0
C      1  0.5261180000000  0.5013820000000  0.4062310000000 1.0
C      1  0.4884700000000  0.4684100000000  0.5964540000000 1.0
C      1  0.3874190000000  0.5018250000000  0.5130540000000 1.0
C      1  0.4191040000000  0.5270230000000  0.5582730000000 1.0
C      1  0.5916880000000  0.4507830000000  0.4410990000000 1.0
C      1  0.4901310000000  0.5786880000000  0.5715010000000 1.0
C      1  0.4065240000000  0.4687830000000  0.5426910000000 1.0
C      1  0.4552830000000  0.5424870000000  0.4818490000000 1.0
C      1  0.4768200000000  0.4586800000000  0.4792710000000 1.0
C      1  0.5205880000000  0.4285370000000  0.5596350000000 1.0
C      1  0.5887660000000  0.5612390000000  0.4640200000000 1.0
C      1  0.5039120000000  0.4578130000000  0.3944360000000 1.0
C      1  0.4174790000000  0.4255900000000  0.5110120000000 1.0
C      1  0.5467150000000  0.5833140000000  0.4541140000000 1.0
C      1  0.4895510000000  0.5656230000000  0.4931820000000 1.0
C      1  0.4721640000000  0.5632050000000  0.4715660000000 1.0
C      1  0.5013940000000  0.4068070000000  0.4269870000000 1.0
C      1  0.5678850000000  0.4770570000000  0.4953850000000 1.0
C      1  0.4253560000000  0.4817150000000  0.5894020000000 1.0
C      1  0.4723630000000  0.4880090000000  0.5227660000000 1.0
C      1  0.5638210000000  0.5133950000000  0.4499310000000 1.0
C      1  0.4453130000000  0.4509990000000  0.4225430000000 1.0
C      1  0.6028370000000  0.5115400000000  0.5184130000000 1.0
C      1  0.5534360000000  0.4181700000000  0.5254880000000 1.0
C      1  0.4197550000000  0.5268880000000  0.5114830000000 1.0
C      1  0.4971790000000  0.4767400000000  0.4689980000000 1.0
C      1  0.5454280000000  0.6011350000000  0.4774220000000 1.0
C      1  0.5241570000000  0.5060230000000  0.5906580000000 1.0
C      1  0.4383970000000  0.4158150000000  0.5279760000000 1.0
C      1  0.5164560000000  0.4759450000000  0.5926020000000 1.0
C      1  0.5580560000000  0.5920860000000  0.5307150000000 1.0
C      1  0.5967470000000  0.5024440000000  0.5458670000000 1.0
C      1  0.5746150000000  0.5417750000000  0.5824590000000 1.0
C      1  0.4762660000000  0.4931230000000  0.4137000000000 1.0
C      1  0.5813380000000  0.5872040000000  0.5125960000000 1.0
C      1  0.4835820000000  0.4058450000000  0.4700640000000 1.0
END
