TITL C-3909782-8182-26 34.2406148466446 125000 -26477.3196373749 0 0 179 (C1) n - 1
REM
REM in /home/nfs/bkarasulu/CARBON/AIRSS/Generating-Clusters/ReaxFF-fromJPCA2015/Units_Real/with-SteepDescent/Only-C1/SD-CG/Try1-3A/FIRE-CG
REM
REM
REM
REM
REM
REM ./C.cell (11c1c37f851c82e70ff6c80c92926a4b)
REM
REM compiler GCC version 9.2.1 20190827 (Red Hat 9.2.1-1)
REM options -cpp -mtune=generic -march=x86-64 -g -O0 -fpre-include=/usr/include/finclude/math-vector-fortran.h
REM seed -942414974 -774323545 44188328 -227421619 694185781 -1655463396 1783057143 1849977218 20279290 -241802923 1734799097 -2028936484 -969605111 -1097480229 153940159 -383606119 -2071015317 -1678970854 -1275916312 -1932340231 -1834894551 244636183 -489675833 -375884888 1220427901 -1062326992 -982096252 -1705546976 1318441200 1099126718 -448232797 -171314326 -232169673
REM
CELL 1.54180   50.00000   50.00000   50.00000   90.00000   90.00000   90.00000
LATT -1
SFAC C  
C      1  0.4869660000000  0.5893630000000  0.4602060000000 1.0
C      1  0.4336560000000  0.4854500000000  0.5135020000000 1.0
C      1  0.4772180000000  0.4246300000000  0.4284750000000 1.0
C      1  0.5061310000000  0.4617170000000  0.4076440000000 1.0
C      1  0.5639640000000  0.5703520000000  0.5703310000000 1.0
C      1  0.4860220000000  0.5587800000000  0.4753310000000 1.0
C      1  0.4430960000000  0.4714060000000  0.5550680000000 1.0
C      1  0.5787410000000  0.4715990000000  0.4236670000000 1.0
C      1  0.6001960000000  0.5012130000000  0.4861320000000 1.0
C      1  0.4785810000000  0.4368220000000  0.4803730000000 1.0
C      1  0.4437410000000  0.5561360000000  0.5647750000000 1.0
C      1  0.4810790000000  0.6049430000000  0.4860900000000 1.0
C      1  0.5045610000000  0.5520360000000  0.4971010000000 1.0
C      1  0.4674270000000  0.4348240000000  0.5585280000000 1.0
C      1  0.3918150000000  0.4740240000000  0.5570920000000 1.0
C      1  0.4433630000000  0.4589130000000  0.5070770000000 1.0
C      1  0.5100920000000  0.3992480000000  0.5479100000000 1.0
C      1  0.5961840000000  0.5201810000000  0.4406510000000 1.0
C      1  0.4421280000000  0.5246160000000  0.4956960000000 1.0
C      1  0.5123710000000  0.5098510000000  0.4271680000000 1.0
C      1  0.4332360000000  0.4344870000000  0.5201030000000 1.0
C      1  0.5318480000000  0.4788160000000  0.5543120000000 1.0
C      1  0.5902420000000  0.5533980000000  0.5001480000000 1.0
C      1  0.4908590000000  0.4628030000000  0.5358640000000 1.0
C      1  0.5666360000000  0.4339880000000  0.4211390000000 1.0
C      1  0.4063330000000  0.4421220000000  0.4777990000000 1.0
C      1  0.5749640000000  0.5733570000000  0.5187390000000 1.0
C      1  0.4171420000000  0.4232590000000  0.4986070000000 1.0
C      1  0.4229290000000  0.5296150000000  0.5156340000000 1.0
C      1  0.4984060000000  0.4288440000000  0.4460400000000 1.0
C      1  0.4170470000000  0.5684700000000  0.4957440000000 1.0
C      1  0.5172180000000  0.4619970000000  0.4716350000000 1.0
C      1  0.5679570000000  0.4226350000000  0.5286890000000 1.0
C      1  0.5034810000000  0.4691520000000  0.5102810000000 1.0
C      1  0.4576350000000  0.4447750000000  0.4192910000000 1.0
C      1  0.3925100000000  0.4688320000000  0.4750590000000 1.0
C      1  0.4587750000000  0.5396780000000  0.5463800000000 1.0
C      1  0.4305060000000  0.4982250000000  0.4193380000000 1.0
C      1  0.5103330000000  0.5258280000000  0.5062520000000 1.0
C      1  0.4672130000000  0.4785230000000  0.5403230000000 1.0
C      1  0.4648850000000  0.4137550000000  0.4898540000000 1.0
C      1  0.5634610000000  0.5410400000000  0.5816850000000 1.0
C      1  0.5219470000000  0.4267780000000  0.5592460000000 1.0
C      1  0.5028020000000  0.6089480000000  0.5036650000000 1.0
C      1  0.5739700000000  0.4564860000000  0.4675000000000 1.0
C      1  0.5349200000000  0.5831190000000  0.5166890000000 1.0
C      1  0.4172160000000  0.5361720000000  0.5713400000000 1.0
C      1  0.5434240000000  0.5180450000000  0.4547980000000 1.0
C      1  0.4149410000000  0.5324450000000  0.4569270000000 1.0
C      1  0.3819230000000  0.4896750000000  0.5351500000000 1.0
C      1  0.4600930000000  0.4583670000000  0.4830580000000 1.0
C      1  0.5328900000000  0.3903660000000  0.5026460000000 1.0
C      1  0.4843300000000  0.5244000000000  0.5473100000000 1.0
C      1  0.4754440000000  0.5021210000000  0.5249670000000 1.0
C      1  0.5317120000000  0.5547350000000  0.4122700000000 1.0
C      1  0.4908120000000  0.4419720000000  0.5977490000000 1.0
C      1  0.4865150000000  0.5025250000000  0.4221160000000 1.0
C      1  0.5519970000000  0.4647350000000  0.5116280000000 1.0
C      1  0.5539250000000  0.4801380000000  0.5974830000000 1.0
C      1  0.4526800000000  0.4938840000000  0.4012960000000 1.0
C      1  0.5029290000000  0.4469250000000  0.4920480000000 1.0
C      1  0.6037580000000  0.4507300000000  0.4963970000000 1.0
C      1  0.6024910000000  0.5078370000000  0.5142910000000 1.0
C      1  0.5824920000000  0.4674900000000  0.5254420000000 1.0
C      1  0.5274500000000  0.4304320000000  0.4387610000000 1.0
C      1  0.5249260000000  0.5321270000000  0.3948290000000 1.0
C      1  0.4454600000000  0.5151200000000  0.5519480000000 1.0
C      1  0.4243040000000  0.5064350000000  0.5334120000000 1.0
C      1  0.4406820000000  0.5485020000000  0.4223980000000 1.0
C      1  0.5141720000000  0.5367750000000  0.6059210000000 1.0
C      1  0.5863170000000  0.5259310000000  0.5682960000000 1.0
C      1  0.4342260000000  0.4485180000000  0.4349170000000 1.0
C      1  0.3942860000000  0.4957700000000  0.4888270000000 1.0
C      1  0.4373370000000  0.4136660000000  0.4790590000000 1.0
C      1  0.5331650000000  0.5991570000000  0.4926150000000 1.0
C      1  0.4724660000000  0.5896430000000  0.5772400000000 1.0
C      1  0.4183560000000  0.4731740000000  0.4301070000000 1.0
C      1  0.4927040000000  0.4758910000000  0.4274070000000 1.0
C      1  0.5588930000000  0.3965670000000  0.5146660000000 1.0
C      1  0.5510410000000  0.4366920000000  0.5062930000000 1.0
C      1  0.4142300000000  0.5147030000000  0.4794740000000 1.0
C      1  0.5658870000000  0.4519200000000  0.5679290000000 1.0
C      1  0.4837210000000  0.4050820000000  0.4486790000000 1.0
C      1  0.6013540000000  0.5361540000000  0.5199160000000 1.0
C      1  0.4249140000000  0.5249950000000  0.4305640000000 1.0
C      1  0.5765200000000  0.4760250000000  0.5781160000000 1.0
C      1  0.5068740000000  0.3938810000000  0.5191650000000 1.0
C      1  0.4704000000000  0.4799990000000  0.4668040000000 1.0
C      1  0.4904150000000  0.5099840000000  0.5730000000000 1.0
C      1  0.4662570000000  0.5826870000000  0.4386000000000 1.0
C      1  0.5440120000000  0.4156110000000  0.4587420000000 1.0
C      1  0.5499640000000  0.5071890000000  0.6044970000000 1.0
C      1  0.5829650000000  0.5693170000000  0.5490230000000 1.0
C      1  0.4663100000000  0.5621320000000  0.5867420000000 1.0
C      1  0.5578950000000  0.5963020000000  0.5084410000000 1.0
C      1  0.4854100000000  0.3974990000000  0.5630040000000 1.0
C      1  0.5945320000000  0.4903800000000  0.5352030000000 1.0
C      1  0.4191560000000  0.5083710000000  0.5819880000000 1.0
C      1  0.4258350000000  0.4320910000000  0.4585520000000 1.0
C      1  0.5276640000000  0.4779930000000  0.3961030000000 1.0
C      1  0.5748450000000  0.5324030000000  0.4243650000000 1.0
C      1  0.4987430000000  0.4988090000000  0.5014930000000 1.0
C      1  0.4658370000000  0.5462360000000  0.4082690000000 1.0
C      1  0.5976210000000  0.4723930000000  0.4788410000000 1.0
C      1  0.3965510000000  0.5289070000000  0.5537300000000 1.0
C      1  0.5372020000000  0.5826620000000  0.4652750000000 1.0
C      1  0.4031710000000  0.5505080000000  0.5139580000000 1.0
C      1  0.5378530000000  0.4755300000000  0.4865490000000 1.0
C      1  0.5259580000000  0.3957380000000  0.4747340000000 1.0
C      1  0.4813130000000  0.5687550000000  0.4178350000000 1.0
C      1  0.3787740000000  0.5050690000000  0.5127730000000 1.0
C      1  0.4708360000000  0.3990610000000  0.5378720000000 1.0
C      1  0.5951880000000  0.5249480000000  0.4698670000000 1.0
C      1  0.5169310000000  0.5270310000000  0.4470670000000 1.0
C      1  0.4884950000000  0.4673950000000  0.3848350000000 1.0
C      1  0.4623770000000  0.4665430000000  0.3987890000000 1.0
C      1  0.4749430000000  0.5186470000000  0.3984930000000 1.0
C      1  0.4193440000000  0.4807350000000  0.5696390000000 1.0
C      1  0.5564500000000  0.5550730000000  0.4303160000000 1.0
C      1  0.5346020000000  0.5423140000000  0.5413460000000 1.0
C      1  0.4333300000000  0.5852510000000  0.5129480000000 1.0
C      1  0.4840370000000  0.3936510000000  0.5001580000000 1.0
C      1  0.5462010000000  0.5046270000000  0.5449900000000 1.0
C      1  0.4899840000000  0.5495190000000  0.5971430000000 1.0
C      1  0.5561670000000  0.5103660000000  0.4295000000000 1.0
C      1  0.5880860000000  0.4979480000000  0.5615990000000 1.0
C      1  0.4723060000000  0.4942430000000  0.5898330000000 1.0
C      1  0.5203740000000  0.5830850000000  0.5513070000000 1.0
C      1  0.5149270000000  0.5860740000000  0.4476670000000 1.0
C      1  0.4546050000000  0.5033830000000  0.5062470000000 1.0
C      1  0.4712770000000  0.4652900000000  0.5940300000000 1.0
C      1  0.5345740000000  0.5052870000000  0.4098790000000 1.0
C      1  0.5074510000000  0.6028580000000  0.5520250000000 1.0
C      1  0.3930160000000  0.4747620000000  0.4459750000000 1.0
C      1  0.5937870000000  0.4418720000000  0.5210690000000 1.0
C      1  0.5559000000000  0.5216090000000  0.4939950000000 1.0
C      1  0.5750800000000  0.5445920000000  0.4782320000000 1.0
C      1  0.4484810000000  0.5100720000000  0.5814590000000 1.0
C      1  0.4505590000000  0.4192140000000  0.5392750000000 1.0
C      1  0.5428160000000  0.4512050000000  0.4236680000000 1.0
C      1  0.4921960000000  0.6109430000000  0.5304070000000 1.0
C      1  0.5074420000000  0.4896900000000  0.3780710000000 1.0
C      1  0.5510770000000  0.5131070000000  0.5193720000000 1.0
C      1  0.5389520000000  0.4652220000000  0.5335900000000 1.0
C      1  0.4853420000000  0.4144310000000  0.5891220000000 1.0
C      1  0.5108520000000  0.5718930000000  0.4227110000000 1.0
C      1  0.5456680000000  0.5335750000000  0.6074130000000 1.0
C      1  0.5295800000000  0.4691560000000  0.5828260000000 1.0
C      1  0.4918680000000  0.5373890000000  0.4559190000000 1.0
C      1  0.5965980000000  0.5441640000000  0.5482080000000 1.0
C      1  0.5393150000000  0.5824350000000  0.5647200000000 1.0
C      1  0.4972790000000  0.3937560000000  0.4725050000000 1.0
C      1  0.4512890000000  0.4533690000000  0.5765020000000 1.0
C      1  0.5572940000000  0.5637730000000  0.4576420000000 1.0
C      1  0.5470650000000  0.4997270000000  0.4772890000000 1.0
C      1  0.5179170000000  0.4428530000000  0.5860170000000 1.0
C      1  0.4995560000000  0.5647860000000  0.5231080000000 1.0
C      1  0.4567430000000  0.5422670000000  0.4767120000000 1.0
C      1  0.5933300000000  0.4948260000000  0.4269860000000 1.0
C      1  0.5398360000000  0.5284780000000  0.5644300000000 1.0
C      1  0.5024050000000  0.5185470000000  0.3833410000000 1.0
C      1  0.4407770000000  0.5701490000000  0.4424660000000 1.0
C      1  0.4670200000000  0.6001900000000  0.5499340000000 1.0
C      1  0.4287800000000  0.5579720000000  0.4676010000000 1.0
C      1  0.4713350000000  0.5699750000000  0.5200100000000 1.0
C      1  0.4949350000000  0.4390090000000  0.5505280000000 1.0
C      1  0.4818340000000  0.5003950000000  0.4777010000000 1.0
C      1  0.5088090000000  0.5374000000000  0.5336100000000 1.0
C      1  0.4703240000000  0.5199220000000  0.4630910000000 1.0
C      1  0.4950740000000  0.4720080000000  0.4540160000000 1.0
C      1  0.5485750000000  0.5585820000000  0.5225850000000 1.0
C      1  0.5156200000000  0.5205240000000  0.5821380000000 1.0
C      1  0.4473310000000  0.5795380000000  0.5403960000000 1.0
C      1  0.5593480000000  0.4341690000000  0.4786060000000 1.0
C      1  0.4610670000000  0.5893920000000  0.5018060000000 1.0
C      1  0.3839510000000  0.5306020000000  0.5275370000000 1.0
C      1  0.5590670000000  0.4674380000000  0.4437420000000 1.0
C      1  0.5669050000000  0.4094420000000  0.4339780000000 1.0
C      1  0.5533940000000  0.4309320000000  0.5553250000000 1.0
END
