TITL C-3909783-8770-4 99.7337067636724 125000 -26012.2606488876 0 0 176 (C1) n - 1
REM
REM in /home/nfs/bkarasulu/CARBON/AIRSS/Generating-Clusters/ReaxFF-fromJPCA2015/Units_Real/with-SteepDescent/Only-C1/SD-CG/Try1-3A/FIRE-CG
REM
REM
REM
REM
REM
REM ./C.cell (11c1c37f851c82e70ff6c80c92926a4b)
REM
REM compiler GCC version 9.2.1 20190827 (Red Hat 9.2.1-1)
REM options -cpp -mtune=generic -march=x86-64 -g -O0 -fpre-include=/usr/include/finclude/math-vector-fortran.h
REM seed -1769247339 773856853 258184710 1921373108 911962034 463519790 -1275058768 698700684 -1100774564 -1827068745 -2031989502 -313802812 1621208510 1554253584 -1138975289 916200224 -57497408 -1248343169 143297844 1676119184 893803661 -754329088 668700456 1323182044 -2030801552 1221523217 -59889711 -513991233 1538977757 496377439 -21695544 1136725774 1407309456
REM
CELL 1.54180   50.00000   50.00000   50.00000   90.00000   90.00000   90.00000
LATT -1
SFAC C  
C      1  0.5045160000000  0.4842960000000  0.5848370000000 1.0
C      1  0.4551140000000  0.4971730000000  0.4311850000000 1.0
C      1  0.5003850000000  0.5657300000000  0.4213210000000 1.0
C      1  0.5916890000000  0.5075880000000  0.4360860000000 1.0
C      1  0.5905740000000  0.5512450000000  0.4751640000000 1.0
C      1  0.3976400000000  0.4603250000000  0.5157730000000 1.0
C      1  0.4417960000000  0.4951050000000  0.4035460000000 1.0
C      1  0.4786690000000  0.4349620000000  0.4233890000000 1.0
C      1  0.5876640000000  0.5045100000000  0.5059920000000 1.0
C      1  0.4068610000000  0.4868680000000  0.5245170000000 1.0
C      1  0.5860400000000  0.4426640000000  0.5121240000000 1.0
C      1  0.4322240000000  0.4562330000000  0.5726860000000 1.0
C      1  0.4232400000000  0.4455440000000  0.5487730000000 1.0
C      1  0.4246110000000  0.4843370000000  0.5791910000000 1.0
C      1  0.5117530000000  0.5407350000000  0.5136200000000 1.0
C      1  0.5447710000000  0.5628990000000  0.5829220000000 1.0
C      1  0.4968700000000  0.5428290000000  0.4034580000000 1.0
C      1  0.5072650000000  0.4317650000000  0.4898260000000 1.0
C      1  0.4550060000000  0.5734170000000  0.4362670000000 1.0
C      1  0.5864290000000  0.5637470000000  0.5009510000000 1.0
C      1  0.5764800000000  0.4356810000000  0.4646860000000 1.0
C      1  0.5099210000000  0.5275940000000  0.6119780000000 1.0
C      1  0.5480820000000  0.5322230000000  0.4656850000000 1.0
C      1  0.5678610000000  0.4194190000000  0.5173170000000 1.0
C      1  0.5360410000000  0.4407090000000  0.5470920000000 1.0
C      1  0.4018100000000  0.5187480000000  0.4564530000000 1.0
C      1  0.5367520000000  0.5109720000000  0.6068710000000 1.0
C      1  0.5340870000000  0.4284930000000  0.4249490000000 1.0
C      1  0.4790460000000  0.3978370000000  0.4561990000000 1.0
C      1  0.4811480000000  0.5034250000000  0.5417900000000 1.0
C      1  0.5342840000000  0.4837860000000  0.5973630000000 1.0
C      1  0.5121950000000  0.4956390000000  0.4983930000000 1.0
C      1  0.4870620000000  0.4670480000000  0.5670520000000 1.0
C      1  0.5682300000000  0.4656600000000  0.4308500000000 1.0
C      1  0.3936570000000  0.5251200000000  0.5212690000000 1.0
C      1  0.4227570000000  0.4694160000000  0.4000780000000 1.0
C      1  0.4079310000000  0.5446250000000  0.4709380000000 1.0
C      1  0.4467110000000  0.5720000000000  0.5534050000000 1.0
C      1  0.4583940000000  0.4463170000000  0.5872330000000 1.0
C      1  0.5121060000000  0.5889720000000  0.5607020000000 1.0
C      1  0.5292210000000  0.4699630000000  0.5093090000000 1.0
C      1  0.5171210000000  0.4031070000000  0.5302570000000 1.0
C      1  0.6030990000000  0.5304960000000  0.5337620000000 1.0
C      1  0.4368250000000  0.4188320000000  0.4814250000000 1.0
C      1  0.4281430000000  0.5320080000000  0.5715650000000 1.0
C      1  0.5433500000000  0.4155790000000  0.5343460000000 1.0
C      1  0.4928530000000  0.4110290000000  0.4336880000000 1.0
C      1  0.6190200000000  0.4757480000000  0.5061900000000 1.0
C      1  0.5922450000000  0.4508790000000  0.4844180000000 1.0
C      1  0.4051420000000  0.5714730000000  0.5033570000000 1.0
C      1  0.4510410000000  0.5113810000000  0.5350470000000 1.0
C      1  0.4108280000000  0.4558450000000  0.4211860000000 1.0
C      1  0.5265790000000  0.4514970000000  0.4412830000000 1.0
C      1  0.4560450000000  0.4228660000000  0.5012950000000 1.0
C      1  0.4148740000000  0.5481640000000  0.5213730000000 1.0
C      1  0.5374510000000  0.4409440000000  0.5947920000000 1.0
C      1  0.4853690000000  0.5236040000000  0.5194130000000 1.0
C      1  0.5128770000000  0.4281160000000  0.5871870000000 1.0
C      1  0.5103060000000  0.5498050000000  0.5411520000000 1.0
C      1  0.5731620000000  0.4653430000000  0.5661280000000 1.0
C      1  0.4861580000000  0.5065950000000  0.4982820000000 1.0
C      1  0.4537720000000  0.4310840000000  0.4374710000000 1.0
C      1  0.5613420000000  0.4398040000000  0.4179840000000 1.0
C      1  0.5146590000000  0.6043290000000  0.5101610000000 1.0
C      1  0.5376700000000  0.5136700000000  0.5503570000000 1.0
C      1  0.4780350000000  0.5216750000000  0.4760670000000 1.0
C      1  0.4824830000000  0.5819680000000  0.4385130000000 1.0
C      1  0.4162630000000  0.4980150000000  0.4718310000000 1.0
C      1  0.5711600000000  0.5585660000000  0.5747710000000 1.0
C      1  0.5599510000000  0.5725320000000  0.5075960000000 1.0
C      1  0.4830530000000  0.4633620000000  0.4779090000000 1.0
C      1  0.4707940000000  0.5480230000000  0.5929630000000 1.0
C      1  0.5170440000000  0.4593210000000  0.5340110000000 1.0
C      1  0.5598860000000  0.5043050000000  0.5387410000000 1.0
C      1  0.5234160000000  0.5612610000000  0.4396000000000 1.0
C      1  0.6032730000000  0.5030810000000  0.4627840000000 1.0
C      1  0.5879270000000  0.5114400000000  0.5526210000000 1.0
C      1  0.4729760000000  0.5304200000000  0.3895760000000 1.0
C      1  0.6071820000000  0.5278680000000  0.4774530000000 1.0
C      1  0.4396980000000  0.4922610000000  0.4884860000000 1.0
C      1  0.4686150000000  0.5891610000000  0.5055250000000 1.0
C      1  0.4566550000000  0.5445360000000  0.4839410000000 1.0
C      1  0.5169470000000  0.5068930000000  0.4328210000000 1.0
C      1  0.5490720000000  0.5742920000000  0.4448910000000 1.0
C      1  0.4912470000000  0.6015290000000  0.4930670000000 1.0
C      1  0.5656630000000  0.3968520000000  0.4978110000000 1.0
C      1  0.4254490000000  0.5530150000000  0.5516880000000 1.0
C      1  0.4128260000000  0.4413420000000  0.5255540000000 1.0
C      1  0.5750320000000  0.5710270000000  0.5475340000000 1.0
C      1  0.6001100000000  0.4644950000000  0.5277320000000 1.0
C      1  0.4508090000000  0.5252430000000  0.5894630000000 1.0
C      1  0.5511140000000  0.5172620000000  0.4898320000000 1.0
C      1  0.3898600000000  0.5040090000000  0.5019570000000 1.0
C      1  0.4531320000000  0.4111520000000  0.4577670000000 1.0
C      1  0.4492950000000  0.5896130000000  0.4585240000000 1.0
C      1  0.6096520000000  0.5189950000000  0.5072570000000 1.0
C      1  0.4985950000000  0.3871720000000  0.4748100000000 1.0
C      1  0.4829020000000  0.4430800000000  0.4990920000000 1.0
C      1  0.4843520000000  0.4868110000000  0.6102190000000 1.0
C      1  0.4407090000000  0.5376400000000  0.5059210000000 1.0
C      1  0.4498610000000  0.5445000000000  0.4399470000000 1.0
C      1  0.4119310000000  0.5074900000000  0.5670290000000 1.0
C      1  0.4910210000000  0.4611490000000  0.4147240000000 1.0
C      1  0.4794090000000  0.4740450000000  0.5398680000000 1.0
C      1  0.4921630000000  0.5705880000000  0.5501630000000 1.0
C      1  0.5314440000000  0.4847280000000  0.4650590000000 1.0
C      1  0.4849100000000  0.5151380000000  0.6123480000000 1.0
C      1  0.4450020000000  0.4964920000000  0.5962090000000 1.0
C      1  0.4501610000000  0.4767230000000  0.4483660000000 1.0
C      1  0.5094760000000  0.5493380000000  0.4620230000000 1.0
C      1  0.5672910000000  0.4920020000000  0.4928530000000 1.0
C      1  0.4529380000000  0.4038890000000  0.5158830000000 1.0
C      1  0.5471100000000  0.4473590000000  0.4668850000000 1.0
C      1  0.5441830000000  0.5168760000000  0.4412230000000 1.0
C      1  0.5112880000000  0.4735540000000  0.4310330000000 1.0
C      1  0.5551920000000  0.4654380000000  0.5904680000000 1.0
C      1  0.5556250000000  0.4794790000000  0.5196200000000 1.0
C      1  0.5535440000000  0.5842160000000  0.5332430000000 1.0
C      1  0.5691470000000  0.5511380000000  0.4527050000000 1.0
C      1  0.5328000000000  0.5957820000000  0.4879940000000 1.0
C      1  0.4602770000000  0.5763910000000  0.4809580000000 1.0
C      1  0.4323590000000  0.4517640000000  0.4457630000000 1.0
C      1  0.4673960000000  0.5008660000000  0.3877370000000 1.0
C      1  0.5143250000000  0.5189480000000  0.4056130000000 1.0
C      1  0.5414200000000  0.5717330000000  0.4875970000000 1.0
C      1  0.5128550000000  0.4030430000000  0.4987770000000 1.0
C      1  0.5731690000000  0.4104340000000  0.4751210000000 1.0
C      1  0.5573240000000  0.5243370000000  0.5942410000000 1.0
C      1  0.4883490000000  0.4201520000000  0.5762350000000 1.0
C      1  0.4603620000000  0.4724250000000  0.6035900000000 1.0
C      1  0.4106270000000  0.5216820000000  0.4292930000000 1.0
C      1  0.5262590000000  0.5959060000000  0.5367140000000 1.0
C      1  0.5386120000000  0.3910910000000  0.4858640000000 1.0
C      1  0.4589660000000  0.4773260000000  0.4738830000000 1.0
C      1  0.5935120000000  0.4803670000000  0.5518590000000 1.0
C      1  0.4458070000000  0.5355660000000  0.3945510000000 1.0
C      1  0.5568850000000  0.4744800000000  0.4602040000000 1.0
C      1  0.4362450000000  0.5394970000000  0.4654920000000 1.0
C      1  0.4946350000000  0.4043600000000  0.5482110000000 1.0
C      1  0.5193980000000  0.6038200000000  0.4512510000000 1.0
C      1  0.4027200000000  0.4569320000000  0.4883790000000 1.0
C      1  0.5162920000000  0.5594020000000  0.4878120000000 1.0
C      1  0.4046150000000  0.5740020000000  0.4741020000000 1.0
C      1  0.3952270000000  0.4857510000000  0.4795930000000 1.0
C      1  0.5192140000000  0.5718040000000  0.5842930000000 1.0
C      1  0.5777910000000  0.5289710000000  0.5769940000000 1.0
C      1  0.6066060000000  0.4775100000000  0.4790870000000 1.0
C      1  0.4611290000000  0.5375690000000  0.5242870000000 1.0
C      1  0.5238160000000  0.3882890000000  0.4606390000000 1.0
C      1  0.5208130000000  0.4042320000000  0.4354800000000 1.0
C      1  0.5931510000000  0.5574520000000  0.5293470000000 1.0
C      1  0.4998700000000  0.5057510000000  0.5645950000000 1.0
C      1  0.4260630000000  0.5878050000000  0.4613270000000 1.0
C      1  0.5281230000000  0.5182420000000  0.5056420000000 1.0
C      1  0.5459280000000  0.5993660000000  0.4596800000000 1.0
C      1  0.4942070000000  0.5248470000000  0.4526170000000 1.0
C      1  0.4671280000000  0.5720670000000  0.5302800000000 1.0
C      1  0.5169550000000  0.5290580000000  0.5603340000000 1.0
C      1  0.4213030000000  0.4417810000000  0.4726610000000 1.0
C      1  0.4682180000000  0.5679210000000  0.5720960000000 1.0
C      1  0.5048810000000  0.4831660000000  0.4718330000000 1.0
C      1  0.4711380000000  0.4016010000000  0.5329310000000 1.0
C      1  0.5306150000000  0.4481540000000  0.4901910000000 1.0
C      1  0.5000620000000  0.5511510000000  0.5991360000000 1.0
C      1  0.4365540000000  0.4940880000000  0.5173920000000 1.0
C      1  0.5701330000000  0.5269690000000  0.4317120000000 1.0
C      1  0.5572140000000  0.4597000000000  0.5426600000000 1.0
C      1  0.3956070000000  0.5065640000000  0.5432250000000 1.0
C      1  0.5881150000000  0.4831710000000  0.4179530000000 1.0
C      1  0.4907470000000  0.4533210000000  0.5251790000000 1.0
C      1  0.4752050000000  0.4413840000000  0.5687190000000 1.0
C      1  0.5126260000000  0.4963820000000  0.3855080000000 1.0
C      1  0.4934560000000  0.5992120000000  0.4604220000000 1.0
C      1  0.4880630000000  0.4802270000000  0.3910230000000 1.0
C      1  0.4688930000000  0.5228250000000  0.4360260000000 1.0
C      1  0.4222450000000  0.5231860000000  0.4045650000000 1.0
END
