TITL C-3909774-5894-8 35.8572740159707 125000 -23205.0463778279 0 0 157 (C1) n - 1
REM
REM in /home/nfs/bkarasulu/CARBON/AIRSS/Generating-Clusters/ReaxFF-fromJPCA2015/Units_Real/with-SteepDescent/Only-C1/SD-CG/Try1-3A/FIRE-CG
REM
REM
REM
REM
REM
REM ./C.cell (11c1c37f851c82e70ff6c80c92926a4b)
REM
REM compiler GCC version 9.2.1 20190827 (Red Hat 9.2.1-1)
REM options -cpp -mtune=generic -march=x86-64 -g -O0 -fpre-include=/usr/include/finclude/math-vector-fortran.h
REM seed -199029451 -981632184 -1849028230 -1550593027 1450575949 1806969477 1825997361 -617255414 383990771 -1268661179 775691935 994557521 -401609262 -1917336134 -518472669 1385640037 -674071272 1492424386 1999812527 1170981622 1369339595 -92707076 -566700464 -1598635256 298172206 2116335126 -741097751 -1438733273 783212598 598773505 177326001 -510440452 857756074
REM
CELL 1.54180   50.00000   50.00000   50.00000   90.00000   90.00000   90.00000
LATT -1
SFAC C  
C      1  0.4723200000000  0.6064310000000  0.4757250000000 1.0
C      1  0.5892060000000  0.4991140000000  0.5461380000000 1.0
C      1  0.5037990000000  0.4910390000000  0.5662340000000 1.0
C      1  0.5556780000000  0.4783900000000  0.5993430000000 1.0
C      1  0.5246460000000  0.5593840000000  0.4885280000000 1.0
C      1  0.5032530000000  0.4337010000000  0.4887350000000 1.0
C      1  0.4622590000000  0.4645270000000  0.5918210000000 1.0
C      1  0.4090440000000  0.4628320000000  0.4444850000000 1.0
C      1  0.4652900000000  0.5443930000000  0.4314790000000 1.0
C      1  0.4217750000000  0.5828980000000  0.5123950000000 1.0
C      1  0.5699590000000  0.4650490000000  0.4446870000000 1.0
C      1  0.4264670000000  0.5343190000000  0.5166970000000 1.0
C      1  0.4944790000000  0.4223980000000  0.5949140000000 1.0
C      1  0.4346030000000  0.5114050000000  0.5547610000000 1.0
C      1  0.5556960000000  0.4326400000000  0.5204330000000 1.0
C      1  0.5618710000000  0.4803190000000  0.4731330000000 1.0
C      1  0.5712100000000  0.5264500000000  0.4729300000000 1.0
C      1  0.4987280000000  0.5570900000000  0.5895500000000 1.0
C      1  0.4896680000000  0.5894840000000  0.4267830000000 1.0
C      1  0.4714920000000  0.5158820000000  0.4298460000000 1.0
C      1  0.5961080000000  0.5368100000000  0.5043100000000 1.0
C      1  0.5166310000000  0.4117460000000  0.4483520000000 1.0
C      1  0.5550420000000  0.5079840000000  0.4585890000000 1.0
C      1  0.4412900000000  0.5136310000000  0.5034550000000 1.0
C      1  0.5607560000000  0.5350980000000  0.5651280000000 1.0
C      1  0.4297650000000  0.4971960000000  0.4140220000000 1.0
C      1  0.4371940000000  0.4692810000000  0.4461630000000 1.0
C      1  0.4083510000000  0.5008680000000  0.4280530000000 1.0
C      1  0.5240470000000  0.4614790000000  0.4567220000000 1.0
C      1  0.6012840000000  0.4595120000000  0.5508990000000 1.0
C      1  0.6138050000000  0.5026100000000  0.4710520000000 1.0
C      1  0.5325440000000  0.4234810000000  0.5051800000000 1.0
C      1  0.5202510000000  0.4866990000000  0.4214630000000 1.0
C      1  0.5184080000000  0.5388960000000  0.5469910000000 1.0
C      1  0.6013170000000  0.4966230000000  0.4494320000000 1.0
C      1  0.5822020000000  0.4894900000000  0.4314290000000 1.0
C      1  0.5272070000000  0.3966030000000  0.4729130000000 1.0
C      1  0.3801010000000  0.5004310000000  0.4944130000000 1.0
C      1  0.4767060000000  0.5162570000000  0.4820370000000 1.0
C      1  0.5779100000000  0.4454090000000  0.5047530000000 1.0
C      1  0.5116950000000  0.5224640000000  0.4038100000000 1.0
C      1  0.5689420000000  0.5257100000000  0.4995770000000 1.0
C      1  0.3950950000000  0.5066220000000  0.5184310000000 1.0
C      1  0.4677280000000  0.4173780000000  0.4416000000000 1.0
C      1  0.4885270000000  0.5407130000000  0.4706710000000 1.0
C      1  0.4149800000000  0.4316310000000  0.5159770000000 1.0
C      1  0.4364830000000  0.5174450000000  0.4751230000000 1.0
C      1  0.4951530000000  0.5955220000000  0.5429270000000 1.0
C      1  0.5205510000000  0.5691160000000  0.5769630000000 1.0
C      1  0.5445540000000  0.4923540000000  0.5343730000000 1.0
C      1  0.4926040000000  0.6119280000000  0.5185670000000 1.0
C      1  0.5427130000000  0.5805960000000  0.4869370000000 1.0
C      1  0.4559440000000  0.4306580000000  0.5286280000000 1.0
C      1  0.5412020000000  0.5131360000000  0.5162420000000 1.0
C      1  0.5342510000000  0.4205600000000  0.5635020000000 1.0
C      1  0.5112460000000  0.5496490000000  0.4095350000000 1.0
C      1  0.5261980000000  0.4237620000000  0.5903960000000 1.0
C      1  0.5742800000000  0.4672570000000  0.5819030000000 1.0
C      1  0.4526310000000  0.3978750000000  0.5053710000000 1.0
C      1  0.4393710000000  0.5113070000000  0.5869170000000 1.0
C      1  0.5796280000000  0.4762600000000  0.5033110000000 1.0
C      1  0.4341230000000  0.4536580000000  0.5806400000000 1.0
C      1  0.5806790000000  0.4444810000000  0.5631550000000 1.0
C      1  0.4773590000000  0.5625060000000  0.4875970000000 1.0
C      1  0.4185480000000  0.5796850000000  0.5427220000000 1.0
C      1  0.4774980000000  0.4438060000000  0.6069390000000 1.0
C      1  0.4812850000000  0.3948980000000  0.5057700000000 1.0
C      1  0.3915960000000  0.5036820000000  0.4651080000000 1.0
C      1  0.5579130000000  0.4305080000000  0.5493650000000 1.0
C      1  0.5382770000000  0.5988480000000  0.5070800000000 1.0
C      1  0.4887070000000  0.3985270000000  0.4384950000000 1.0
C      1  0.4451890000000  0.4422740000000  0.4810040000000 1.0
C      1  0.5396610000000  0.5408670000000  0.5283380000000 1.0
C      1  0.4528190000000  0.5363040000000  0.5565770000000 1.0
C      1  0.6121370000000  0.4822890000000  0.5375530000000 1.0
C      1  0.4154520000000  0.4783060000000  0.4957050000000 1.0
C      1  0.4163610000000  0.4970790000000  0.4733330000000 1.0
C      1  0.3911590000000  0.4854080000000  0.4446970000000 1.0
C      1  0.4687610000000  0.4734390000000  0.5431400000000 1.0
C      1  0.4192580000000  0.4488790000000  0.4926710000000 1.0
C      1  0.4620290000000  0.4753210000000  0.4601580000000 1.0
C      1  0.5892360000000  0.4383630000000  0.4529740000000 1.0
C      1  0.5441020000000  0.4540670000000  0.4338000000000 1.0
C      1  0.5601740000000  0.5425480000000  0.4208020000000 1.0
C      1  0.4864080000000  0.4082990000000  0.5707600000000 1.0
C      1  0.5004700000000  0.4488350000000  0.5474880000000 1.0
C      1  0.4526340000000  0.5370790000000  0.5853070000000 1.0
C      1  0.5353170000000  0.5074660000000  0.4074210000000 1.0
C      1  0.4590390000000  0.4183370000000  0.4709910000000 1.0
C      1  0.4235820000000  0.5569960000000  0.4981040000000 1.0
C      1  0.4913960000000  0.4586370000000  0.4992530000000 1.0
C      1  0.4493280000000  0.5597910000000  0.4518410000000 1.0
C      1  0.5279870000000  0.4795450000000  0.5528600000000 1.0
C      1  0.4776230000000  0.5425010000000  0.6010830000000 1.0
C      1  0.4517240000000  0.4561330000000  0.4090090000000 1.0
C      1  0.5135390000000  0.6116540000000  0.4985770000000 1.0
C      1  0.4713670000000  0.5794760000000  0.5488510000000 1.0
C      1  0.4704340000000  0.5523340000000  0.5422650000000 1.0
C      1  0.5433390000000  0.5869220000000  0.5331320000000 1.0
C      1  0.5269780000000  0.3949580000000  0.5019450000000 1.0
C      1  0.4110490000000  0.5205700000000  0.5376330000000 1.0
C      1  0.4279380000000  0.4512080000000  0.4250890000000 1.0
C      1  0.4530380000000  0.4858720000000  0.4028610000000 1.0
C      1  0.5595010000000  0.5620700000000  0.5292840000000 1.0
C      1  0.5098580000000  0.4377350000000  0.4621100000000 1.0
C      1  0.4895730000000  0.5160880000000  0.5080580000000 1.0
C      1  0.4422210000000  0.4830580000000  0.5406240000000 1.0
C      1  0.4965670000000  0.5047880000000  0.5885510000000 1.0
C      1  0.4805690000000  0.5126570000000  0.6091760000000 1.0
C      1  0.5431250000000  0.4697850000000  0.5767170000000 1.0
C      1  0.5696950000000  0.4857430000000  0.5297930000000 1.0
C      1  0.4671620000000  0.6126160000000  0.5039790000000 1.0
C      1  0.6089710000000  0.4851950000000  0.5076470000000 1.0
C      1  0.5113420000000  0.4930050000000  0.4500000000000 1.0
C      1  0.5055960000000  0.4181060000000  0.5478730000000 1.0
C      1  0.4847040000000  0.4668980000000  0.5646130000000 1.0
C      1  0.5339030000000  0.5412280000000  0.5719910000000 1.0
C      1  0.4620470000000  0.4663760000000  0.4882540000000 1.0
C      1  0.4601750000000  0.5797370000000  0.4708580000000 1.0
C      1  0.4927210000000  0.5416670000000  0.5275430000000 1.0
C      1  0.5046740000000  0.3986610000000  0.5225850000000 1.0
C      1  0.5919470000000  0.5483710000000  0.4722860000000 1.0
C      1  0.4852250000000  0.5617840000000  0.4174530000000 1.0
C      1  0.4797380000000  0.4998030000000  0.4060490000000 1.0
C      1  0.4984530000000  0.4760530000000  0.4056820000000 1.0
C      1  0.5561240000000  0.5864100000000  0.4618880000000 1.0
C      1  0.4040130000000  0.4442320000000  0.5401080000000 1.0
C      1  0.5361970000000  0.5839600000000  0.4400370000000 1.0
C      1  0.5367880000000  0.4689360000000  0.4810660000000 1.0
C      1  0.6147910000000  0.5113270000000  0.4973830000000 1.0
C      1  0.5850130000000  0.5290500000000  0.5525640000000 1.0
C      1  0.5003560000000  0.5619440000000  0.5048650000000 1.0
C      1  0.4321620000000  0.5472220000000  0.4716540000000 1.0
C      1  0.5841890000000  0.4380140000000  0.4797090000000 1.0
C      1  0.5139850000000  0.5024440000000  0.5066910000000 1.0
C      1  0.5860590000000  0.5491030000000  0.5303630000000 1.0
C      1  0.4795520000000  0.4994790000000  0.4548060000000 1.0
C      1  0.5176750000000  0.5390410000000  0.4684380000000 1.0
C      1  0.4409660000000  0.4143950000000  0.5224970000000 1.0
C      1  0.5212250000000  0.5867130000000  0.5522070000000 1.0
C      1  0.4833230000000  0.4132480000000  0.4845980000000 1.0
C      1  0.4580660000000  0.4947180000000  0.6014780000000 1.0
C      1  0.5111030000000  0.5978470000000  0.4459910000000 1.0
C      1  0.4413370000000  0.4853060000000  0.5097260000000 1.0
C      1  0.5277490000000  0.5140400000000  0.4603490000000 1.0
C      1  0.5247220000000  0.4354820000000  0.4244640000000 1.0
C      1  0.4456350000000  0.5936150000000  0.5457460000000 1.0
C      1  0.5772710000000  0.5686300000000  0.4650300000000 1.0
C      1  0.4993410000000  0.4477350000000  0.4135090000000 1.0
C      1  0.5147640000000  0.4758950000000  0.4977190000000 1.0
C      1  0.4432200000000  0.6036040000000  0.5179030000000 1.0
C      1  0.4786000000000  0.4511980000000  0.5282150000000 1.0
C      1  0.5010690000000  0.6089260000000  0.4720880000000 1.0
C      1  0.4723840000000  0.4390920000000  0.4195250000000 1.0
C      1  0.4238040000000  0.4612720000000  0.5559500000000 1.0
C      1  0.5615560000000  0.5124710000000  0.4240440000000 1.0
C      1  0.5375370000000  0.5610770000000  0.4214360000000 1.0
END
