TITL C-3909772-8580-2 5.98549906051521 125000 -10524.6896401646 0 0 72 (C1) n - 1
REM
REM in /home/nfs/bkarasulu/CARBON/AIRSS/Generating-Clusters/ReaxFF-fromJPCA2015/Units_Real/with-SteepDescent/Only-C1/SD-CG/Try1-3A/FIRE-CG
REM
REM
REM
REM
REM
REM ./C.cell (11c1c37f851c82e70ff6c80c92926a4b)
REM
REM compiler GCC version 9.2.1 20190827 (Red Hat 9.2.1-1)
REM options -cpp -mtune=generic -march=x86-64 -g -O0 -fpre-include=/usr/include/finclude/math-vector-fortran.h
REM seed -618533610 2015424893 408422204 618878818 917846215 -1943684669 -1972601710 1679753334 -1045186612 18835778 1320675008 -1272931086 -87047948 673245216 -886597456 1179398236 -1284513605 1474899494 810185004 498710893 -1072916400 1475054973 604304065 -2113864383 -226216210 -2101042450 -1650234754 1674863054 372775197 -880795336 -501369427 -1996696115 1904464038
REM
CELL 1.54180   50.00000   50.00000   50.00000   90.00000   90.00000   90.00000
LATT -1
SFAC C  
C      1  0.5748680000000  0.5209660000000  0.4806190000000 1.0
C      1  0.4720340000000  0.5264700000000  0.4166640000000 1.0
C      1  0.5649180000000  0.5241980000000  0.5090430000000 1.0
C      1  0.5278220000000  0.4449810000000  0.4630890000000 1.0
C      1  0.5176530000000  0.4278120000000  0.5148190000000 1.0
C      1  0.5846020000000  0.4724810000000  0.5015090000000 1.0
C      1  0.5679010000000  0.4772300000000  0.5258690000000 1.0
C      1  0.4200070000000  0.4915450000000  0.4929490000000 1.0
C      1  0.5156880000000  0.5691400000000  0.4964380000000 1.0
C      1  0.5237000000000  0.5354060000000  0.4264970000000 1.0
C      1  0.5011900000000  0.4964970000000  0.4341160000000 1.0
C      1  0.4024170000000  0.4940000000000  0.5180110000000 1.0
C      1  0.4892550000000  0.4615070000000  0.5206540000000 1.0
C      1  0.4951180000000  0.5431790000000  0.4267960000000 1.0
C      1  0.4328940000000  0.4495380000000  0.4665070000000 1.0
C      1  0.5211250000000  0.5552910000000  0.5462040000000 1.0
C      1  0.5020280000000  0.4444640000000  0.4609620000000 1.0
C      1  0.4972270000000  0.5139080000000  0.4575790000000 1.0
C      1  0.5316130000000  0.5327340000000  0.5616030000000 1.0
C      1  0.4962510000000  0.4478290000000  0.5459240000000 1.0
C      1  0.4910140000000  0.5727310000000  0.5145570000000 1.0
C      1  0.4922590000000  0.5585980000000  0.5415560000000 1.0
C      1  0.5378740000000  0.5347990000000  0.5100990000000 1.0
C      1  0.5371190000000  0.5446920000000  0.4511630000000 1.0
C      1  0.4453800000000  0.5453610000000  0.5009040000000 1.0
C      1  0.4526350000000  0.4563990000000  0.4440350000000 1.0
C      1  0.5692290000000  0.4575230000000  0.4808290000000 1.0
C      1  0.4566380000000  0.4458860000000  0.4849490000000 1.0
C      1  0.4131740000000  0.4789900000000  0.5408000000000 1.0
C      1  0.5620330000000  0.4870740000000  0.5879430000000 1.0
C      1  0.4645800000000  0.5166910000000  0.5688030000000 1.0
C      1  0.5122680000000  0.5184310000000  0.5168450000000 1.0
C      1  0.5110790000000  0.4854040000000  0.5761590000000 1.0
C      1  0.4608860000000  0.5178240000000  0.4987960000000 1.0
C      1  0.4468920000000  0.5241850000000  0.4289160000000 1.0
C      1  0.5370150000000  0.4876870000000  0.4788770000000 1.0
C      1  0.4662380000000  0.5619480000000  0.5088780000000 1.0
C      1  0.4393610000000  0.4761650000000  0.5548940000000 1.0
C      1  0.5487850000000  0.4692430000000  0.4609250000000 1.0
C      1  0.5171020000000  0.5572590000000  0.4695070000000 1.0
C      1  0.5442420000000  0.4589260000000  0.5238160000000 1.0
C      1  0.4890850000000  0.5212560000000  0.5012780000000 1.0
C      1  0.4941250000000  0.5439580000000  0.4561680000000 1.0
C      1  0.5502660000000  0.4979240000000  0.4426390000000 1.0
C      1  0.5567580000000  0.5228540000000  0.4560540000000 1.0
C      1  0.5153520000000  0.4707840000000  0.5143320000000 1.0
C      1  0.4645050000000  0.4853020000000  0.5652400000000 1.0
C      1  0.5538340000000  0.4414410000000  0.4993310000000 1.0
C      1  0.5851810000000  0.4957780000000  0.4859710000000 1.0
C      1  0.5281650000000  0.5056640000000  0.4255430000000 1.0
C      1  0.5176230000000  0.5077010000000  0.4779030000000 1.0
C      1  0.5515960000000  0.5122400000000  0.5572650000000 1.0
C      1  0.5327540000000  0.5620590000000  0.5191970000000 1.0
C      1  0.5412640000000  0.4852840000000  0.5717080000000 1.0
C      1  0.5082840000000  0.5150010000000  0.5718070000000 1.0
C      1  0.4200670000000  0.5395260000000  0.5127020000000 1.0
C      1  0.5657860000000  0.5052910000000  0.5323990000000 1.0
C      1  0.5301530000000  0.4278480000000  0.4885700000000 1.0
C      1  0.4637600000000  0.4662690000000  0.5052110000000 1.0
C      1  0.4895000000000  0.4696150000000  0.5662270000000 1.0
C      1  0.4758380000000  0.5341490000000  0.5459640000000 1.0
C      1  0.4315880000000  0.5036580000000  0.4404420000000 1.0
C      1  0.4498840000000  0.4911880000000  0.5004730000000 1.0
C      1  0.4058870000000  0.5218500000000  0.5176050000000 1.0
C      1  0.4747810000000  0.4431370000000  0.4601840000000 1.0
C      1  0.5127190000000  0.4821470000000  0.4889260000000 1.0
C      1  0.4527230000000  0.4832200000000  0.4318950000000 1.0
C      1  0.5234680000000  0.4388460000000  0.5400050000000 1.0
C      1  0.4158680000000  0.5020200000000  0.4662130000000 1.0
C      1  0.4758960000000  0.4966800000000  0.4191300000000 1.0
C      1  0.4971910000000  0.5151450000000  0.5418190000000 1.0
C      1  0.4819830000000  0.5271710000000  0.5886950000000 1.0
END
