TITL C-3909786-8783-14 107.510166670144 125000 -29143.8503759445 0 0 195 (C1) n - 1
REM
REM in /home/nfs/bkarasulu/CARBON/AIRSS/Generating-Clusters/ReaxFF-fromJPCA2015/Units_Real/with-SteepDescent/Only-C1/SD-CG/Try1-3A/FIRE-CG
REM
REM
REM
REM
REM
REM ./C.cell (11c1c37f851c82e70ff6c80c92926a4b)
REM
REM compiler GCC version 9.2.1 20190827 (Red Hat 9.2.1-1)
REM options -cpp -mtune=generic -march=x86-64 -g -O0 -fpre-include=/usr/include/finclude/math-vector-fortran.h
REM seed -1247209522 -453607194 2004559816 -285448335 -364562840 707096558 -55920702 -1251909906 -338702448 1154836741 1069030033 -1838740108 1878143279 -635164148 741166060 -1401535510 1887454237 2089862360 -2110335028 -520581438 2057852498 -1900753532 1467456211 1451381870 -212170443 2121818170 1470951128 1863570928 1419253404 1032811310 -995834139 665750843 -2042252785
REM
CELL 1.54180   50.00000   50.00000   50.00000   90.00000   90.00000   90.00000
LATT -1
SFAC C  
C      1  0.5108520000000  0.4016980000000  0.5625880000000 1.0
C      1  0.5726700000000  0.5453030000000  0.4352740000000 1.0
C      1  0.5714630000000  0.4204140000000  0.5406730000000 1.0
C      1  0.4190150000000  0.5044030000000  0.5836680000000 1.0
C      1  0.3980750000000  0.5285090000000  0.5491500000000 1.0
C      1  0.4239670000000  0.3973450000000  0.4710740000000 1.0
C      1  0.4149550000000  0.4750550000000  0.5498460000000 1.0
C      1  0.5789870000000  0.5760850000000  0.5358940000000 1.0
C      1  0.4562530000000  0.5979020000000  0.5102860000000 1.0
C      1  0.4564320000000  0.5120270000000  0.3959680000000 1.0
C      1  0.5978080000000  0.5087340000000  0.5228080000000 1.0
C      1  0.4699350000000  0.4615840000000  0.4613790000000 1.0
C      1  0.4994240000000  0.4268710000000  0.6000090000000 1.0
C      1  0.5829900000000  0.4799480000000  0.4143510000000 1.0
C      1  0.4888150000000  0.5834560000000  0.4517830000000 1.0
C      1  0.4323900000000  0.5175530000000  0.4804120000000 1.0
C      1  0.4752580000000  0.6034740000000  0.4880730000000 1.0
C      1  0.4406690000000  0.4402340000000  0.5492300000000 1.0
C      1  0.5940070000000  0.5661040000000  0.4929280000000 1.0
C      1  0.6025710000000  0.5408380000000  0.4818490000000 1.0
C      1  0.5572710000000  0.4443640000000  0.5471400000000 1.0
C      1  0.5168230000000  0.5169420000000  0.5624060000000 1.0
C      1  0.5441330000000  0.5124840000000  0.5748870000000 1.0
C      1  0.5223130000000  0.4713620000000  0.4867320000000 1.0
C      1  0.4871980000000  0.4535260000000  0.3852560000000 1.0
C      1  0.5657520000000  0.5617770000000  0.5584790000000 1.0
C      1  0.4639020000000  0.5960300000000  0.4620910000000 1.0
C      1  0.4760580000000  0.5762380000000  0.5738310000000 1.0
C      1  0.4028770000000  0.4994260000000  0.5144500000000 1.0
C      1  0.5764100000000  0.4359580000000  0.4526200000000 1.0
C      1  0.4886720000000  0.4876230000000  0.4492530000000 1.0
C      1  0.4849190000000  0.4111640000000  0.4735330000000 1.0
C      1  0.4201170000000  0.4318210000000  0.5280590000000 1.0
C      1  0.5408920000000  0.4787080000000  0.4282540000000 1.0
C      1  0.5398600000000  0.5026930000000  0.4441850000000 1.0
C      1  0.5259320000000  0.4872910000000  0.3777550000000 1.0
C      1  0.4946040000000  0.5631970000000  0.4084660000000 1.0
C      1  0.5043520000000  0.3878560000000  0.5368420000000 1.0
C      1  0.3833630000000  0.4867160000000  0.5057240000000 1.0
C      1  0.5274780000000  0.3934450000000  0.5252450000000 1.0
C      1  0.4527260000000  0.5401030000000  0.3971870000000 1.0
C      1  0.4454580000000  0.5407620000000  0.5635640000000 1.0
C      1  0.5891800000000  0.4309980000000  0.4738630000000 1.0
C      1  0.6056800000000  0.4876140000000  0.4309990000000 1.0
C      1  0.5147380000000  0.4708880000000  0.5329550000000 1.0
C      1  0.4242150000000  0.5789930000000  0.5579560000000 1.0
C      1  0.4263590000000  0.5319540000000  0.5064730000000 1.0
C      1  0.4847110000000  0.4928560000000  0.4211130000000 1.0
C      1  0.5287690000000  0.4473240000000  0.3882980000000 1.0
C      1  0.5539980000000  0.5217800000000  0.5021000000000 1.0
C      1  0.5099310000000  0.4485730000000  0.4788270000000 1.0
C      1  0.4822530000000  0.4383100000000  0.4854170000000 1.0
C      1  0.4219650000000  0.5443890000000  0.4266430000000 1.0
C      1  0.6062410000000  0.5009810000000  0.5511180000000 1.0
C      1  0.4743390000000  0.5615880000000  0.5999330000000 1.0
C      1  0.4049890000000  0.4555000000000  0.5221490000000 1.0
C      1  0.4803060000000  0.3880920000000  0.5197180000000 1.0
C      1  0.5931550000000  0.4302340000000  0.5244950000000 1.0
C      1  0.5455400000000  0.5071990000000  0.3885310000000 1.0
C      1  0.5876360000000  0.4193060000000  0.4976030000000 1.0
C      1  0.5278940000000  0.4682640000000  0.5946250000000 1.0
C      1  0.5491600000000  0.4761420000000  0.4844050000000 1.0
C      1  0.4410940000000  0.4722720000000  0.4950700000000 1.0
C      1  0.5595960000000  0.4763030000000  0.5114280000000 1.0
C      1  0.5437770000000  0.3983770000000  0.5073660000000 1.0
C      1  0.4654060000000  0.4095290000000  0.5267090000000 1.0
C      1  0.5661750000000  0.5941510000000  0.5157780000000 1.0
C      1  0.5422930000000  0.4640810000000  0.5320620000000 1.0
C      1  0.5923880000000  0.5197400000000  0.5692650000000 1.0
C      1  0.4699410000000  0.5393280000000  0.5184410000000 1.0
C      1  0.5536490000000  0.5904300000000  0.4660000000000 1.0
C      1  0.5420740000000  0.4082090000000  0.4657710000000 1.0
C      1  0.4645130000000  0.5637300000000  0.4072960000000 1.0
C      1  0.4138850000000  0.4170200000000  0.4603530000000 1.0
C      1  0.4400810000000  0.5820990000000  0.4524110000000 1.0
C      1  0.4751640000000  0.4340220000000  0.5147550000000 1.0
C      1  0.5392330000000  0.5523810000000  0.5960810000000 1.0
C      1  0.6097930000000  0.4898220000000  0.4875580000000 1.0
C      1  0.5901860000000  0.4777880000000  0.5107400000000 1.0
C      1  0.5538120000000  0.4989240000000  0.4700120000000 1.0
C      1  0.4378740000000  0.4945890000000  0.4126630000000 1.0
C      1  0.5514970000000  0.5408090000000  0.4824880000000 1.0
C      1  0.5443060000000  0.5393180000000  0.4267170000000 1.0
C      1  0.5737790000000  0.5288810000000  0.5250520000000 1.0
C      1  0.4042540000000  0.5010550000000  0.4425260000000 1.0
C      1  0.5115080000000  0.4874260000000  0.5073940000000 1.0
C      1  0.5498330000000  0.4829120000000  0.5819540000000 1.0
C      1  0.4420850000000  0.5496090000000  0.5236180000000 1.0
C      1  0.5064100000000  0.4845510000000  0.6068990000000 1.0
C      1  0.5862690000000  0.5271300000000  0.4138650000000 1.0
C      1  0.5996390000000  0.4874770000000  0.4603960000000 1.0
C      1  0.4551330000000  0.4313410000000  0.5974230000000 1.0
C      1  0.4891130000000  0.4694970000000  0.5465910000000 1.0
C      1  0.4859110000000  0.4988720000000  0.5011500000000 1.0
C      1  0.4655270000000  0.6036590000000  0.5370820000000 1.0
C      1  0.4763920000000  0.4272870000000  0.4277620000000 1.0
C      1  0.5157070000000  0.5288730000000  0.4646490000000 1.0
C      1  0.4859480000000  0.5311520000000  0.6040950000000 1.0
C      1  0.4734600000000  0.5097530000000  0.5234810000000 1.0
C      1  0.5606750000000  0.5753960000000  0.4419430000000 1.0
C      1  0.4425720000000  0.3944450000000  0.4922440000000 1.0
C      1  0.5613560000000  0.4037810000000  0.4874880000000 1.0
C      1  0.5124920000000  0.5038260000000  0.4558920000000 1.0
C      1  0.4804020000000  0.4708670000000  0.6114760000000 1.0
C      1  0.3937100000000  0.4621200000000  0.4961320000000 1.0
C      1  0.4953290000000  0.4144620000000  0.4463290000000 1.0
C      1  0.5723170000000  0.5866570000000  0.4881250000000 1.0
C      1  0.5309780000000  0.4731010000000  0.4024270000000 1.0
C      1  0.4876630000000  0.4278090000000  0.4003240000000 1.0
C      1  0.4756530000000  0.5038770000000  0.4744060000000 1.0
C      1  0.4241780000000  0.4550860000000  0.5689640000000 1.0
C      1  0.5556940000000  0.4344980000000  0.4363480000000 1.0
C      1  0.4511410000000  0.5906300000000  0.5592900000000 1.0
C      1  0.4724010000000  0.3910280000000  0.4918300000000 1.0
C      1  0.5233900000000  0.4391260000000  0.5920340000000 1.0
C      1  0.6127440000000  0.5153420000000  0.4204820000000 1.0
C      1  0.5270210000000  0.5529620000000  0.4708970000000 1.0
C      1  0.5673720000000  0.5310810000000  0.5567890000000 1.0
C      1  0.5766220000000  0.5345550000000  0.4653420000000 1.0
C      1  0.5398530000000  0.5690570000000  0.4238240000000 1.0
C      1  0.4926170000000  0.5596120000000  0.5197370000000 1.0
C      1  0.5061720000000  0.6084150000000  0.4894610000000 1.0
C      1  0.4035830000000  0.4543680000000  0.4653290000000 1.0
C      1  0.5781560000000  0.4733660000000  0.5795880000000 1.0
C      1  0.4078030000000  0.5480280000000  0.4519110000000 1.0
C      1  0.4899450000000  0.4075390000000  0.5815610000000 1.0
C      1  0.5276270000000  0.4154870000000  0.4439570000000 1.0
C      1  0.5346630000000  0.5258090000000  0.6020390000000 1.0
C      1  0.5721720000000  0.5040130000000  0.4013700000000 1.0
C      1  0.4494130000000  0.4125730000000  0.5508950000000 1.0
C      1  0.5997380000000  0.4579720000000  0.5310420000000 1.0
C      1  0.5257330000000  0.6040440000000  0.4674590000000 1.0
C      1  0.4538090000000  0.4836250000000  0.4726680000000 1.0
C      1  0.5162510000000  0.4289520000000  0.4078150000000 1.0
C      1  0.4558080000000  0.5261450000000  0.6104980000000 1.0
C      1  0.4120940000000  0.4727460000000  0.4442530000000 1.0
C      1  0.5880040000000  0.4984560000000  0.5878140000000 1.0
C      1  0.5183040000000  0.5545860000000  0.5298930000000 1.0
C      1  0.4024360000000  0.5026720000000  0.5631240000000 1.0
C      1  0.4854720000000  0.5141020000000  0.4008650000000 1.0
C      1  0.5109700000000  0.6006540000000  0.4424680000000 1.0
C      1  0.5040470000000  0.5373790000000  0.3998410000000 1.0
C      1  0.4408870000000  0.4881610000000  0.5411780000000 1.0
C      1  0.5897420000000  0.5552340000000  0.5196740000000 1.0
C      1  0.5005200000000  0.5937400000000  0.5658800000000 1.0
C      1  0.4423620000000  0.5657940000000  0.4279090000000 1.0
C      1  0.5107730000000  0.4533510000000  0.4531110000000 1.0
C      1  0.4616970000000  0.4113250000000  0.5775150000000 1.0
C      1  0.5142070000000  0.5829000000000  0.4188540000000 1.0
C      1  0.4946180000000  0.6060750000000  0.5406180000000 1.0
C      1  0.6119220000000  0.5171040000000  0.4963030000000 1.0
C      1  0.4388040000000  0.5029460000000  0.6041610000000 1.0
C      1  0.4696030000000  0.4927110000000  0.5464420000000 1.0
C      1  0.4000400000000  0.5449230000000  0.5035770000000 1.0
C      1  0.4326510000000  0.4208350000000  0.5037310000000 1.0
C      1  0.5326680000000  0.5297840000000  0.4009910000000 1.0
C      1  0.4193430000000  0.5147120000000  0.4216410000000 1.0
C      1  0.5509720000000  0.5733580000000  0.5841190000000 1.0
C      1  0.5021400000000  0.5694310000000  0.4732430000000 1.0
C      1  0.5983840000000  0.4731510000000  0.5562000000000 1.0
C      1  0.4490820000000  0.5488380000000  0.5938440000000 1.0
C      1  0.4528580000000  0.4770440000000  0.6053010000000 1.0
C      1  0.4362240000000  0.5758640000000  0.5119100000000 1.0
C      1  0.5218530000000  0.5258470000000  0.5350410000000 1.0
C      1  0.4359490000000  0.4690770000000  0.4274120000000 1.0
C      1  0.5365280000000  0.5747260000000  0.5434050000000 1.0
C      1  0.4884750000000  0.4673420000000  0.4108150000000 1.0
C      1  0.3886810000000  0.5244080000000  0.5215910000000 1.0
C      1  0.5111520000000  0.4621680000000  0.3703090000000 1.0
C      1  0.4168230000000  0.5716340000000  0.4669500000000 1.0
C      1  0.4563100000000  0.4488220000000  0.4381270000000 1.0
C      1  0.5571020000000  0.4238050000000  0.5645320000000 1.0
C      1  0.4854170000000  0.5659410000000  0.4935620000000 1.0
C      1  0.4379190000000  0.4544810000000  0.5941670000000 1.0
C      1  0.4579770000000  0.5272450000000  0.4705920000000 1.0
C      1  0.4267970000000  0.4406660000000  0.4624710000000 1.0
C      1  0.5622830000000  0.4600010000000  0.4228210000000 1.0
C      1  0.4692970000000  0.4525000000000  0.5351780000000 1.0
C      1  0.4121130000000  0.5707630000000  0.4959250000000 1.0
C      1  0.5780520000000  0.5063690000000  0.4643080000000 1.0
C      1  0.4328090000000  0.4926730000000  0.5139670000000 1.0
C      1  0.5339310000000  0.5090110000000  0.5149030000000 1.0
C      1  0.4740350000000  0.5464680000000  0.5600340000000 1.0
C      1  0.4082860000000  0.5209570000000  0.4635750000000 1.0
C      1  0.4370790000000  0.4447470000000  0.4887320000000 1.0
C      1  0.4176350000000  0.5492710000000  0.5577790000000 1.0
C      1  0.4676710000000  0.5455370000000  0.4893120000000 1.0
C      1  0.5094720000000  0.5132580000000  0.6110760000000 1.0
C      1  0.5271470000000  0.5843660000000  0.5713150000000 1.0
C      1  0.5137900000000  0.6092770000000  0.5173990000000 1.0
C      1  0.5396970000000  0.5993310000000  0.5259280000000 1.0
C      1  0.5081880000000  0.4517490000000  0.4267370000000 1.0
C      1  0.4788040000000  0.4420010000000  0.6099690000000 1.0
C      1  0.5317460000000  0.4190440000000  0.5731650000000 1.0
C      1  0.4926990000000  0.5285820000000  0.5732040000000 1.0
END
