TITL C-3909779-8285-14 -9.78061002910822 125000 -15105.5464689176 0 0 100 (C1) n - 1
REM
REM in /home/nfs/bkarasulu/CARBON/AIRSS/Generating-Clusters/ReaxFF-fromJPCA2015/Units_Real/with-SteepDescent/Only-C1/SD-CG/Try1-3A/FIRE-CG
REM
REM
REM
REM
REM
REM ./C.cell (11c1c37f851c82e70ff6c80c92926a4b)
REM
REM compiler GCC version 9.2.1 20190827 (Red Hat 9.2.1-1)
REM options -cpp -mtune=generic -march=x86-64 -g -O0 -fpre-include=/usr/include/finclude/math-vector-fortran.h
REM seed -1410203775 1963893668 2120804857 -549738531 -2062243746 1547726369 53313616 2076723042 -395553156 -1966137060 473916772 -88453239 1297971295 1106176016 756384099 -1172771872 -1983696908 621904580 -2074962604 1691074673 -750783204 2072734547 752821649 -1047293857 -1457945650 577423531 2033230483 722114564 -1172702265 -2059212584 -1907420790 1506338064 -1380361747
REM
CELL 1.54180   50.00000   50.00000   50.00000   90.00000   90.00000   90.00000
LATT -1
SFAC C  
C      1  0.5315610000000  0.5424280000000  0.4269440000000 1.0
C      1  0.4841190000000  0.4542790000000  0.4909100000000 1.0
C      1  0.5039380000000  0.5213140000000  0.5839560000000 1.0
C      1  0.5152450000000  0.4951160000000  0.4760790000000 1.0
C      1  0.5556720000000  0.4993210000000  0.4235210000000 1.0
C      1  0.5091860000000  0.5926950000000  0.5079880000000 1.0
C      1  0.4204990000000  0.4964340000000  0.4690480000000 1.0
C      1  0.5428510000000  0.5497080000000  0.5489950000000 1.0
C      1  0.5349150000000  0.5185320000000  0.4128270000000 1.0
C      1  0.5124980000000  0.5389550000000  0.5073570000000 1.0
C      1  0.5319170000000  0.4326630000000  0.4989150000000 1.0
C      1  0.4557040000000  0.4852130000000  0.4350700000000 1.0
C      1  0.5360650000000  0.4280890000000  0.5263890000000 1.0
C      1  0.5358180000000  0.4813910000000  0.5827120000000 1.0
C      1  0.5827950000000  0.4819270000000  0.5162410000000 1.0
C      1  0.5793960000000  0.5374150000000  0.5241390000000 1.0
C      1  0.5050520000000  0.5190730000000  0.4896680000000 1.0
C      1  0.4645540000000  0.5514990000000  0.4546440000000 1.0
C      1  0.4785060000000  0.4826530000000  0.5228780000000 1.0
C      1  0.4661180000000  0.4112220000000  0.5104460000000 1.0
C      1  0.5679600000000  0.5062900000000  0.4479830000000 1.0
C      1  0.4891470000000  0.4960420000000  0.5846450000000 1.0
C      1  0.5084460000000  0.4577790000000  0.5559570000000 1.0
C      1  0.5263870000000  0.4834820000000  0.5181920000000 1.0
C      1  0.5813220000000  0.5313480000000  0.4976600000000 1.0
C      1  0.4459200000000  0.5405840000000  0.5629830000000 1.0
C      1  0.5112570000000  0.5016200000000  0.4057540000000 1.0
C      1  0.5015050000000  0.5285480000000  0.5342020000000 1.0
C      1  0.5490730000000  0.5290000000000  0.4610870000000 1.0
C      1  0.4250430000000  0.4945680000000  0.5475510000000 1.0
C      1  0.5317450000000  0.5751930000000  0.5395750000000 1.0
C      1  0.4275420000000  0.5240120000000  0.4669810000000 1.0
C      1  0.4815720000000  0.5311800000000  0.4846330000000 1.0
C      1  0.5508590000000  0.4344940000000  0.4786350000000 1.0
C      1  0.5513980000000  0.4693220000000  0.5609550000000 1.0
C      1  0.5461660000000  0.4714540000000  0.4171730000000 1.0
C      1  0.5169910000000  0.4739640000000  0.4117330000000 1.0
C      1  0.4856270000000  0.5717080000000  0.4624530000000 1.0
C      1  0.5379600000000  0.5581670000000  0.4485730000000 1.0
C      1  0.4866920000000  0.5843100000000  0.4908250000000 1.0
C      1  0.4867500000000  0.4110180000000  0.5294830000000 1.0
C      1  0.5729290000000  0.5431960000000  0.5506180000000 1.0
C      1  0.4411770000000  0.5117520000000  0.5664230000000 1.0
C      1  0.5050060000000  0.4343030000000  0.4453480000000 1.0
C      1  0.5350600000000  0.4314040000000  0.4532540000000 1.0
C      1  0.4983460000000  0.4548710000000  0.4251030000000 1.0
C      1  0.4340110000000  0.4492320000000  0.4531810000000 1.0
C      1  0.5280190000000  0.4753970000000  0.4903400000000 1.0
C      1  0.5777240000000  0.4888780000000  0.4685860000000 1.0
C      1  0.5676400000000  0.4898990000000  0.5441620000000 1.0
C      1  0.5076590000000  0.4733230000000  0.5806610000000 1.0
C      1  0.5766560000000  0.5150070000000  0.5609220000000 1.0
C      1  0.4555800000000  0.5075920000000  0.4120180000000 1.0
C      1  0.4297430000000  0.4775350000000  0.4484520000000 1.0
C      1  0.4698920000000  0.4591120000000  0.4251640000000 1.0
C      1  0.4665610000000  0.5786730000000  0.5100290000000 1.0
C      1  0.4300000000000  0.5420780000000  0.5387110000000 1.0
C      1  0.4633470000000  0.4930860000000  0.5714120000000 1.0
C      1  0.5364140000000  0.5807920000000  0.5108310000000 1.0
C      1  0.4498810000000  0.4247570000000  0.5273730000000 1.0
C      1  0.4206780000000  0.4845270000000  0.4971990000000 1.0
C      1  0.4303600000000  0.4449540000000  0.5286380000000 1.0
C      1  0.5034900000000  0.4725280000000  0.5312460000000 1.0
C      1  0.4716730000000  0.5550830000000  0.5590610000000 1.0
C      1  0.5365320000000  0.5537330000000  0.4998230000000 1.0
C      1  0.4204690000000  0.5621670000000  0.5207940000000 1.0
C      1  0.4515920000000  0.5203460000000  0.5214790000000 1.0
C      1  0.5564480000000  0.5181830000000  0.5795000000000 1.0
C      1  0.4754580000000  0.5249100000000  0.4590120000000 1.0
C      1  0.5108400000000  0.5660640000000  0.4518430000000 1.0
C      1  0.5116950000000  0.4176390000000  0.5332610000000 1.0
C      1  0.5039400000000  0.5865850000000  0.5365070000000 1.0
C      1  0.5858240000000  0.5008320000000  0.4937180000000 1.0
C      1  0.4582700000000  0.4372860000000  0.4394250000000 1.0
C      1  0.4379090000000  0.5499990000000  0.4669010000000 1.0
C      1  0.5427800000000  0.5017270000000  0.5326410000000 1.0
C      1  0.4794140000000  0.4249660000000  0.4553160000000 1.0
C      1  0.4769320000000  0.5751800000000  0.5374650000000 1.0
C      1  0.5302710000000  0.5249380000000  0.5419110000000 1.0
C      1  0.4265630000000  0.5015560000000  0.5196070000000 1.0
C      1  0.4695550000000  0.4965240000000  0.4623230000000 1.0
C      1  0.5234500000000  0.5184890000000  0.4663580000000 1.0
C      1  0.4773830000000  0.5094830000000  0.5302370000000 1.0
C      1  0.5433540000000  0.4497760000000  0.4346060000000 1.0
C      1  0.4250220000000  0.4558110000000  0.5009360000000 1.0
C      1  0.5121810000000  0.4507490000000  0.4923160000000 1.0
C      1  0.5356660000000  0.4471780000000  0.5506090000000 1.0
C      1  0.4958440000000  0.5400220000000  0.5633780000000 1.0
C      1  0.4376300000000  0.4404180000000  0.4801600000000 1.0
C      1  0.5319260000000  0.5106710000000  0.5899380000000 1.0
C      1  0.4631410000000  0.4748710000000  0.5481440000000 1.0
C      1  0.5585260000000  0.4635940000000  0.4759090000000 1.0
C      1  0.5736990000000  0.4612180000000  0.5001660000000 1.0
C      1  0.4665490000000  0.4294840000000  0.4830420000000 1.0
C      1  0.5588850000000  0.5450810000000  0.4828880000000 1.0
C      1  0.4352210000000  0.4670600000000  0.5480410000000 1.0
C      1  0.4585250000000  0.5363810000000  0.4993240000000 1.0
C      1  0.4430860000000  0.5624860000000  0.4982050000000 1.0
C      1  0.4829890000000  0.5115980000000  0.4042380000000 1.0
C      1  0.4748120000000  0.4810070000000  0.4854860000000 1.0
END
