TITL C-3909648-4458-19 1.74946600692388 125000 -2741.80521594203 0 0 20 (C1) n - 1
REM
REM in /home/nfs/bkarasulu/CARBON/AIRSS/Generating-Clusters/ReaxFF-fromJPCA2015/Units_Real/with-SteepDescent/Only-C1/SD-CG/Try1-3A/FIRE-CG
REM
REM
REM
REM
REM
REM ./C.cell (11c1c37f851c82e70ff6c80c92926a4b)
REM
REM compiler GCC version 9.2.1 20190827 (Red Hat 9.2.1-1)
REM options -cpp -mtune=generic -march=x86-64 -g -O0 -fpre-include=/usr/include/finclude/math-vector-fortran.h
REM seed -839742007 -1932300924 1499328336 275454547 1305282406 -2038943734 -169204978 -756849947 719636090 -1953943492 -1753311986 320526815 1136302217 -1058590205 208209475 -835401976 -67915932 112182936 -1688055487 -1071326766 254903651 -1870968988 -322399323 1476966036 1086159516 -1012268465 -1857795398 -2031112192 -284088905 1507298454 -425760208 -1842566437 1265939071
REM
CELL 1.54180   50.00000   50.00000   50.00000   90.00000   90.00000   90.00000
LATT -1
SFAC C  
C      1  0.5004850000000  0.5239630000000  0.5143600000000 1.0
C      1  0.5747000000000  0.5002390000000  0.5132500000000 1.0
C      1  0.4594790000000  0.4961400000000  0.5168150000000 1.0
C      1  0.4524250000000  0.4544110000000  0.5117400000000 1.0
C      1  0.4443750000000  0.4797290000000  0.4977540000000 1.0
C      1  0.5412000000000  0.4944690000000  0.5081410000000 1.0
C      1  0.4615540000000  0.5413110000000  0.4931480000000 1.0
C      1  0.5020200000000  0.4834510000000  0.4557100000000 1.0
C      1  0.5287380000000  0.4711930000000  0.5271040000000 1.0
C      1  0.4505760000000  0.4833710000000  0.4663450000000 1.0
C      1  0.5360600000000  0.4886070000000  0.4802630000000 1.0
C      1  0.4775000000000  0.4834730000000  0.4591560000000 1.0
C      1  0.5674220000000  0.5258720000000  0.5185430000000 1.0
C      1  0.4710510000000  0.4724460000000  0.5291240000000 1.0
C      1  0.4726590000000  0.5232060000000  0.5120440000000 1.0
C      1  0.5477210000000  0.5459930000000  0.5219790000000 1.0
C      1  0.4521850000000  0.5565870000000  0.4772050000000 1.0
C      1  0.5010520000000  0.4696860000000  0.5295170000000 1.0
C      1  0.5259600000000  0.5225270000000  0.5161340000000 1.0
C      1  0.5328390000000  0.4833250000000  0.4516690000000 1.0
END
