TITL C-3909645-4886-22 1.28884486395938 125000 -14730.9964280686 0 0 99 (C1) n - 1
REM
REM in /home/nfs/bkarasulu/CARBON/AIRSS/Generating-Clusters/ReaxFF-fromJPCA2015/Units_Real/with-SteepDescent/Only-C1/SD-CG/Try1-3A/FIRE-CG
REM
REM
REM
REM
REM
REM ./C.cell (11c1c37f851c82e70ff6c80c92926a4b)
REM
REM compiler GCC version 9.2.1 20190827 (Red Hat 9.2.1-1)
REM options -cpp -mtune=generic -march=x86-64 -g -O0 -fpre-include=/usr/include/finclude/math-vector-fortran.h
REM seed 310619356 1939767286 1706960911 1673657912 -882083234 1445531839 -553711401 -1649321163 -595016705 620095061 1772641021 1113018086 995691731 -893528022 -1197678186 -80405411 -969885293 -1694477007 -2121895852 637902374 -5554133 -2136569758 1628269856 928362438 -1058434343 818816070 664972298 2085800693 -1358452199 1191019811 975733113 -1230913623 1207822558
REM
CELL 1.54180   50.00000   50.00000   50.00000   90.00000   90.00000   90.00000
LATT -1
SFAC C  
C      1  0.4639770000000  0.5354810000000  0.5791840000000 1.0
C      1  0.5771530000000  0.4657400000000  0.4636000000000 1.0
C      1  0.5201060000000  0.4419960000000  0.5320480000000 1.0
C      1  0.4907440000000  0.5585420000000  0.5482030000000 1.0
C      1  0.4815020000000  0.4151340000000  0.4575410000000 1.0
C      1  0.5353030000000  0.4876780000000  0.4180150000000 1.0
C      1  0.5388940000000  0.5780240000000  0.5157800000000 1.0
C      1  0.5345840000000  0.4971490000000  0.4787590000000 1.0
C      1  0.4736620000000  0.4577460000000  0.4307510000000 1.0
C      1  0.5192720000000  0.4400330000000  0.4351980000000 1.0
C      1  0.4558380000000  0.5009460000000  0.4887570000000 1.0
C      1  0.4867130000000  0.4902010000000  0.5805330000000 1.0
C      1  0.5379090000000  0.4870230000000  0.5752150000000 1.0
C      1  0.5613810000000  0.5417460000000  0.4661060000000 1.0
C      1  0.4628340000000  0.5063030000000  0.5794530000000 1.0
C      1  0.5767060000000  0.4603190000000  0.5149560000000 1.0
C      1  0.5078660000000  0.4971370000000  0.4149100000000 1.0
C      1  0.4755580000000  0.5833360000000  0.4628790000000 1.0
C      1  0.4299020000000  0.5554290000000  0.4810510000000 1.0
C      1  0.5064820000000  0.4454330000000  0.5764320000000 1.0
C      1  0.5597650000000  0.5232910000000  0.5486230000000 1.0
C      1  0.5800140000000  0.4892110000000  0.4438660000000 1.0
C      1  0.4978890000000  0.4339460000000  0.5505470000000 1.0
C      1  0.5151920000000  0.5784850000000  0.4982250000000 1.0
C      1  0.4466590000000  0.4962240000000  0.5568030000000 1.0
C      1  0.4513740000000  0.5734090000000  0.5681970000000 1.0
C      1  0.5093370000000  0.5073690000000  0.5342450000000 1.0
C      1  0.4634630000000  0.5694040000000  0.5016550000000 1.0
C      1  0.4736490000000  0.5419710000000  0.4968210000000 1.0
C      1  0.5256210000000  0.4683240000000  0.4376870000000 1.0
C      1  0.4383890000000  0.4304230000000  0.4910620000000 1.0
C      1  0.4354930000000  0.4945220000000  0.4687130000000 1.0
C      1  0.5120260000000  0.5132040000000  0.4628920000000 1.0
C      1  0.5874900000000  0.4710500000000  0.4905000000000 1.0
C      1  0.4818300000000  0.4616960000000  0.5775490000000 1.0
C      1  0.4497620000000  0.5764820000000  0.4762540000000 1.0
C      1  0.5567940000000  0.4753540000000  0.5355360000000 1.0
C      1  0.5024900000000  0.4130970000000  0.4779480000000 1.0
C      1  0.5540970000000  0.5199400000000  0.5196520000000 1.0
C      1  0.5483940000000  0.5392890000000  0.4964700000000 1.0
C      1  0.4613110000000  0.5126820000000  0.4268760000000 1.0
C      1  0.4703020000000  0.5803580000000  0.5480110000000 1.0
C      1  0.4862770000000  0.4911140000000  0.5228530000000 1.0
C      1  0.5017890000000  0.5880020000000  0.4746740000000 1.0
C      1  0.5310330000000  0.5602250000000  0.5383090000000 1.0
C      1  0.4406220000000  0.4222410000000  0.5211130000000 1.0
C      1  0.5170820000000  0.4526710000000  0.5050950000000 1.0
C      1  0.4712160000000  0.4462000000000  0.5533980000000 1.0
C      1  0.4610590000000  0.4580570000000  0.4565420000000 1.0
C      1  0.5025980000000  0.4886760000000  0.4425160000000 1.0
C      1  0.5331520000000  0.4583430000000  0.5747180000000 1.0
C      1  0.5161930000000  0.5479870000000  0.4994370000000 1.0
C      1  0.5671730000000  0.4371160000000  0.5040840000000 1.0
C      1  0.4296660000000  0.5369630000000  0.5108580000000 1.0
C      1  0.5348390000000  0.4677850000000  0.4867300000000 1.0
C      1  0.4360310000000  0.5396310000000  0.4607260000000 1.0
C      1  0.5514740000000  0.4523620000000  0.4675570000000 1.0
C      1  0.4791450000000  0.4604870000000  0.4799130000000 1.0
C      1  0.5991680000000  0.5069060000000  0.4573210000000 1.0
C      1  0.5609790000000  0.5659790000000  0.5006160000000 1.0
C      1  0.4554060000000  0.4172380000000  0.4711840000000 1.0
C      1  0.5601040000000  0.4955110000000  0.5587020000000 1.0
C      1  0.5084060000000  0.5418480000000  0.5292350000000 1.0
C      1  0.5316090000000  0.4095560000000  0.4740710000000 1.0
C      1  0.4917420000000  0.5457310000000  0.5742720000000 1.0
C      1  0.5693470000000  0.5696480000000  0.4709500000000 1.0
C      1  0.5590540000000  0.5013600000000  0.4807350000000 1.0
C      1  0.4317910000000  0.4588990000000  0.4897980000000 1.0
C      1  0.4142630000000  0.4897840000000  0.5262640000000 1.0
C      1  0.4496040000000  0.5751010000000  0.5270800000000 1.0
C      1  0.4353630000000  0.4717980000000  0.5181090000000 1.0
C      1  0.4597600000000  0.4863310000000  0.5329300000000 1.0
C      1  0.5512980000000  0.5297040000000  0.4402130000000 1.0
C      1  0.5395790000000  0.4286230000000  0.4533680000000 1.0
C      1  0.5573880000000  0.5033020000000  0.4295530000000 1.0
C      1  0.5403970000000  0.5428190000000  0.5601650000000 1.0
C      1  0.4971270000000  0.5371190000000  0.4798600000000 1.0
C      1  0.5011500000000  0.5485230000000  0.4304440000000 1.0
C      1  0.4400070000000  0.5478030000000  0.5655580000000 1.0
C      1  0.5174880000000  0.5320960000000  0.5749130000000 1.0
C      1  0.5857820000000  0.5012750000000  0.4851810000000 1.0
C      1  0.4904450000000  0.4351500000000  0.4357480000000 1.0
C      1  0.5526450000000  0.4184100000000  0.4916560000000 1.0
C      1  0.4956130000000  0.5613460000000  0.4583280000000 1.0
C      1  0.5419490000000  0.4523760000000  0.5477010000000 1.0
C      1  0.4805950000000  0.4870170000000  0.4218850000000 1.0
C      1  0.4787750000000  0.4853950000000  0.4944830000000 1.0
C      1  0.4542140000000  0.5242460000000  0.5025990000000 1.0
C      1  0.4334570000000  0.5525930000000  0.5364740000000 1.0
C      1  0.4357320000000  0.4675180000000  0.4640130000000 1.0
C      1  0.4120340000000  0.5182760000000  0.5258780000000 1.0
C      1  0.4394370000000  0.5161180000000  0.4468890000000 1.0
C      1  0.5123430000000  0.5028040000000  0.5689530000000 1.0
C      1  0.5222060000000  0.5310390000000  0.4416760000000 1.0
C      1  0.4796800000000  0.5320590000000  0.4272030000000 1.0
C      1  0.4467420000000  0.4461760000000  0.5362640000000 1.0
C      1  0.4954200000000  0.4385710000000  0.4905480000000 1.0
C      1  0.4193530000000  0.5027030000000  0.5494910000000 1.0
C      1  0.5354750000000  0.4982620000000  0.5236610000000 1.0
END
