TITL C-3909783-8770-20 50.4207369596963 125000 -24508.5014572535 0 0 167 (C1) n - 1
REM
REM in /home/nfs/bkarasulu/CARBON/AIRSS/Generating-Clusters/ReaxFF-fromJPCA2015/Units_Real/with-SteepDescent/Only-C1/SD-CG/Try1-3A/FIRE-CG
REM
REM
REM
REM
REM
REM ./C.cell (11c1c37f851c82e70ff6c80c92926a4b)
REM
REM compiler GCC version 9.2.1 20190827 (Red Hat 9.2.1-1)
REM options -cpp -mtune=generic -march=x86-64 -g -O0 -fpre-include=/usr/include/finclude/math-vector-fortran.h
REM seed -1070867697 -720761519 555785431 753690995 -1399874675 1398630430 147537807 1899749900 157437309 -1780710068 899732268 49784896 972219945 319413961 1323253557 -1409347444 1893892598 1942799402 876531388 -284173169 563979526 -1724203613 1218282339 -397826214 1272381954 -345789033 -1014880999 -1963702345 -2131629428 1151465179 -1946945970 1198274641 -448541336
REM
CELL 1.54180   50.00000   50.00000   50.00000   90.00000   90.00000   90.00000
LATT -1
SFAC C  
C      1  0.5693220000000  0.6007990000000  0.5036600000000 1.0
C      1  0.4964340000000  0.5126160000000  0.4064030000000 1.0
C      1  0.4936380000000  0.5264330000000  0.5496400000000 1.0
C      1  0.5250890000000  0.5817050000000  0.5633130000000 1.0
C      1  0.5904920000000  0.5037380000000  0.4382810000000 1.0
C      1  0.5935880000000  0.5488260000000  0.5026750000000 1.0
C      1  0.5311010000000  0.5491580000000  0.5254380000000 1.0
C      1  0.4825820000000  0.4408880000000  0.5122370000000 1.0
C      1  0.4855170000000  0.5290290000000  0.4570070000000 1.0
C      1  0.5291070000000  0.4529800000000  0.5197210000000 1.0
C      1  0.5284650000000  0.6120330000000  0.4903940000000 1.0
C      1  0.5189410000000  0.4636160000000  0.5613600000000 1.0
C      1  0.4523130000000  0.5639290000000  0.5384030000000 1.0
C      1  0.4600790000000  0.4478940000000  0.5859660000000 1.0
C      1  0.4118620000000  0.4384650000000  0.5343280000000 1.0
C      1  0.4918130000000  0.4127420000000  0.5172580000000 1.0
C      1  0.4890130000000  0.4862090000000  0.6093570000000 1.0
C      1  0.4320390000000  0.4124570000000  0.4976520000000 1.0
C      1  0.4286000000000  0.5068280000000  0.4858880000000 1.0
C      1  0.5395980000000  0.5464380000000  0.4305480000000 1.0
C      1  0.5736700000000  0.4550700000000  0.4385320000000 1.0
C      1  0.5232090000000  0.5454870000000  0.4734760000000 1.0
C      1  0.5019740000000  0.4610020000000  0.5131390000000 1.0
C      1  0.4196850000000  0.5205530000000  0.5415120000000 1.0
C      1  0.4918800000000  0.4229990000000  0.4478510000000 1.0
C      1  0.3933680000000  0.4481200000000  0.4953860000000 1.0
C      1  0.4314230000000  0.4558640000000  0.4446910000000 1.0
C      1  0.5988300000000  0.5147250000000  0.4629990000000 1.0
C      1  0.4418730000000  0.5342750000000  0.4212430000000 1.0
C      1  0.4697060000000  0.4249680000000  0.5706320000000 1.0
C      1  0.4868300000000  0.5377000000000  0.3963890000000 1.0
C      1  0.3874830000000  0.4511440000000  0.5235150000000 1.0
C      1  0.5414180000000  0.4600250000000  0.5443300000000 1.0
C      1  0.4053490000000  0.4744410000000  0.4439880000000 1.0
C      1  0.4981420000000  0.4828800000000  0.4934810000000 1.0
C      1  0.4594090000000  0.5304710000000  0.5782970000000 1.0
C      1  0.4647570000000  0.4700650000000  0.6055190000000 1.0
C      1  0.4301560000000  0.5569170000000  0.5725920000000 1.0
C      1  0.5543100000000  0.4081160000000  0.4811110000000 1.0
C      1  0.5758680000000  0.4289880000000  0.4830210000000 1.0
C      1  0.5933490000000  0.5412450000000  0.4551700000000 1.0
C      1  0.4622560000000  0.4577220000000  0.5237020000000 1.0
C      1  0.5294090000000  0.5643030000000  0.4122990000000 1.0
C      1  0.4722510000000  0.4899910000000  0.4512180000000 1.0
C      1  0.4520970000000  0.4110070000000  0.5472710000000 1.0
C      1  0.5424650000000  0.5986030000000  0.5171540000000 1.0
C      1  0.4654640000000  0.5495780000000  0.4143510000000 1.0
C      1  0.5153250000000  0.4476200000000  0.5860450000000 1.0
C      1  0.4786260000000  0.5817940000000  0.5669240000000 1.0
C      1  0.5057740000000  0.4875170000000  0.5553000000000 1.0
C      1  0.5135790000000  0.4700510000000  0.3989380000000 1.0
C      1  0.4731150000000  0.4888220000000  0.4804250000000 1.0
C      1  0.4484670000000  0.5774780000000  0.5639620000000 1.0
C      1  0.5026540000000  0.5110160000000  0.5736090000000 1.0
C      1  0.4724010000000  0.4987160000000  0.3981200000000 1.0
C      1  0.5037860000000  0.4473740000000  0.4575900000000 1.0
C      1  0.5916580000000  0.5601590000000  0.4770770000000 1.0
C      1  0.5471380000000  0.4991370000000  0.5168070000000 1.0
C      1  0.5044880000000  0.5791440000000  0.4167860000000 1.0
C      1  0.4779980000000  0.4069750000000  0.4720660000000 1.0
C      1  0.5525600000000  0.5017190000000  0.4849840000000 1.0
C      1  0.5837000000000  0.4523490000000  0.4654520000000 1.0
C      1  0.5874810000000  0.5033230000000  0.4862320000000 1.0
C      1  0.4498530000000  0.4138680000000  0.4740350000000 1.0
C      1  0.5648470000000  0.5323470000000  0.5790780000000 1.0
C      1  0.3827000000000  0.5273560000000  0.4868500000000 1.0
C      1  0.5430270000000  0.4171640000000  0.5284130000000 1.0
C      1  0.5139960000000  0.4719140000000  0.6055880000000 1.0
C      1  0.4484590000000  0.5250880000000  0.4988370000000 1.0
C      1  0.4835840000000  0.4706390000000  0.3976940000000 1.0
C      1  0.4710860000000  0.4478630000000  0.4092280000000 1.0
C      1  0.4472880000000  0.5116050000000  0.4396370000000 1.0
C      1  0.4856290000000  0.5493230000000  0.4384090000000 1.0
C      1  0.4201540000000  0.5297090000000  0.5711320000000 1.0
C      1  0.5647140000000  0.4494560000000  0.6001840000000 1.0
C      1  0.5879930000000  0.4568070000000  0.5302890000000 1.0
C      1  0.4499890000000  0.5760640000000  0.5126870000000 1.0
C      1  0.5083550000000  0.5091350000000  0.5047550000000 1.0
C      1  0.5515780000000  0.5681850000000  0.5227720000000 1.0
C      1  0.5433120000000  0.4424280000000  0.5958190000000 1.0
C      1  0.4828030000000  0.5779490000000  0.4384260000000 1.0
C      1  0.5769110000000  0.5855580000000  0.4781040000000 1.0
C      1  0.5549340000000  0.5799180000000  0.4592680000000 1.0
C      1  0.5316520000000  0.5228650000000  0.4855110000000 1.0
C      1  0.5332240000000  0.4239790000000  0.4238560000000 1.0
C      1  0.5051920000000  0.5059560000000  0.5339080000000 1.0
C      1  0.5071200000000  0.5658960000000  0.4857890000000 1.0
C      1  0.5185500000000  0.4111410000000  0.4443260000000 1.0
C      1  0.5217240000000  0.4922160000000  0.4474170000000 1.0
C      1  0.4304090000000  0.5915820000000  0.4658730000000 1.0
C      1  0.5809860000000  0.5154900000000  0.5641040000000 1.0
C      1  0.5937700000000  0.5215380000000  0.5089760000000 1.0
C      1  0.3969690000000  0.5320500000000  0.4632910000000 1.0
C      1  0.5378550000000  0.5994390000000  0.4686450000000 1.0
C      1  0.4476320000000  0.4848400000000  0.4914050000000 1.0
C      1  0.4445180000000  0.5233300000000  0.5276710000000 1.0
C      1  0.4108360000000  0.4270750000000  0.4841050000000 1.0
C      1  0.5493870000000  0.4059390000000  0.5072470000000 1.0
C      1  0.4214750000000  0.4645780000000  0.5390200000000 1.0
C      1  0.4436520000000  0.4853750000000  0.5922130000000 1.0
C      1  0.5051000000000  0.5544530000000  0.5122430000000 1.0
C      1  0.4647740000000  0.4279060000000  0.4281990000000 1.0
C      1  0.4473600000000  0.4573410000000  0.4982440000000 1.0
C      1  0.5359670000000  0.3968170000000  0.5449300000000 1.0
C      1  0.5459980000000  0.5068330000000  0.4075190000000 1.0
C      1  0.4642960000000  0.5347490000000  0.5482290000000 1.0
C      1  0.4395340000000  0.5135440000000  0.5869720000000 1.0
C      1  0.5048510000000  0.5601520000000  0.3954740000000 1.0
C      1  0.4267310000000  0.5057340000000  0.4572980000000 1.0
C      1  0.5648600000000  0.4780760000000  0.5959930000000 1.0
C      1  0.5456630000000  0.4921440000000  0.4327460000000 1.0
C      1  0.4209400000000  0.5506930000000  0.4659150000000 1.0
C      1  0.5161430000000  0.4178580000000  0.5381670000000 1.0
C      1  0.3963400000000  0.4769550000000  0.5356970000000 1.0
C      1  0.6208310000000  0.4679270000000  0.4980030000000 1.0
C      1  0.5134040000000  0.4012060000000  0.5638720000000 1.0
C      1  0.3980580000000  0.5052550000000  0.5290990000000 1.0
C      1  0.5372790000000  0.4893660000000  0.6026790000000 1.0
C      1  0.5448570000000  0.5506220000000  0.4581180000000 1.0
C      1  0.4438080000000  0.4656830000000  0.5720000000000 1.0
C      1  0.4909560000000  0.5863720000000  0.4715540000000 1.0
C      1  0.5307620000000  0.4475160000000  0.4072940000000 1.0
C      1  0.4305450000000  0.5717990000000  0.4870640000000 1.0
C      1  0.5714270000000  0.4822170000000  0.4406640000000 1.0
C      1  0.5782860000000  0.5561160000000  0.5255450000000 1.0
C      1  0.4970930000000  0.4205120000000  0.5772050000000 1.0
C      1  0.4000700000000  0.5020810000000  0.4468360000000 1.0
C      1  0.5421210000000  0.5414830000000  0.5919790000000 1.0
C      1  0.5734740000000  0.4449700000000  0.5074170000000 1.0
C      1  0.5573750000000  0.5339350000000  0.4143260000000 1.0
C      1  0.5468550000000  0.5238300000000  0.5311010000000 1.0
C      1  0.5476500000000  0.4567650000000  0.4999090000000 1.0
C      1  0.4423280000000  0.4279070000000  0.4474160000000 1.0
C      1  0.4895980000000  0.5134910000000  0.5989330000000 1.0
C      1  0.5690170000000  0.4677890000000  0.5490960000000 1.0
C      1  0.4543170000000  0.5730740000000  0.4270430000000 1.0
C      1  0.5215920000000  0.4973220000000  0.3961310000000 1.0
C      1  0.5824820000000  0.5306810000000  0.4294880000000 1.0
C      1  0.4880710000000  0.5313400000000  0.5065270000000 1.0
C      1  0.5166540000000  0.4719350000000  0.4675790000000 1.0
C      1  0.3988920000000  0.5109320000000  0.5000920000000 1.0
C      1  0.4901660000000  0.5935700000000  0.5428540000000 1.0
C      1  0.4473130000000  0.4698130000000  0.5451720000000 1.0
C      1  0.4971210000000  0.5068670000000  0.4405230000000 1.0
C      1  0.4708460000000  0.5951310000000  0.5174110000000 1.0
C      1  0.5252320000000  0.4061950000000  0.4724360000000 1.0
C      1  0.4317220000000  0.5669690000000  0.4442280000000 1.0
C      1  0.5762210000000  0.4872800000000  0.5701240000000 1.0
C      1  0.5005520000000  0.4028570000000  0.4882660000000 1.0
C      1  0.4206290000000  0.4551010000000  0.4869460000000 1.0
C      1  0.6168820000000  0.4648980000000  0.5278740000000 1.0
C      1  0.5190030000000  0.5964670000000  0.5421050000000 1.0
C      1  0.4930490000000  0.5638580000000  0.5852850000000 1.0
C      1  0.4316360000000  0.4179670000000  0.5269290000000 1.0
C      1  0.4718250000000  0.5304940000000  0.4831820000000 1.0
C      1  0.4697700000000  0.4040710000000  0.5346690000000 1.0
C      1  0.4577380000000  0.4657670000000  0.4423180000000 1.0
C      1  0.5550380000000  0.4410990000000  0.4216880000000 1.0
C      1  0.5303110000000  0.5150670000000  0.5918730000000 1.0
C      1  0.4787220000000  0.5399440000000  0.5963010000000 1.0
C      1  0.4773580000000  0.6055620000000  0.4911100000000 1.0
C      1  0.5432290000000  0.4740920000000  0.4777530000000 1.0
C      1  0.4479010000000  0.5079300000000  0.4103210000000 1.0
C      1  0.5017290000000  0.6152850000000  0.4791310000000 1.0
C      1  0.5976440000000  0.4739270000000  0.4808920000000 1.0
C      1  0.5785360000000  0.5274790000000  0.5341240000000 1.0
C      1  0.5223340000000  0.5650260000000  0.5846150000000 1.0
END
