TITL C-3909653-6271-7 -3.90244597960846 125000 -6428.83215818432 0 0 44 (C1) n - 1
REM
REM in /home/nfs/bkarasulu/CARBON/AIRSS/Generating-Clusters/ReaxFF-fromJPCA2015/Units_Real/with-SteepDescent/Only-C1/SD-CG/Try1-3A/FIRE-CG
REM
REM
REM
REM
REM
REM ./C.cell (11c1c37f851c82e70ff6c80c92926a4b)
REM
REM compiler GCC version 9.2.1 20190827 (Red Hat 9.2.1-1)
REM options -cpp -mtune=generic -march=x86-64 -g -O0 -fpre-include=/usr/include/finclude/math-vector-fortran.h
REM seed -36665747 1326819615 1288077153 1778777805 364945788 1482638296 1480715695 1608728870 269535279 -426596550 789905061 230152530 1711582576 171329789 779642590 1288957027 1359671222 -2039338496 -152810472 781534232 1379958055 -1043135017 9476637 1243555522 -702122490 669622278 865634113 1050020575 1916384031 -2118614718 2058062206 1628478774 1336332695
REM
CELL 1.54180   50.00000   50.00000   50.00000   90.00000   90.00000   90.00000
LATT -1
SFAC C  
C      1  0.4806530000000  0.4564970000000  0.5384540000000 1.0
C      1  0.5298750000000  0.4559340000000  0.5306800000000 1.0
C      1  0.5032330000000  0.4960580000000  0.4342150000000 1.0
C      1  0.5317960000000  0.5460850000000  0.5417220000000 1.0
C      1  0.5492790000000  0.4665650000000  0.5137620000000 1.0
C      1  0.5470130000000  0.5096500000000  0.4600110000000 1.0
C      1  0.4854110000000  0.4984800000000  0.5618950000000 1.0
C      1  0.4508100000000  0.4485460000000  0.5117130000000 1.0
C      1  0.4777440000000  0.4441800000000  0.5117440000000 1.0
C      1  0.4724340000000  0.5494320000000  0.4757090000000 1.0
C      1  0.5088070000000  0.4577820000000  0.5490560000000 1.0
C      1  0.4558220000000  0.5081460000000  0.4517670000000 1.0
C      1  0.4891410000000  0.4546880000000  0.4858200000000 1.0
C      1  0.5593390000000  0.5113050000000  0.5108640000000 1.0
C      1  0.5149910000000  0.5016370000000  0.4975000000000 1.0
C      1  0.4858020000000  0.5439200000000  0.4525160000000 1.0
C      1  0.4380580000000  0.4577810000000  0.4912310000000 1.0
C      1  0.5117860000000  0.4725780000000  0.4853460000000 1.0
C      1  0.4883620000000  0.5427610000000  0.5140430000000 1.0
C      1  0.5110450000000  0.4829990000000  0.5663840000000 1.0
C      1  0.5291130000000  0.5241040000000  0.4776410000000 1.0
C      1  0.5377190000000  0.4935350000000  0.5184190000000 1.0
C      1  0.5299420000000  0.4898600000000  0.4454260000000 1.0
C      1  0.5017560000000  0.5460770000000  0.5407260000000 1.0
C      1  0.4897680000000  0.5139430000000  0.5081950000000 1.0
C      1  0.4441860000000  0.4652860000000  0.4657740000000 1.0
C      1  0.4388670000000  0.4936930000000  0.4711910000000 1.0
C      1  0.4661000000000  0.4986570000000  0.5161810000000 1.0
C      1  0.5543550000000  0.5337600000000  0.5284560000000 1.0
C      1  0.4887310000000  0.4757680000000  0.4449200000000 1.0
C      1  0.4733970000000  0.4581800000000  0.4606860000000 1.0
C      1  0.4416530000000  0.5059150000000  0.5001500000000 1.0
C      1  0.5635860000000  0.5000930000000  0.4827880000000 1.0
C      1  0.4629060000000  0.5524220000000  0.5013110000000 1.0
C      1  0.4883360000000  0.5279970000000  0.5598270000000 1.0
C      1  0.4806900000000  0.5176510000000  0.4401840000000 1.0
C      1  0.4378190000000  0.5344300000000  0.5037420000000 1.0
C      1  0.5295200000000  0.5028580000000  0.5629190000000 1.0
C      1  0.4701460000000  0.4838160000000  0.5412870000000 1.0
C      1  0.5557110000000  0.4719100000000  0.4842530000000 1.0
C      1  0.5331350000000  0.4684170000000  0.4657110000000 1.0
C      1  0.5164460000000  0.5468940000000  0.4621950000000 1.0
C      1  0.5290380000000  0.5650880000000  0.4768880000000 1.0
C      1  0.5456800000000  0.5246210000000  0.5566990000000 1.0
END
