TITL C-3909644-4730-17 8.13203107354787 125000 -17764.6380701647 0 0 120 (C1) n - 1
REM
REM in /home/nfs/bkarasulu/CARBON/AIRSS/Generating-Clusters/ReaxFF-fromJPCA2015/Units_Real/with-SteepDescent/Only-C1/SD-CG/Try1-3A/FIRE-CG
REM
REM
REM
REM
REM
REM ./C.cell (11c1c37f851c82e70ff6c80c92926a4b)
REM
REM compiler GCC version 9.2.1 20190827 (Red Hat 9.2.1-1)
REM options -cpp -mtune=generic -march=x86-64 -g -O0 -fpre-include=/usr/include/finclude/math-vector-fortran.h
REM seed 1046800147 1465976996 1365544691 557265312 1236044464 1730942711 -809203707 -357990316 879361808 -803762268 -472562592 1798403413 -712075274 -863643122 1167886706 1541841456 1820951636 -1615622022 -737875294 -530137292 695637967 19265340 -916861897 -1350611043 -20977116 -363613003 845465904 1476733743 1863502112 -504380071 -433730026 -334387638 1268988500
REM
CELL 1.54180   50.00000   50.00000   50.00000   90.00000   90.00000   90.00000
LATT -1
SFAC C  
C      1  0.5624450000000  0.4706290000000  0.4427470000000 1.0
C      1  0.4455110000000  0.4557560000000  0.5757430000000 1.0
C      1  0.5245660000000  0.4934020000000  0.4210760000000 1.0
C      1  0.4756730000000  0.4191130000000  0.4287010000000 1.0
C      1  0.5425910000000  0.4198880000000  0.5248520000000 1.0
C      1  0.4492050000000  0.4651410000000  0.5486490000000 1.0
C      1  0.5033600000000  0.5277210000000  0.4434530000000 1.0
C      1  0.4251590000000  0.4698030000000  0.5627470000000 1.0
C      1  0.4593660000000  0.4783640000000  0.4985590000000 1.0
C      1  0.4868850000000  0.5457190000000  0.4307560000000 1.0
C      1  0.4863410000000  0.5449340000000  0.4957910000000 1.0
C      1  0.5573200000000  0.4570790000000  0.5651470000000 1.0
C      1  0.4873510000000  0.4837860000000  0.4944750000000 1.0
C      1  0.5034230000000  0.5947320000000  0.5508900000000 1.0
C      1  0.5767290000000  0.5051330000000  0.5440150000000 1.0
C      1  0.4750030000000  0.5797850000000  0.4671910000000 1.0
C      1  0.4588250000000  0.5362100000000  0.4347050000000 1.0
C      1  0.4653630000000  0.5280440000000  0.4846540000000 1.0
C      1  0.4469780000000  0.4548520000000  0.5162840000000 1.0
C      1  0.5207580000000  0.5148950000000  0.5213800000000 1.0
C      1  0.4891850000000  0.5741030000000  0.4411120000000 1.0
C      1  0.4193710000000  0.4537790000000  0.4744440000000 1.0
C      1  0.4990300000000  0.4384450000000  0.4947110000000 1.0
C      1  0.5021380000000  0.4463230000000  0.5600770000000 1.0
C      1  0.5247390000000  0.5678490000000  0.5294390000000 1.0
C      1  0.5458790000000  0.4358090000000  0.4752570000000 1.0
C      1  0.5491300000000  0.5122480000000  0.5757770000000 1.0
C      1  0.5186950000000  0.4011900000000  0.4839380000000 1.0
C      1  0.4656450000000  0.4679340000000  0.5944850000000 1.0
C      1  0.4757470000000  0.4854860000000  0.5452480000000 1.0
C      1  0.5815660000000  0.4897640000000  0.4304720000000 1.0
C      1  0.4969760000000  0.5728720000000  0.5343960000000 1.0
C      1  0.4190960000000  0.4574470000000  0.5034550000000 1.0
C      1  0.4490280000000  0.5683930000000  0.4729240000000 1.0
C      1  0.4395260000000  0.4840920000000  0.4305780000000 1.0
C      1  0.5684990000000  0.5564520000000  0.4775260000000 1.0
C      1  0.4733580000000  0.4970530000000  0.5954990000000 1.0
C      1  0.4878840000000  0.5743360000000  0.4924510000000 1.0
C      1  0.4347440000000  0.5186780000000  0.5697300000000 1.0
C      1  0.5001650000000  0.4940230000000  0.5607500000000 1.0
C      1  0.5295310000000  0.4597170000000  0.5583190000000 1.0
C      1  0.5541520000000  0.5386280000000  0.5638950000000 1.0
C      1  0.5198750000000  0.4067390000000  0.5129780000000 1.0
C      1  0.3926510000000  0.5028410000000  0.5011360000000 1.0
C      1  0.4821450000000  0.4974360000000  0.4292040000000 1.0
C      1  0.5897940000000  0.4518150000000  0.4819890000000 1.0
C      1  0.4534500000000  0.4388720000000  0.4314300000000 1.0
C      1  0.4644440000000  0.4291190000000  0.5152240000000 1.0
C      1  0.5387270000000  0.5135070000000  0.4964400000000 1.0
C      1  0.5018850000000  0.4962820000000  0.5893800000000 1.0
C      1  0.5568000000000  0.4216210000000  0.4993520000000 1.0
C      1  0.5832080000000  0.4337370000000  0.5036770000000 1.0
C      1  0.3941130000000  0.5179560000000  0.5264870000000 1.0
C      1  0.5385340000000  0.4870010000000  0.4468370000000 1.0
C      1  0.4176160000000  0.4960990000000  0.5638590000000 1.0
C      1  0.4852520000000  0.4524030000000  0.5816990000000 1.0
C      1  0.4010150000000  0.4933540000000  0.5405260000000 1.0
C      1  0.5722590000000  0.5338200000000  0.5412330000000 1.0
C      1  0.5072300000000  0.5415080000000  0.5753690000000 1.0
C      1  0.4018310000000  0.5131460000000  0.4755160000000 1.0
C      1  0.5630050000000  0.5706970000000  0.5020620000000 1.0
C      1  0.4915750000000  0.4840670000000  0.4532130000000 1.0
C      1  0.5468810000000  0.5517190000000  0.4524860000000 1.0
C      1  0.5208920000000  0.5362220000000  0.4638490000000 1.0
C      1  0.4226880000000  0.5278180000000  0.4863710000000 1.0
C      1  0.4585110000000  0.5717750000000  0.5258970000000 1.0
C      1  0.5730910000000  0.5116740000000  0.4926910000000 1.0
C      1  0.5368860000000  0.4738390000000  0.5339980000000 1.0
C      1  0.4421770000000  0.4448990000000  0.4582430000000 1.0
C      1  0.4775180000000  0.5415750000000  0.5689810000000 1.0
C      1  0.5590260000000  0.4331360000000  0.5474000000000 1.0
C      1  0.4400470000000  0.5483170000000  0.4531290000000 1.0
C      1  0.5837760000000  0.5371260000000  0.4925710000000 1.0
C      1  0.4794520000000  0.4788350000000  0.4090240000000 1.0
C      1  0.4160010000000  0.5328280000000  0.4598590000000 1.0
C      1  0.4116220000000  0.5411800000000  0.5313950000000 1.0
C      1  0.4618150000000  0.5197350000000  0.5811870000000 1.0
C      1  0.5149030000000  0.4038140000000  0.4554750000000 1.0
C      1  0.5299190000000  0.4953260000000  0.4739310000000 1.0
C      1  0.5480650000000  0.5321980000000  0.4290700000000 1.0
C      1  0.5017090000000  0.5016620000000  0.4741290000000 1.0
C      1  0.5965050000000  0.4792380000000  0.4890740000000 1.0
C      1  0.5783390000000  0.5500530000000  0.5172150000000 1.0
C      1  0.5786250000000  0.4464170000000  0.5302220000000 1.0
C      1  0.5310700000000  0.5567770000000  0.5683990000000 1.0
C      1  0.5269170000000  0.5405020000000  0.4904190000000 1.0
C      1  0.4996230000000  0.4626440000000  0.5105480000000 1.0
C      1  0.4878030000000  0.4146840000000  0.5088010000000 1.0
C      1  0.5678230000000  0.4496090000000  0.4620400000000 1.0
C      1  0.4586690000000  0.5543420000000  0.5497970000000 1.0
C      1  0.5824750000000  0.4910000000000  0.5139500000000 1.0
C      1  0.5919710000000  0.5097320000000  0.4447650000000 1.0
C      1  0.4337970000000  0.4727750000000  0.4568560000000 1.0
C      1  0.4719000000000  0.5090730000000  0.5254750000000 1.0
C      1  0.5213450000000  0.5180960000000  0.5866060000000 1.0
C      1  0.5350620000000  0.5646240000000  0.5037680000000 1.0
C      1  0.5134270000000  0.5891530000000  0.4367770000000 1.0
C      1  0.4417790000000  0.5681900000000  0.5018900000000 1.0
C      1  0.5725330000000  0.5176890000000  0.4257990000000 1.0
C      1  0.5178860000000  0.4425030000000  0.4729570000000 1.0
C      1  0.4327460000000  0.5412490000000  0.5520060000000 1.0
C      1  0.5208300000000  0.5231690000000  0.4214430000000 1.0
C      1  0.4018040000000  0.4781440000000  0.5143750000000 1.0
C      1  0.4815580000000  0.5862480000000  0.5184650000000 1.0
C      1  0.5306060000000  0.5754230000000  0.4430260000000 1.0
C      1  0.4941530000000  0.5261570000000  0.5190330000000 1.0
C      1  0.4566310000000  0.5082100000000  0.4270690000000 1.0
C      1  0.5873730000000  0.4988710000000  0.4700230000000 1.0
C      1  0.5633740000000  0.4708400000000  0.5235460000000 1.0
C      1  0.5632970000000  0.4892170000000  0.5635180000000 1.0
C      1  0.5135480000000  0.4474960000000  0.4263880000000 1.0
C      1  0.4195490000000  0.5508910000000  0.5056960000000 1.0
C      1  0.4522480000000  0.5068480000000  0.5029110000000 1.0
C      1  0.5294310000000  0.5829550000000  0.5543560000000 1.0
C      1  0.5222260000000  0.4969120000000  0.5419940000000 1.0
C      1  0.5067050000000  0.4592230000000  0.4517700000000 1.0
C      1  0.5048130000000  0.4189550000000  0.4315990000000 1.0
C      1  0.4548770000000  0.4642860000000  0.4164230000000 1.0
C      1  0.4912270000000  0.4610680000000  0.5370500000000 1.0
C      1  0.5081330000000  0.4714300000000  0.4103540000000 1.0
END
