TITL C-3909787-7025-9 -8.02789907097395 125000 -9714.75981718463 0 0 65 (C1) n - 1
REM
REM in /home/nfs/bkarasulu/CARBON/AIRSS/Generating-Clusters/ReaxFF-fromJPCA2015/Units_Real/with-SteepDescent/Only-C1/SD-CG/Try1-3A/FIRE-CG
REM
REM
REM
REM
REM
REM ./C.cell (11c1c37f851c82e70ff6c80c92926a4b)
REM
REM compiler GCC version 9.2.1 20190827 (Red Hat 9.2.1-1)
REM options -cpp -mtune=generic -march=x86-64 -g -O0 -fpre-include=/usr/include/finclude/math-vector-fortran.h
REM seed 373861511 -102643950 -333931843 -503610473 -1168083884 1734713874 -777518877 2080773836 -2039779856 -2100239808 2014838505 -1870747041 -666456382 -2117961991 1108403832 -1550246565 -349248380 -849108140 303184793 -360171140 -1163682494 671255408 1585378760 1363177536 -214263691 994100452 -1225598179 -453100326 -2119916244 -1689675920 -638841228 590405626 -518563826
REM
CELL 1.54180   50.00000   50.00000   50.00000   90.00000   90.00000   90.00000
LATT -1
SFAC C  
C      1  0.5221890000000  0.5310930000000  0.5294370000000 1.0
C      1  0.4442930000000  0.5324040000000  0.5629850000000 1.0
C      1  0.5623820000000  0.4875860000000  0.4774390000000 1.0
C      1  0.5266830000000  0.4345120000000  0.4578530000000 1.0
C      1  0.4833230000000  0.5670440000000  0.4952540000000 1.0
C      1  0.5105930000000  0.4426170000000  0.5139630000000 1.0
C      1  0.5019000000000  0.4247520000000  0.4670390000000 1.0
C      1  0.5629440000000  0.4884260000000  0.5520660000000 1.0
C      1  0.5532600000000  0.5384940000000  0.4989950000000 1.0
C      1  0.5323270000000  0.5597280000000  0.4955320000000 1.0
C      1  0.4932130000000  0.5422400000000  0.5619120000000 1.0
C      1  0.4537400000000  0.4548510000000  0.4845460000000 1.0
C      1  0.4715860000000  0.4861540000000  0.4487770000000 1.0
C      1  0.5439990000000  0.4508050000000  0.5147690000000 1.0
C      1  0.4474530000000  0.4766750000000  0.5048720000000 1.0
C      1  0.4647770000000  0.4593980000000  0.4582760000000 1.0
C      1  0.5215520000000  0.4688770000000  0.5629450000000 1.0
C      1  0.4558260000000  0.5259210000000  0.5363420000000 1.0
C      1  0.4627550000000  0.4398670000000  0.5288640000000 1.0
C      1  0.5186970000000  0.4971360000000  0.5705370000000 1.0
C      1  0.5080260000000  0.5663100000000  0.5122600000000 1.0
C      1  0.5302990000000  0.5481220000000  0.4474220000000 1.0
C      1  0.4472700000000  0.4641350000000  0.5327020000000 1.0
C      1  0.4876410000000  0.4432710000000  0.4477020000000 1.0
C      1  0.4462110000000  0.5298520000000  0.5087110000000 1.0
C      1  0.4913880000000  0.4859150000000  0.4269420000000 1.0
C      1  0.4354430000000  0.5048210000000  0.4974640000000 1.0
C      1  0.5244690000000  0.5669170000000  0.4687740000000 1.0
C      1  0.4411680000000  0.5041630000000  0.5676820000000 1.0
C      1  0.5242590000000  0.4862490000000  0.5182530000000 1.0
C      1  0.5020830000000  0.4711090000000  0.5114500000000 1.0
C      1  0.4374870000000  0.5280260000000  0.4532020000000 1.0
C      1  0.5493340000000  0.5266070000000  0.4527660000000 1.0
C      1  0.4824870000000  0.5557870000000  0.4485680000000 1.0
C      1  0.5263910000000  0.5010010000000  0.4938050000000 1.0
C      1  0.5517610000000  0.5330060000000  0.5277490000000 1.0
C      1  0.4859610000000  0.5109000000000  0.4943690000000 1.0
C      1  0.5476810000000  0.5051280000000  0.5698000000000 1.0
C      1  0.5174470000000  0.4955440000000  0.4660970000000 1.0
C      1  0.4950400000000  0.5717640000000  0.4687460000000 1.0
C      1  0.4525000000000  0.4816040000000  0.5553400000000 1.0
C      1  0.5597780000000  0.5183030000000  0.4785680000000 1.0
C      1  0.5105660000000  0.5224190000000  0.5037660000000 1.0
C      1  0.5649730000000  0.5170870000000  0.5484070000000 1.0
C      1  0.4743420000000  0.5016920000000  0.5426990000000 1.0
C      1  0.5364930000000  0.5014400000000  0.4435330000000 1.0
C      1  0.4935260000000  0.4259970000000  0.4953440000000 1.0
C      1  0.5543440000000  0.4677500000000  0.4961250000000 1.0
C      1  0.5086990000000  0.5549720000000  0.5392370000000 1.0
C      1  0.4668280000000  0.5505930000000  0.5726830000000 1.0
C      1  0.5018230000000  0.5135870000000  0.4232190000000 1.0
C      1  0.5003980000000  0.4481690000000  0.5629550000000 1.0
C      1  0.5042410000000  0.5408970000000  0.4347510000000 1.0
C      1  0.4602900000000  0.5498520000000  0.4914270000000 1.0
C      1  0.5345640000000  0.4561880000000  0.4424600000000 1.0
C      1  0.4785700000000  0.4884400000000  0.5120870000000 1.0
C      1  0.4886650000000  0.5025910000000  0.4664900000000 1.0
C      1  0.4323710000000  0.5140000000000  0.4714070000000 1.0
C      1  0.4908280000000  0.4362270000000  0.5371990000000 1.0
C      1  0.5426800000000  0.4694290000000  0.5389250000000 1.0
C      1  0.5060990000000  0.4598720000000  0.4325630000000 1.0
C      1  0.4655010000000  0.4332110000000  0.5001230000000 1.0
C      1  0.5533090000000  0.4788110000000  0.4505610000000 1.0
C      1  0.4570410000000  0.5470530000000  0.4620050000000 1.0
C      1  0.4962310000000  0.5126110000000  0.5612630000000 1.0
END
