TITL C-3909650-4365-23 103.147413097651 125000 -29077.5929304021 0 0 193 (C1) n - 1
REM
REM in /home/nfs/bkarasulu/CARBON/AIRSS/Generating-Clusters/ReaxFF-fromJPCA2015/Units_Real/with-SteepDescent/Only-C1/SD-CG/Try1-3A/FIRE-CG
REM
REM
REM
REM
REM
REM ./C.cell (11c1c37f851c82e70ff6c80c92926a4b)
REM
REM compiler GCC version 9.2.1 20190827 (Red Hat 9.2.1-1)
REM options -cpp -mtune=generic -march=x86-64 -g -O0 -fpre-include=/usr/include/finclude/math-vector-fortran.h
REM seed -542231167 1430905620 1265211148 1459652427 414347104 -819218607 1345160791 -1465767759 -1319287000 -345522999 -1026628915 -986096368 -898833815 -170127349 124769800 125080730 -669350024 1929578074 -2001618517 588824136 -792972962 -1743027623 1077363567 -2141457424 969520113 1262513978 -712038207 -59002423 1627577838 865049639 2009860843 508099573 -1496903055
REM
CELL 1.54180   50.00000   50.00000   50.00000   90.00000   90.00000   90.00000
LATT -1
SFAC C  
C      1  0.4959170000000  0.4115410000000  0.5604340000000 1.0
C      1  0.3994490000000  0.4280170000000  0.5192890000000 1.0
C      1  0.5340850000000  0.5028660000000  0.5274410000000 1.0
C      1  0.4695300000000  0.4367220000000  0.5234930000000 1.0
C      1  0.5775370000000  0.4478970000000  0.5863220000000 1.0
C      1  0.4168460000000  0.4702150000000  0.5290940000000 1.0
C      1  0.4016880000000  0.5252900000000  0.5115780000000 1.0
C      1  0.4288370000000  0.5820630000000  0.5457260000000 1.0
C      1  0.4699970000000  0.4512050000000  0.4538270000000 1.0
C      1  0.5453720000000  0.4005220000000  0.5301790000000 1.0
C      1  0.5383630000000  0.4609680000000  0.5475520000000 1.0
C      1  0.4559620000000  0.5873050000000  0.5433690000000 1.0
C      1  0.4634520000000  0.4415840000000  0.4269250000000 1.0
C      1  0.4828930000000  0.5659970000000  0.5851310000000 1.0
C      1  0.4641980000000  0.4918250000000  0.6096180000000 1.0
C      1  0.5861160000000  0.5065670000000  0.5355740000000 1.0
C      1  0.5880360000000  0.4874020000000  0.4349730000000 1.0
C      1  0.4748350000000  0.5340870000000  0.5519130000000 1.0
C      1  0.5417600000000  0.4664910000000  0.4543620000000 1.0
C      1  0.4632750000000  0.4436900000000  0.5870770000000 1.0
C      1  0.5192050000000  0.4404140000000  0.4143390000000 1.0
C      1  0.5140070000000  0.5211870000000  0.5773780000000 1.0
C      1  0.4995400000000  0.4541680000000  0.4920550000000 1.0
C      1  0.4285680000000  0.4804590000000  0.4581340000000 1.0
C      1  0.5375800000000  0.5112080000000  0.4709690000000 1.0
C      1  0.5249760000000  0.6160570000000  0.4711420000000 1.0
C      1  0.5768720000000  0.4597930000000  0.4331000000000 1.0
C      1  0.4240360000000  0.5469400000000  0.4757690000000 1.0
C      1  0.4504660000000  0.6080900000000  0.4815350000000 1.0
C      1  0.5244170000000  0.5649280000000  0.5159420000000 1.0
C      1  0.5035600000000  0.5314840000000  0.5529650000000 1.0
C      1  0.5022690000000  0.5191420000000  0.6033750000000 1.0
C      1  0.4442050000000  0.4032390000000  0.5264010000000 1.0
C      1  0.4119900000000  0.4730030000000  0.5011770000000 1.0
C      1  0.5006360000000  0.4701610000000  0.6111380000000 1.0
C      1  0.4719000000000  0.5168590000000  0.4713360000000 1.0
C      1  0.4689850000000  0.4610680000000  0.4054040000000 1.0
C      1  0.4724650000000  0.5359740000000  0.3967400000000 1.0
C      1  0.4289490000000  0.5379320000000  0.5549960000000 1.0
C      1  0.5816110000000  0.4357240000000  0.4516310000000 1.0
C      1  0.4017660000000  0.4438840000000  0.4949630000000 1.0
C      1  0.5135220000000  0.4742850000000  0.4515170000000 1.0
C      1  0.5493950000000  0.4623230000000  0.4231840000000 1.0
C      1  0.5836110000000  0.4841680000000  0.4799980000000 1.0
C      1  0.4806120000000  0.4871080000000  0.5615420000000 1.0
C      1  0.4212370000000  0.5762340000000  0.5157900000000 1.0
C      1  0.5482690000000  0.5476270000000  0.4047620000000 1.0
C      1  0.4284150000000  0.5366410000000  0.4259470000000 1.0
C      1  0.5089360000000  0.4392680000000  0.5141500000000 1.0
C      1  0.4586990000000  0.5008440000000  0.4964410000000 1.0
C      1  0.5476630000000  0.6045740000000  0.5123420000000 1.0
C      1  0.5144180000000  0.5240580000000  0.5275060000000 1.0
C      1  0.5513190000000  0.4878610000000  0.4074780000000 1.0
C      1  0.5915490000000  0.5533810000000  0.4671710000000 1.0
C      1  0.5253160000000  0.4133390000000  0.5711340000000 1.0
C      1  0.5843900000000  0.5748620000000  0.4895760000000 1.0
C      1  0.5329890000000  0.5677550000000  0.4686010000000 1.0
C      1  0.5406870000000  0.4402830000000  0.4696540000000 1.0
C      1  0.5179050000000  0.5905520000000  0.5534150000000 1.0
C      1  0.5901040000000  0.5420430000000  0.5116050000000 1.0
C      1  0.5943570000000  0.4524370000000  0.5167690000000 1.0
C      1  0.4926020000000  0.5052520000000  0.4289540000000 1.0
C      1  0.5497640000000  0.4137510000000  0.5556000000000 1.0
C      1  0.4790330000000  0.5746590000000  0.5353220000000 1.0
C      1  0.5885720000000  0.4704170000000  0.5703590000000 1.0
C      1  0.5341140000000  0.5587350000000  0.5831790000000 1.0
C      1  0.4166340000000  0.4922990000000  0.5791820000000 1.0
C      1  0.6044790000000  0.5267350000000  0.4714620000000 1.0
C      1  0.5181040000000  0.4298550000000  0.4610210000000 1.0
C      1  0.5817080000000  0.5462810000000  0.4426650000000 1.0
C      1  0.5843490000000  0.5005260000000  0.5769920000000 1.0
C      1  0.5416780000000  0.5842960000000  0.5347740000000 1.0
C      1  0.5585940000000  0.4186380000000  0.4593290000000 1.0
C      1  0.4252300000000  0.4404140000000  0.5613880000000 1.0
C      1  0.4977850000000  0.4651910000000  0.4025480000000 1.0
C      1  0.4051990000000  0.4471440000000  0.5414730000000 1.0
C      1  0.5448750000000  0.5956520000000  0.4678160000000 1.0
C      1  0.5060010000000  0.4809910000000  0.4250160000000 1.0
C      1  0.5086440000000  0.4804240000000  0.4973460000000 1.0
C      1  0.5970630000000  0.5000640000000  0.4601400000000 1.0
C      1  0.5263110000000  0.5294500000000  0.4015280000000 1.0
C      1  0.5481110000000  0.3996160000000  0.4789260000000 1.0
C      1  0.4912440000000  0.5481270000000  0.4453750000000 1.0
C      1  0.5041980000000  0.5777620000000  0.4163160000000 1.0
C      1  0.4183720000000  0.4232580000000  0.4822630000000 1.0
C      1  0.5628720000000  0.5354520000000  0.5058650000000 1.0
C      1  0.4022220000000  0.5022880000000  0.4931450000000 1.0
C      1  0.5984100000000  0.4768730000000  0.5028000000000 1.0
C      1  0.5077780000000  0.4486760000000  0.5922150000000 1.0
C      1  0.4990970000000  0.6117530000000  0.4597280000000 1.0
C      1  0.4698730000000  0.3952310000000  0.5154910000000 1.0
C      1  0.5413420000000  0.5549020000000  0.4441960000000 1.0
C      1  0.5035610000000  0.4906830000000  0.3857760000000 1.0
C      1  0.5357430000000  0.5269180000000  0.4470200000000 1.0
C      1  0.4603090000000  0.5080400000000  0.5606340000000 1.0
C      1  0.4185080000000  0.4563980000000  0.4174040000000 1.0
C      1  0.5059230000000  0.4173170000000  0.4260870000000 1.0
C      1  0.4729470000000  0.4035660000000  0.4828910000000 1.0
C      1  0.5855670000000  0.4281420000000  0.5031400000000 1.0
C      1  0.4324840000000  0.4250370000000  0.4567900000000 1.0
C      1  0.4422060000000  0.4999930000000  0.5384990000000 1.0
C      1  0.4819470000000  0.6060540000000  0.4852920000000 1.0
C      1  0.4686660000000  0.4191860000000  0.5719600000000 1.0
C      1  0.4656470000000  0.5409500000000  0.4557220000000 1.0
C      1  0.4540160000000  0.5411330000000  0.5340390000000 1.0
C      1  0.5104380000000  0.5278070000000  0.4296510000000 1.0
C      1  0.5728420000000  0.5046700000000  0.4169840000000 1.0
C      1  0.4993150000000  0.5213970000000  0.4793480000000 1.0
C      1  0.4575950000000  0.5784370000000  0.4127290000000 1.0
C      1  0.4932200000000  0.5621510000000  0.5095440000000 1.0
C      1  0.5320200000000  0.5678110000000  0.4191890000000 1.0
C      1  0.5371770000000  0.4827070000000  0.5069650000000 1.0
C      1  0.4968700000000  0.4464180000000  0.5637970000000 1.0
C      1  0.5110850000000  0.5746650000000  0.5777950000000 1.0
C      1  0.4485260000000  0.4883880000000  0.4395910000000 1.0
C      1  0.4217790000000  0.4508310000000  0.4443320000000 1.0
C      1  0.4711370000000  0.5017710000000  0.4464890000000 1.0
C      1  0.4092100000000  0.5043560000000  0.4656830000000 1.0
C      1  0.5624390000000  0.5149410000000  0.5892070000000 1.0
C      1  0.5373760000000  0.4383250000000  0.5046230000000 1.0
C      1  0.4567630000000  0.5568700000000  0.5878630000000 1.0
C      1  0.4748290000000  0.4152920000000  0.4312160000000 1.0
C      1  0.4508640000000  0.5295210000000  0.5994900000000 1.0
C      1  0.5582050000000  0.5443150000000  0.5846530000000 1.0
C      1  0.4811580000000  0.5739720000000  0.4830080000000 1.0
C      1  0.4433030000000  0.4721080000000  0.5375830000000 1.0
C      1  0.5160860000000  0.4951420000000  0.6097270000000 1.0
C      1  0.4463970000000  0.4770490000000  0.4125910000000 1.0
C      1  0.4330620000000  0.5786310000000  0.4501940000000 1.0
C      1  0.4506110000000  0.4238100000000  0.5483820000000 1.0
C      1  0.5422130000000  0.4724170000000  0.5735320000000 1.0
C      1  0.5881660000000  0.5689650000000  0.5177750000000 1.0
C      1  0.4543730000000  0.4984680000000  0.3945230000000 1.0
C      1  0.4223930000000  0.4649400000000  0.5743360000000 1.0
C      1  0.4454260000000  0.6044880000000  0.4526830000000 1.0
C      1  0.4208020000000  0.4097500000000  0.5095830000000 1.0
C      1  0.5476170000000  0.4606260000000  0.5206440000000 1.0
C      1  0.4464100000000  0.5251270000000  0.4051350000000 1.0
C      1  0.3957100000000  0.5043970000000  0.5604520000000 1.0
C      1  0.4469340000000  0.5185050000000  0.5166290000000 1.0
C      1  0.5742390000000  0.4316060000000  0.5616090000000 1.0
C      1  0.4033210000000  0.5252800000000  0.5415630000000 1.0
C      1  0.4658710000000  0.4639460000000  0.5223890000000 1.0
C      1  0.4982190000000  0.4487300000000  0.4630480000000 1.0
C      1  0.5297050000000  0.5021490000000  0.3922580000000 1.0
C      1  0.5193690000000  0.3916320000000  0.5203960000000 1.0
C      1  0.5902130000000  0.4370500000000  0.4782070000000 1.0
C      1  0.5122060000000  0.4977730000000  0.4735680000000 1.0
C      1  0.4835590000000  0.4865440000000  0.5144540000000 1.0
C      1  0.5245370000000  0.6181370000000  0.5018110000000 1.0
C      1  0.5755530000000  0.5498580000000  0.5603760000000 1.0
C      1  0.4950640000000  0.6001510000000  0.5376560000000 1.0
C      1  0.5643730000000  0.5961440000000  0.4894250000000 1.0
C      1  0.4330680000000  0.5638960000000  0.5684320000000 1.0
C      1  0.5495000000000  0.4531730000000  0.5942770000000 1.0
C      1  0.4565930000000  0.4521960000000  0.4785570000000 1.0
C      1  0.4995170000000  0.5333500000000  0.5053230000000 1.0
C      1  0.4356750000000  0.5925550000000  0.4990210000000 1.0
C      1  0.6064320000000  0.5001330000000  0.5154650000000 1.0
C      1  0.4707190000000  0.4600290000000  0.5638170000000 1.0
C      1  0.4366330000000  0.5153930000000  0.5793050000000 1.0
C      1  0.4501900000000  0.5615910000000  0.4695490000000 1.0
C      1  0.5906880000000  0.5232430000000  0.5591760000000 1.0
C      1  0.5301260000000  0.4304440000000  0.5941090000000 1.0
C      1  0.5703720000000  0.5696770000000  0.5408420000000 1.0
C      1  0.4642750000000  0.6008890000000  0.4300780000000 1.0
C      1  0.5013700000000  0.5656330000000  0.4639950000000 1.0
C      1  0.4806320000000  0.5088180000000  0.3861060000000 1.0
C      1  0.5601550000000  0.5149380000000  0.5245320000000 1.0
C      1  0.5104560000000  0.4578640000000  0.5410620000000 1.0
C      1  0.5581130000000  0.4113920000000  0.5052700000000 1.0
C      1  0.4406700000000  0.4766560000000  0.4854710000000 1.0
C      1  0.4709670000000  0.4650490000000  0.6088220000000 1.0
C      1  0.4336160000000  0.5650920000000  0.4242430000000 1.0
C      1  0.4812400000000  0.5637230000000  0.4039040000000 1.0
C      1  0.5879460000000  0.4527240000000  0.5462580000000 1.0
C      1  0.4126160000000  0.5506390000000  0.5020760000000 1.0
C      1  0.4731850000000  0.5175150000000  0.6125030000000 1.0
C      1  0.4580920000000  0.4110170000000  0.4543000000000 1.0
C      1  0.4660760000000  0.4309140000000  0.4955470000000 1.0
C      1  0.4170280000000  0.5293030000000  0.4529880000000 1.0
C      1  0.4931980000000  0.5999970000000  0.4335810000000 1.0
C      1  0.6091580000000  0.5244810000000  0.5000990000000 1.0
C      1  0.5353480000000  0.5002660000000  0.5846820000000 1.0
C      1  0.4936180000000  0.3976020000000  0.5324160000000 1.0
C      1  0.5721440000000  0.5347380000000  0.4191840000000 1.0
C      1  0.4989560000000  0.4866620000000  0.5398890000000 1.0
C      1  0.5539670000000  0.4868070000000  0.4773630000000 1.0
C      1  0.5225110000000  0.3893060000000  0.4906060000000 1.0
C      1  0.5169700000000  0.4040720000000  0.4526480000000 1.0
C      1  0.5406690000000  0.5522590000000  0.4965440000000 1.0
C      1  0.4980230000000  0.6125250000000  0.5108880000000 1.0
C      1  0.4995820000000  0.3936270000000  0.4737690000000 1.0
END
