TITL C-3909786-8783-21 3.57849096310793 125000 -5429.87633293658 0 0 38 (C1) n - 1
REM
REM in /home/nfs/bkarasulu/CARBON/AIRSS/Generating-Clusters/ReaxFF-fromJPCA2015/Units_Real/with-SteepDescent/Only-C1/SD-CG/Try1-3A/FIRE-CG
REM
REM
REM
REM
REM
REM ./C.cell (11c1c37f851c82e70ff6c80c92926a4b)
REM
REM compiler GCC version 9.2.1 20190827 (Red Hat 9.2.1-1)
REM options -cpp -mtune=generic -march=x86-64 -g -O0 -fpre-include=/usr/include/finclude/math-vector-fortran.h
REM seed -2031023347 -1512315376 186991381 -1068499724 226676366 349854253 1925354642 -1751757602 -1234996083 1798662140 -170635620 -579221500 -779794826 952854690 2068604413 -1701306542 -42016795 1366028536 1896656633 -716435737 -1998869151 955218692 1567077808 -436607434 -403425863 -1145768847 -1681572252 1175171041 -9042228 2059140202 -1879261242 -1068937219 -1217043919
REM
CELL 1.54180   50.00000   50.00000   50.00000   90.00000   90.00000   90.00000
LATT -1
SFAC C  
C      1  0.4869890000000  0.5169340000000  0.5616720000000 1.0
C      1  0.4727590000000  0.5486750000000  0.4943360000000 1.0
C      1  0.5381990000000  0.5049760000000  0.5470670000000 1.0
C      1  0.4865650000000  0.5482590000000  0.5652110000000 1.0
C      1  0.4895120000000  0.4494260000000  0.5323350000000 1.0
C      1  0.4606340000000  0.5045180000000  0.5623380000000 1.0
C      1  0.5584760000000  0.4874820000000  0.5412240000000 1.0
C      1  0.5072960000000  0.5020680000000  0.5441630000000 1.0
C      1  0.4925510000000  0.5068450000000  0.4433930000000 1.0
C      1  0.5457590000000  0.4494560000000  0.4667060000000 1.0
C      1  0.5610620000000  0.4739050000000  0.4604710000000 1.0
C      1  0.4950750000000  0.5354080000000  0.4502950000000 1.0
C      1  0.5223150000000  0.5421900000000  0.4621660000000 1.0
C      1  0.5464700000000  0.4991980000000  0.4532780000000 1.0
C      1  0.4648890000000  0.4464880000000  0.5161290000000 1.0
C      1  0.4649970000000  0.5004860000000  0.4861980000000 1.0
C      1  0.4468630000000  0.4680850000000  0.5259430000000 1.0
C      1  0.4792020000000  0.5211810000000  0.5012790000000 1.0
C      1  0.5070440000000  0.5184560000000  0.5138210000000 1.0
C      1  0.4779510000000  0.4901950000000  0.4619450000000 1.0
C      1  0.5268180000000  0.4357360000000  0.4704100000000 1.0
C      1  0.5319660000000  0.5100730000000  0.4999360000000 1.0
C      1  0.5047570000000  0.4478470000000  0.4684860000000 1.0
C      1  0.5526180000000  0.5054210000000  0.5200490000000 1.0
C      1  0.5116560000000  0.4821920000000  0.4159980000000 1.0
C      1  0.4796380000000  0.4610060000000  0.5575590000000 1.0
C      1  0.4798300000000  0.4606930000000  0.4667350000000 1.0
C      1  0.4734570000000  0.5503700000000  0.4644500000000 1.0
C      1  0.4893750000000  0.5665310000000  0.5130130000000 1.0
C      1  0.5390930000000  0.5192920000000  0.4727010000000 1.0
C      1  0.4599940000000  0.4551910000000  0.4881580000000 1.0
C      1  0.4546990000000  0.4762610000000  0.5529940000000 1.0
C      1  0.4861110000000  0.5625560000000  0.5406140000000 1.0
C      1  0.4474640000000  0.4798180000000  0.4983290000000 1.0
C      1  0.5033860000000  0.4717180000000  0.5450910000000 1.0
C      1  0.5209920000000  0.4969210000000  0.4342950000000 1.0
C      1  0.5143110000000  0.5503880000000  0.5141590000000 1.0
C      1  0.5192250000000  0.5537580000000  0.4870540000000 1.0
END
