TITL C-3909644-4730-15 9.45534326142151 125000 -13759.6724957271 0 0 94 (C1) n - 1
REM
REM in /home/nfs/bkarasulu/CARBON/AIRSS/Generating-Clusters/ReaxFF-fromJPCA2015/Units_Real/with-SteepDescent/Only-C1/SD-CG/Try1-3A/FIRE-CG
REM
REM
REM
REM
REM
REM ./C.cell (11c1c37f851c82e70ff6c80c92926a4b)
REM
REM compiler GCC version 9.2.1 20190827 (Red Hat 9.2.1-1)
REM options -cpp -mtune=generic -march=x86-64 -g -O0 -fpre-include=/usr/include/finclude/math-vector-fortran.h
REM seed 805364236 -1190457496 -1788543262 -952927254 -1352382415 2022515956 713565313 739661370 -800647479 -1350240997 -1657041343 672919579 1893933861 474067547 -351275779 -404000049 -1188283943 -480493138 1210612366 -69447412 -234293195 1460953467 1442770307 430073821 -1121304374 -1354894145 -1628431304 -1599060672 -492469265 1255936576 142116603 1031413368 -1302926221
REM
CELL 1.54180   50.00000   50.00000   50.00000   90.00000   90.00000   90.00000
LATT -1
SFAC C  
C      1  0.5352700000000  0.5365910000000  0.5311510000000 1.0
C      1  0.4635360000000  0.4836700000000  0.5742870000000 1.0
C      1  0.4572610000000  0.5274640000000  0.5472220000000 1.0
C      1  0.4504850000000  0.5390360000000  0.4225500000000 1.0
C      1  0.5219350000000  0.4196710000000  0.4803200000000 1.0
C      1  0.4463950000000  0.5013900000000  0.5594660000000 1.0
C      1  0.4817330000000  0.4683460000000  0.4380060000000 1.0
C      1  0.4622720000000  0.5877610000000  0.5219030000000 1.0
C      1  0.4475910000000  0.4941590000000  0.4456580000000 1.0
C      1  0.5670310000000  0.4618320000000  0.4506100000000 1.0
C      1  0.5443530000000  0.4320900000000  0.5274650000000 1.0
C      1  0.5078700000000  0.4074810000000  0.5045520000000 1.0
C      1  0.4318510000000  0.4629890000000  0.4945980000000 1.0
C      1  0.4885730000000  0.4413580000000  0.5638430000000 1.0
C      1  0.5321240000000  0.4530350000000  0.5124800000000 1.0
C      1  0.4333790000000  0.5428340000000  0.5338710000000 1.0
C      1  0.4868580000000  0.5768420000000  0.4804890000000 1.0
C      1  0.4338090000000  0.5396130000000  0.4619070000000 1.0
C      1  0.4821790000000  0.4850650000000  0.4838580000000 1.0
C      1  0.5394810000000  0.5618780000000  0.4689230000000 1.0
C      1  0.5632340000000  0.4798240000000  0.5391260000000 1.0
C      1  0.5102420000000  0.4584880000000  0.5656500000000 1.0
C      1  0.5378470000000  0.4524740000000  0.5710620000000 1.0
C      1  0.5096380000000  0.4677820000000  0.4308220000000 1.0
C      1  0.4912870000000  0.4927370000000  0.5750600000000 1.0
C      1  0.5640890000000  0.5615470000000  0.4851270000000 1.0
C      1  0.5185930000000  0.5810290000000  0.4771700000000 1.0
C      1  0.4173460000000  0.4977120000000  0.5184170000000 1.0
C      1  0.4749310000000  0.5714540000000  0.4517630000000 1.0
C      1  0.4972680000000  0.4318190000000  0.5379450000000 1.0
C      1  0.5736250000000  0.4816860000000  0.4869240000000 1.0
C      1  0.5655570000000  0.5682520000000  0.5132960000000 1.0
C      1  0.5736210000000  0.4920870000000  0.5141560000000 1.0
C      1  0.5757890000000  0.5022570000000  0.4324020000000 1.0
C      1  0.5034310000000  0.4821080000000  0.5501530000000 1.0
C      1  0.4693850000000  0.5310420000000  0.4980380000000 1.0
C      1  0.5014920000000  0.5393660000000  0.5713330000000 1.0
C      1  0.5006950000000  0.4992990000000  0.5267630000000 1.0
C      1  0.4350940000000  0.4679050000000  0.4475110000000 1.0
C      1  0.4839030000000  0.5555750000000  0.5024160000000 1.0
C      1  0.5217120000000  0.4397170000000  0.4308860000000 1.0
C      1  0.5807910000000  0.5200920000000  0.5198420000000 1.0
C      1  0.4606170000000  0.4350110000000  0.4673550000000 1.0
C      1  0.4583040000000  0.4498240000000  0.4441520000000 1.0
C      1  0.5780360000000  0.5230620000000  0.5500750000000 1.0
C      1  0.5542200000000  0.4527360000000  0.5462320000000 1.0
C      1  0.5260750000000  0.5368290000000  0.5576140000000 1.0
C      1  0.4847450000000  0.4589990000000  0.4978130000000 1.0
C      1  0.4881540000000  0.5654710000000  0.5310460000000 1.0
C      1  0.4105530000000  0.4810890000000  0.4954730000000 1.0
C      1  0.5804090000000  0.5450150000000  0.5038550000000 1.0
C      1  0.5262370000000  0.4927110000000  0.4332650000000 1.0
C      1  0.4687480000000  0.4277410000000  0.5309750000000 1.0
C      1  0.5656790000000  0.4944050000000  0.4598220000000 1.0
C      1  0.4348810000000  0.5198560000000  0.4397660000000 1.0
C      1  0.4595380000000  0.4915620000000  0.5021520000000 1.0
C      1  0.5221130000000  0.5130580000000  0.4825020000000 1.0
C      1  0.4693120000000  0.5987620000000  0.4966480000000 1.0
C      1  0.5141910000000  0.4193340000000  0.4523870000000 1.0
C      1  0.5392470000000  0.4432510000000  0.4877700000000 1.0
C      1  0.5331840000000  0.5172510000000  0.5082100000000 1.0
C      1  0.5158000000000  0.4953840000000  0.5032800000000 1.0
C      1  0.4180640000000  0.4667990000000  0.4709570000000 1.0
C      1  0.4799670000000  0.5461930000000  0.5526750000000 1.0
C      1  0.4491370000000  0.5587470000000  0.4453600000000 1.0
C      1  0.5218480000000  0.4136660000000  0.5280640000000 1.0
C      1  0.4634150000000  0.4238790000000  0.4901380000000 1.0
C      1  0.5166170000000  0.5794140000000  0.5299450000000 1.0
C      1  0.4754350000000  0.5349800000000  0.4066020000000 1.0
C      1  0.5430400000000  0.5659020000000  0.5329610000000 1.0
C      1  0.5219440000000  0.5852130000000  0.5039040000000 1.0
C      1  0.4923390000000  0.5644910000000  0.4319290000000 1.0
C      1  0.5502680000000  0.4972270000000  0.4167040000000 1.0
C      1  0.5372890000000  0.5403190000000  0.4484100000000 1.0
C      1  0.5006340000000  0.5517850000000  0.4088580000000 1.0
C      1  0.4453510000000  0.4583560000000  0.5393140000000 1.0
C      1  0.5045220000000  0.4556750000000  0.5182000000000 1.0
C      1  0.5605360000000  0.5011380000000  0.5594340000000 1.0
C      1  0.4313080000000  0.4846040000000  0.5411990000000 1.0
C      1  0.5374730000000  0.5044520000000  0.5831030000000 1.0
C      1  0.4778790000000  0.4105510000000  0.5102120000000 1.0
C      1  0.5395350000000  0.4766610000000  0.5855030000000 1.0
C      1  0.5353840000000  0.5095860000000  0.4571750000000 1.0
C      1  0.4753480000000  0.4906680000000  0.4551960000000 1.0
C      1  0.4406270000000  0.5327110000000  0.4896820000000 1.0
C      1  0.5286520000000  0.5466210000000  0.4213280000000 1.0
C      1  0.4734360000000  0.5106040000000  0.5207080000000 1.0
C      1  0.4443120000000  0.5671080000000  0.5276320000000 1.0
C      1  0.5644210000000  0.4551790000000  0.4787790000000 1.0
C      1  0.4566130000000  0.4636990000000  0.5096880000000 1.0
C      1  0.5466060000000  0.4497470000000  0.4367620000000 1.0
C      1  0.4629120000000  0.4559480000000  0.5621210000000 1.0
C      1  0.5087580000000  0.5135350000000  0.5858720000000 1.0
C      1  0.4227320000000  0.5258360000000  0.5121680000000 1.0
END
