TITL C-3909777-8277-29 3.18070080152003 125000 -1117.38603793706 0 0 9 (C1) n - 1
REM
REM in /home/nfs/bkarasulu/CARBON/AIRSS/Generating-Clusters/ReaxFF-fromJPCA2015/Units_Real/with-SteepDescent/Only-C1/SD-CG/Try1-3A/FIRE-CG
REM
REM
REM
REM
REM
REM ./C.cell (11c1c37f851c82e70ff6c80c92926a4b)
REM
REM compiler GCC version 9.2.1 20190827 (Red Hat 9.2.1-1)
REM options -cpp -mtune=generic -march=x86-64 -g -O0 -fpre-include=/usr/include/finclude/math-vector-fortran.h
REM seed 184869809 -1122223386 708287038 -1615947490 -1778996267 -1011079676 1613095338 -1287005142 841993956 1025535214 589210901 -400860408 -1339274440 1001013707 -263922234 317273336 948734773 -326429886 804802205 551635020 -219729765 -2042630181 1284839745 -1976382008 -464785688 -1172683885 531597956 -1612494663 1269652340 1291023338 1458489999 1282322892 -1326981950
REM
CELL 1.54180   50.00000   50.00000   50.00000   90.00000   90.00000   90.00000
LATT -1
SFAC C  
C      1  0.4535930000000  0.5106300000000  0.5405500000000 1.0
C      1  0.4934560000000  0.5425540000000  0.4619350000000 1.0
C      1  0.5209410000000  0.5001370000000  0.4737780000000 1.0
C      1  0.5068680000000  0.4729460000000  0.4796810000000 1.0
C      1  0.4728410000000  0.4962960000000  0.5364400000000 1.0
C      1  0.4942330000000  0.4808260000000  0.5311020000000 1.0
C      1  0.5356440000000  0.4977450000000  0.5011400000000 1.0
C      1  0.5061420000000  0.5229770000000  0.4674010000000 1.0
C      1  0.5162830000000  0.4758880000000  0.5079740000000 1.0
END
