TITL C-3909642-4437-27 33.5664995249583 125000 -16429.1340368968 0 0 111 (C1) n - 1
REM
REM in /home/nfs/bkarasulu/CARBON/AIRSS/Generating-Clusters/ReaxFF-fromJPCA2015/Units_Real/with-SteepDescent/Only-C1/SD-CG/Try1-3A/FIRE-CG
REM
REM
REM
REM
REM
REM ./C.cell (11c1c37f851c82e70ff6c80c92926a4b)
REM
REM compiler GCC version 9.2.1 20190827 (Red Hat 9.2.1-1)
REM options -cpp -mtune=generic -march=x86-64 -g -O0 -fpre-include=/usr/include/finclude/math-vector-fortran.h
REM seed -1301908637 -1405795114 -1051835302 477072350 1028095310 -322746728 343427243 1518194531 1954657170 -1701174460 -1303159133 388893400 -1228576482 -2090850434 -290323925 283217932 -1948703919 1595285532 1351676159 14457180 -1252385898 -1528641932 -1248957214 1460656743 1800304920 1387495326 1086374246 -2000583855 -1245306560 -960702722 140012546 -1511082337 914765576
REM
CELL 1.54180   50.00000   50.00000   50.00000   90.00000   90.00000   90.00000
LATT -1
SFAC C  
C      1  0.5595820000000  0.4431630000000  0.4844840000000 1.0
C      1  0.4868520000000  0.5630040000000  0.4900240000000 1.0
C      1  0.4668390000000  0.5510710000000  0.5613310000000 1.0
C      1  0.4986220000000  0.4496960000000  0.5824810000000 1.0
C      1  0.4086720000000  0.4889650000000  0.4933730000000 1.0
C      1  0.5289730000000  0.4915450000000  0.4797820000000 1.0
C      1  0.5139230000000  0.4970000000000  0.5907710000000 1.0
C      1  0.5364340000000  0.4558650000000  0.4303390000000 1.0
C      1  0.4609660000000  0.4554390000000  0.4277010000000 1.0
C      1  0.5587560000000  0.5597690000000  0.4639760000000 1.0
C      1  0.4926100000000  0.5580860000000  0.5500060000000 1.0
C      1  0.5298260000000  0.5437400000000  0.5016960000000 1.0
C      1  0.5144280000000  0.5682600000000  0.4427410000000 1.0
C      1  0.5449110000000  0.5778810000000  0.4818500000000 1.0
C      1  0.5632340000000  0.4303960000000  0.5231720000000 1.0
C      1  0.5016970000000  0.5421590000000  0.5034570000000 1.0
C      1  0.4827530000000  0.5477140000000  0.4660240000000 1.0
C      1  0.4513250000000  0.4706460000000  0.5669150000000 1.0
C      1  0.5019780000000  0.5888830000000  0.4899010000000 1.0
C      1  0.4941920000000  0.4766550000000  0.5887800000000 1.0
C      1  0.4920530000000  0.5793190000000  0.5302050000000 1.0
C      1  0.4922490000000  0.5470440000000  0.4247700000000 1.0
C      1  0.4864790000000  0.4940910000000  0.4543460000000 1.0
C      1  0.4228350000000  0.4450300000000  0.5191690000000 1.0
C      1  0.5533030000000  0.5384710000000  0.5735420000000 1.0
C      1  0.5064800000000  0.4755790000000  0.4101650000000 1.0
C      1  0.5330440000000  0.5237320000000  0.4345650000000 1.0
C      1  0.5731960000000  0.5003400000000  0.4403380000000 1.0
C      1  0.5084100000000  0.5251530000000  0.4192800000000 1.0
C      1  0.4154980000000  0.4735370000000  0.5168630000000 1.0
C      1  0.4631540000000  0.5077400000000  0.4179520000000 1.0
C      1  0.4635390000000  0.5843480000000  0.5171070000000 1.0
C      1  0.4538660000000  0.4167600000000  0.5210370000000 1.0
C      1  0.5776000000000  0.4472250000000  0.5348080000000 1.0
C      1  0.5292980000000  0.5431110000000  0.5895680000000 1.0
C      1  0.5072380000000  0.5309960000000  0.5508360000000 1.0
C      1  0.5879000000000  0.4733420000000  0.5376900000000 1.0
C      1  0.4342450000000  0.4249590000000  0.4999670000000 1.0
C      1  0.4613550000000  0.4807550000000  0.4939670000000 1.0
C      1  0.4607140000000  0.4975240000000  0.4688550000000 1.0
C      1  0.4583790000000  0.4346400000000  0.4481920000000 1.0
C      1  0.5593560000000  0.5083280000000  0.5712910000000 1.0
C      1  0.4851850000000  0.4685570000000  0.5061310000000 1.0
C      1  0.5752720000000  0.4683940000000  0.4852340000000 1.0
C      1  0.5046490000000  0.5254640000000  0.5850840000000 1.0
C      1  0.5361020000000  0.4785170000000  0.4137740000000 1.0
C      1  0.4080970000000  0.5189510000000  0.5289770000000 1.0
C      1  0.4950850000000  0.5210340000000  0.4686530000000 1.0
C      1  0.4983430000000  0.4263480000000  0.4263850000000 1.0
C      1  0.4249600000000  0.5326310000000  0.4802500000000 1.0
C      1  0.5423600000000  0.4338360000000  0.4634180000000 1.0
C      1  0.4172210000000  0.4933870000000  0.5391770000000 1.0
C      1  0.5697310000000  0.4959600000000  0.5470090000000 1.0
C      1  0.5351150000000  0.4678350000000  0.5579790000000 1.0
C      1  0.4885160000000  0.5057590000000  0.5446750000000 1.0
C      1  0.4923180000000  0.5008710000000  0.4192620000000 1.0
C      1  0.4829080000000  0.4221180000000  0.5234350000000 1.0
C      1  0.5762390000000  0.5524330000000  0.5305550000000 1.0
C      1  0.4783230000000  0.4332780000000  0.5707640000000 1.0
C      1  0.4966560000000  0.4268410000000  0.5487850000000 1.0
C      1  0.4845380000000  0.4221410000000  0.4529870000000 1.0
C      1  0.4476060000000  0.4817740000000  0.4236030000000 1.0
C      1  0.4349430000000  0.5116000000000  0.4623390000000 1.0
C      1  0.5239300000000  0.5157470000000  0.4654190000000 1.0
C      1  0.4763990000000  0.5792910000000  0.4411520000000 1.0
C      1  0.5279100000000  0.4170370000000  0.4811330000000 1.0
C      1  0.4996670000000  0.4236870000000  0.4786190000000 1.0
C      1  0.5776610000000  0.5409800000000  0.4762980000000 1.0
C      1  0.5876550000000  0.5477040000000  0.5035880000000 1.0
C      1  0.5472270000000  0.4803520000000  0.5349830000000 1.0
C      1  0.5879720000000  0.5257820000000  0.5247240000000 1.0
C      1  0.5224500000000  0.4526540000000  0.4532260000000 1.0
C      1  0.5723630000000  0.5093720000000  0.5069970000000 1.0
C      1  0.5391080000000  0.4889630000000  0.5787900000000 1.0
C      1  0.4145370000000  0.4895070000000  0.4636800000000 1.0
C      1  0.4916820000000  0.4402500000000  0.5019620000000 1.0
C      1  0.4456170000000  0.4606690000000  0.4824590000000 1.0
C      1  0.5806420000000  0.4875510000000  0.4643030000000 1.0
C      1  0.5499510000000  0.5021940000000  0.4254240000000 1.0
C      1  0.4743140000000  0.4877990000000  0.5707220000000 1.0
C      1  0.4875090000000  0.5168690000000  0.5045380000000 1.0
C      1  0.5837640000000  0.5163850000000  0.4618690000000 1.0
C      1  0.4887920000000  0.4527350000000  0.4158900000000 1.0
C      1  0.4685430000000  0.5176620000000  0.5268060000000 1.0
C      1  0.4248010000000  0.5342380000000  0.5349650000000 1.0
C      1  0.5396110000000  0.5702090000000  0.5101500000000 1.0
C      1  0.4658640000000  0.5352990000000  0.4249880000000 1.0
C      1  0.4538390000000  0.5093870000000  0.5789530000000 1.0
C      1  0.5441340000000  0.4270830000000  0.5034090000000 1.0
C      1  0.5204330000000  0.5847080000000  0.4668210000000 1.0
C      1  0.4277760000000  0.4766390000000  0.4424030000000 1.0
C      1  0.5513720000000  0.5512130000000  0.5452630000000 1.0
C      1  0.4528790000000  0.4436950000000  0.5625290000000 1.0
C      1  0.4349120000000  0.4932140000000  0.5624600000000 1.0
C      1  0.5334570000000  0.5306750000000  0.5394940000000 1.0
C      1  0.5166670000000  0.4452740000000  0.5610900000000 1.0
C      1  0.4091100000000  0.5172120000000  0.5006750000000 1.0
C      1  0.5827430000000  0.4825500000000  0.5092980000000 1.0
C      1  0.4389410000000  0.5569380000000  0.4761630000000 1.0
C      1  0.5086850000000  0.4765030000000  0.4657710000000 1.0
C      1  0.5295360000000  0.4916700000000  0.5117280000000 1.0
C      1  0.4395310000000  0.4358200000000  0.4719340000000 1.0
C      1  0.4480560000000  0.5728280000000  0.4974420000000 1.0
C      1  0.5391450000000  0.5548810000000  0.4423570000000 1.0
C      1  0.5001680000000  0.4913360000000  0.5184980000000 1.0
C      1  0.5158310000000  0.5873570000000  0.5154850000000 1.0
C      1  0.4725140000000  0.5311520000000  0.5810910000000 1.0
C      1  0.4592490000000  0.5562950000000  0.4497380000000 1.0
C      1  0.4515630000000  0.5392610000000  0.5375570000000 1.0
C      1  0.5415800000000  0.5188320000000  0.5147430000000 1.0
C      1  0.4389760000000  0.4328490000000  0.5406150000000 1.0
END
