TITL C-3909652-3393-25 -3.39876775534364 125000 -15733.1231090075 0 0 104 (C1) n - 1
REM
REM in /home/nfs/bkarasulu/CARBON/AIRSS/Generating-Clusters/ReaxFF-fromJPCA2015/Units_Real/with-SteepDescent/Only-C1/SD-CG/Try1-3A/FIRE-CG
REM
REM
REM
REM
REM
REM ./C.cell (11c1c37f851c82e70ff6c80c92926a4b)
REM
REM compiler GCC version 9.2.1 20190827 (Red Hat 9.2.1-1)
REM options -cpp -mtune=generic -march=x86-64 -g -O0 -fpre-include=/usr/include/finclude/math-vector-fortran.h
REM seed -2042980172 1873332356 1708749588 1425551254 941393688 61232827 -520343104 1688020177 -1918187435 572423549 -903735336 186407881 325115858 -1526148047 -45891809 1622484393 1128358456 -1900499295 198411576 -2135411739 -2128209408 176382059 1340514850 1823280149 1324156646 2102020071 268925402 -1292315542 -168498166 -465227977 375001707 -1911859024 -220595758
REM
CELL 1.54180   50.00000   50.00000   50.00000   90.00000   90.00000   90.00000
LATT -1
SFAC C  
C      1  0.4102490000000  0.5069390000000  0.4981050000000 1.0
C      1  0.5268390000000  0.5351390000000  0.4944510000000 1.0
C      1  0.5290950000000  0.5816340000000  0.5031860000000 1.0
C      1  0.5127690000000  0.4557340000000  0.4986570000000 1.0
C      1  0.4306970000000  0.5193760000000  0.4515330000000 1.0
C      1  0.5371670000000  0.4618120000000  0.4575410000000 1.0
C      1  0.4739090000000  0.5395710000000  0.4475790000000 1.0
C      1  0.5542150000000  0.5211730000000  0.4249230000000 1.0
C      1  0.4967990000000  0.5710430000000  0.4728970000000 1.0
C      1  0.5066910000000  0.5154530000000  0.4118490000000 1.0
C      1  0.5022070000000  0.5134550000000  0.5268500000000 1.0
C      1  0.5313630000000  0.4603720000000  0.5686500000000 1.0
C      1  0.5221730000000  0.5587850000000  0.4294420000000 1.0
C      1  0.4894940000000  0.4921390000000  0.4058440000000 1.0
C      1  0.4448320000000  0.5450990000000  0.4489890000000 1.0
C      1  0.5099110000000  0.3966030000000  0.5134690000000 1.0
C      1  0.5632850000000  0.5360050000000  0.5524110000000 1.0
C      1  0.4636060000000  0.4475140000000  0.4423400000000 1.0
C      1  0.4404010000000  0.4943330000000  0.4392300000000 1.0
C      1  0.5045790000000  0.5796600000000  0.5194080000000 1.0
C      1  0.5298000000000  0.4096090000000  0.4806750000000 1.0
C      1  0.5373940000000  0.5729430000000  0.4513020000000 1.0
C      1  0.4916520000000  0.5469390000000  0.5829310000000 1.0
C      1  0.5542230000000  0.4602940000000  0.5486390000000 1.0
C      1  0.5072440000000  0.5046670000000  0.4400780000000 1.0
C      1  0.5667850000000  0.5066610000000  0.5589680000000 1.0
C      1  0.4197660000000  0.5262200000000  0.4779970000000 1.0
C      1  0.4803740000000  0.4347000000000  0.4633690000000 1.0
C      1  0.4142990000000  0.4838840000000  0.5409140000000 1.0
C      1  0.4721310000000  0.4297910000000  0.5363430000000 1.0
C      1  0.4646450000000  0.4981220000000  0.4235290000000 1.0
C      1  0.4447850000000  0.4689210000000  0.4549710000000 1.0
C      1  0.5448340000000  0.5087680000000  0.5784200000000 1.0
C      1  0.4722480000000  0.5050400000000  0.4877050000000 1.0
C      1  0.4313090000000  0.5335690000000  0.5363250000000 1.0
C      1  0.5317450000000  0.4738090000000  0.4849880000000 1.0
C      1  0.4233240000000  0.4572740000000  0.5326510000000 1.0
C      1  0.5550000000000  0.4224700000000  0.4801980000000 1.0
C      1  0.4621430000000  0.4276070000000  0.5087850000000 1.0
C      1  0.5635910000000  0.5617040000000  0.4576720000000 1.0
C      1  0.4741410000000  0.4813930000000  0.4712630000000 1.0
C      1  0.5020690000000  0.4882470000000  0.5685340000000 1.0
C      1  0.4814440000000  0.5282890000000  0.4741730000000 1.0
C      1  0.4642890000000  0.5351660000000  0.5819040000000 1.0
C      1  0.4557380000000  0.5741390000000  0.5244560000000 1.0
C      1  0.4368110000000  0.4522780000000  0.5582870000000 1.0
C      1  0.5073610000000  0.5023700000000  0.5468200000000 1.0
C      1  0.4699450000000  0.5626730000000  0.5464820000000 1.0
C      1  0.4060230000000  0.4798170000000  0.4852080000000 1.0
C      1  0.5069630000000  0.4695110000000  0.4156310000000 1.0
C      1  0.4612560000000  0.4871050000000  0.5319260000000 1.0
C      1  0.4337260000000  0.5555470000000  0.5176210000000 1.0
C      1  0.4760500000000  0.4163020000000  0.4861960000000 1.0
C      1  0.5049180000000  0.4492840000000  0.5643540000000 1.0
C      1  0.5438660000000  0.4954910000000  0.5004100000000 1.0
C      1  0.5839900000000  0.4607860000000  0.4965100000000 1.0
C      1  0.5672980000000  0.5493730000000  0.5266020000000 1.0
C      1  0.5295870000000  0.5331890000000  0.4148950000000 1.0
C      1  0.5260850000000  0.4863080000000  0.5827390000000 1.0
C      1  0.4382140000000  0.4941030000000  0.5872400000000 1.0
C      1  0.5171080000000  0.4126630000000  0.5347870000000 1.0
C      1  0.5231050000000  0.5840460000000  0.4742840000000 1.0
C      1  0.5521310000000  0.4408040000000  0.5270730000000 1.0
C      1  0.5711040000000  0.4827960000000  0.5421000000000 1.0
C      1  0.5563560000000  0.4912250000000  0.4280570000000 1.0
C      1  0.4696130000000  0.5803000000000  0.4795450000000 1.0
C      1  0.5032930000000  0.3997780000000  0.4862500000000 1.0
C      1  0.5230920000000  0.5142910000000  0.4600670000000 1.0
C      1  0.4454120000000  0.5656010000000  0.4705490000000 1.0
C      1  0.4617060000000  0.5091800000000  0.5973740000000 1.0
C      1  0.4883520000000  0.4972670000000  0.5954630000000 1.0
C      1  0.4646570000000  0.4462730000000  0.5573380000000 1.0
C      1  0.5244910000000  0.4359200000000  0.5176070000000 1.0
C      1  0.4382650000000  0.4488700000000  0.5057490000000 1.0
C      1  0.5826520000000  0.4838810000000  0.5145160000000 1.0
C      1  0.4930320000000  0.5568120000000  0.4325950000000 1.0
C      1  0.4822360000000  0.4923680000000  0.4452890000000 1.0
C      1  0.5270100000000  0.5157530000000  0.5140790000000 1.0
C      1  0.4972770000000  0.4237260000000  0.5549760000000 1.0
C      1  0.5329590000000  0.4733160000000  0.4310410000000 1.0
C      1  0.5632970000000  0.5340550000000  0.4492280000000 1.0
C      1  0.4226000000000  0.4778660000000  0.5694310000000 1.0
C      1  0.4995170000000  0.5664560000000  0.5448610000000 1.0
C      1  0.5829390000000  0.4608140000000  0.4661850000000 1.0
C      1  0.5716330000000  0.5601640000000  0.4862760000000 1.0
C      1  0.5400770000000  0.5372090000000  0.5701720000000 1.0
C      1  0.4892910000000  0.4564820000000  0.4810360000000 1.0
C      1  0.5712060000000  0.5064480000000  0.4996590000000 1.0
C      1  0.5012600000000  0.5450120000000  0.4858230000000 1.0
C      1  0.4777360000000  0.5064130000000  0.5143440000000 1.0
C      1  0.5777170000000  0.5356360000000  0.5028410000000 1.0
C      1  0.5433670000000  0.5259160000000  0.4715200000000 1.0
C      1  0.4772200000000  0.5843450000000  0.5073490000000 1.0
C      1  0.4847520000000  0.4565040000000  0.4265300000000 1.0
C      1  0.5600740000000  0.4431910000000  0.4594190000000 1.0
C      1  0.4530550000000  0.5404100000000  0.5555570000000 1.0
C      1  0.5562630000000  0.5713960000000  0.5089040000000 1.0
C      1  0.4174320000000  0.5094840000000  0.5265190000000 1.0
C      1  0.4278690000000  0.5524170000000  0.4892340000000 1.0
C      1  0.4263050000000  0.4602610000000  0.4778690000000 1.0
C      1  0.5686970000000  0.4373470000000  0.5033410000000 1.0
C      1  0.5154440000000  0.5543480000000  0.5674440000000 1.0
C      1  0.4529180000000  0.4749760000000  0.5065940000000 1.0
C      1  0.5781330000000  0.4817770000000  0.4460580000000 1.0
END
