TITL C-3909641-6767-6 -18.9766735350717 125000 -16625.033986251 0 0 110 (C1) n - 1
REM
REM in /home/nfs/bkarasulu/CARBON/AIRSS/Generating-Clusters/ReaxFF-fromJPCA2015/Units_Real/with-SteepDescent/Only-C1/SD-CG/Try1-3A/FIRE-CG
REM
REM
REM
REM
REM
REM ./C.cell (11c1c37f851c82e70ff6c80c92926a4b)
REM
REM compiler GCC version 9.2.1 20190827 (Red Hat 9.2.1-1)
REM options -cpp -mtune=generic -march=x86-64 -g -O0 -fpre-include=/usr/include/finclude/math-vector-fortran.h
REM seed 1566181904 -436355447 -1701281778 619820081 414863820 1684577281 -839808871 325323324 1520311340 1972960469 -703749778 -1766517815 -1360954903 -338935313 831799603 1463998412 -646575613 -176366612 -1206368475 278948528 884271323 -1702341908 640129449 -1202988806 -2050864939 1121043393 -406707040 -1313128300 183040847 -1555506936 -1950212452 -710632461 -1567173217
REM
CELL 1.54180   50.00000   50.00000   50.00000   90.00000   90.00000   90.00000
LATT -1
SFAC C  
C      1  0.4659460000000  0.4519660000000  0.4897620000000 1.0
C      1  0.4111550000000  0.4968040000000  0.4655080000000 1.0
C      1  0.5287670000000  0.5030080000000  0.5134020000000 1.0
C      1  0.4990280000000  0.4371230000000  0.4421360000000 1.0
C      1  0.5152480000000  0.4720270000000  0.4710150000000 1.0
C      1  0.4285630000000  0.4527700000000  0.5233520000000 1.0
C      1  0.5828580000000  0.5190590000000  0.4718100000000 1.0
C      1  0.5476700000000  0.4360900000000  0.5714240000000 1.0
C      1  0.4563990000000  0.5259520000000  0.4440050000000 1.0
C      1  0.5119960000000  0.5685650000000  0.4678520000000 1.0
C      1  0.4200880000000  0.5506830000000  0.4669630000000 1.0
C      1  0.5585360000000  0.4524540000000  0.5517530000000 1.0
C      1  0.4657530000000  0.4192740000000  0.5433140000000 1.0
C      1  0.5128470000000  0.4560600000000  0.4270520000000 1.0
C      1  0.5139600000000  0.4324650000000  0.5359750000000 1.0
C      1  0.4067920000000  0.4810100000000  0.4855020000000 1.0
C      1  0.4834570000000  0.5352730000000  0.5862230000000 1.0
C      1  0.6016480000000  0.4915120000000  0.5064280000000 1.0
C      1  0.4394100000000  0.5695420000000  0.4721690000000 1.0
C      1  0.4749560000000  0.4867780000000  0.5739830000000 1.0
C      1  0.5513180000000  0.4349870000000  0.4471910000000 1.0
C      1  0.5911240000000  0.4919710000000  0.4790480000000 1.0
C      1  0.5326340000000  0.5366890000000  0.5130130000000 1.0
C      1  0.4082650000000  0.4587650000000  0.5026160000000 1.0
C      1  0.5356910000000  0.5902870000000  0.5348180000000 1.0
C      1  0.5625370000000  0.4628220000000  0.5048440000000 1.0
C      1  0.4955980000000  0.4915110000000  0.5466490000000 1.0
C      1  0.5720370000000  0.4480770000000  0.4807450000000 1.0
C      1  0.5492030000000  0.4878170000000  0.4976020000000 1.0
C      1  0.5047540000000  0.4172740000000  0.4610730000000 1.0
C      1  0.5314550000000  0.4568280000000  0.5404440000000 1.0
C      1  0.5976600000000  0.4760850000000  0.5295330000000 1.0
C      1  0.4387970000000  0.5294110000000  0.5710200000000 1.0
C      1  0.4607740000000  0.5656190000000  0.5461530000000 1.0
C      1  0.5606160000000  0.5567050000000  0.4735000000000 1.0
C      1  0.5788110000000  0.4706810000000  0.4630460000000 1.0
C      1  0.5026830000000  0.5047650000000  0.5008920000000 1.0
C      1  0.4399530000000  0.5019230000000  0.5390360000000 1.0
C      1  0.5361880000000  0.4925720000000  0.4719470000000 1.0
C      1  0.4688460000000  0.4896020000000  0.4748700000000 1.0
C      1  0.4888590000000  0.4537100000000  0.5067670000000 1.0
C      1  0.5191130000000  0.5366260000000  0.4162270000000 1.0
C      1  0.4603020000000  0.4108490000000  0.5178580000000 1.0
C      1  0.4908300000000  0.4817260000000  0.4577010000000 1.0
C      1  0.5098500000000  0.4156410000000  0.5115710000000 1.0
C      1  0.5114040000000  0.5385690000000  0.5333130000000 1.0
C      1  0.5606300000000  0.5494660000000  0.4446010000000 1.0
C      1  0.4643660000000  0.5164160000000  0.5220430000000 1.0
C      1  0.5684950000000  0.5180270000000  0.5395500000000 1.0
C      1  0.4396070000000  0.5632020000000  0.5269620000000 1.0
C      1  0.5250910000000  0.5096710000000  0.4280770000000 1.0
C      1  0.4074010000000  0.5350840000000  0.5018430000000 1.0
C      1  0.4963720000000  0.5543320000000  0.4241110000000 1.0
C      1  0.4487100000000  0.5014030000000  0.5679310000000 1.0
C      1  0.4649050000000  0.4417260000000  0.4622810000000 1.0
C      1  0.5427600000000  0.4539030000000  0.4285970000000 1.0
C      1  0.5317310000000  0.5228730000000  0.5727050000000 1.0
C      1  0.4716190000000  0.4883740000000  0.4163940000000 1.0
C      1  0.4898260000000  0.5190920000000  0.5376660000000 1.0
C      1  0.4854190000000  0.5800590000000  0.4768760000000 1.0
C      1  0.4517840000000  0.5651420000000  0.5007730000000 1.0
C      1  0.4724840000000  0.4340280000000  0.5660390000000 1.0
C      1  0.5750720000000  0.5394760000000  0.4905490000000 1.0
C      1  0.5162900000000  0.5575650000000  0.5562400000000 1.0
C      1  0.5017590000000  0.4267420000000  0.5620660000000 1.0
C      1  0.5922950000000  0.5040510000000  0.5313260000000 1.0
C      1  0.5133340000000  0.5419790000000  0.5811280000000 1.0
C      1  0.5244530000000  0.4257430000000  0.5842430000000 1.0
C      1  0.4834370000000  0.4088960000000  0.5003610000000 1.0
C      1  0.4701960000000  0.5511340000000  0.4375330000000 1.0
C      1  0.5711780000000  0.5227300000000  0.4441900000000 1.0
C      1  0.5361320000000  0.5627810000000  0.4897980000000 1.0
C      1  0.4366770000000  0.4535760000000  0.4594910000000 1.0
C      1  0.5145150000000  0.4525110000000  0.4927790000000 1.0
C      1  0.4807930000000  0.5085420000000  0.5962970000000 1.0
C      1  0.4829190000000  0.5799890000000  0.5322350000000 1.0
C      1  0.4164130000000  0.5449350000000  0.5271320000000 1.0
C      1  0.5621810000000  0.5414260000000  0.5204470000000 1.0
C      1  0.5087460000000  0.5837360000000  0.5453870000000 1.0
C      1  0.5554330000000  0.5021840000000  0.4305340000000 1.0
C      1  0.4761800000000  0.5813770000000  0.5039970000000 1.0
C      1  0.5259960000000  0.4865470000000  0.5426540000000 1.0
C      1  0.5243480000000  0.4238080000000  0.4856390000000 1.0
C      1  0.5160250000000  0.5718470000000  0.4373330000000 1.0
C      1  0.5385840000000  0.5568010000000  0.4263300000000 1.0
C      1  0.5577850000000  0.5721210000000  0.5289870000000 1.0
C      1  0.4472850000000  0.4689640000000  0.5398440000000 1.0
C      1  0.4605390000000  0.4611720000000  0.5655330000000 1.0
C      1  0.5621650000000  0.4750660000000  0.4386430000000 1.0
C      1  0.4634160000000  0.5330290000000  0.4959050000000 1.0
C      1  0.4429670000000  0.4349930000000  0.5042750000000 1.0
C      1  0.4309520000000  0.4809530000000  0.4501620000000 1.0
C      1  0.4054170000000  0.5281140000000  0.4747540000000 1.0
C      1  0.5084900000000  0.5372220000000  0.4682570000000 1.0
C      1  0.4222250000000  0.4419900000000  0.4823480000000 1.0
C      1  0.4610230000000  0.5481760000000  0.5698790000000 1.0
C      1  0.4649610000000  0.5718580000000  0.4578270000000 1.0
C      1  0.4788420000000  0.4724560000000  0.5268200000000 1.0
C      1  0.5535260000000  0.4261770000000  0.4733270000000 1.0
C      1  0.4564620000000  0.5158500000000  0.4710520000000 1.0
C      1  0.4933810000000  0.5294920000000  0.4910630000000 1.0
C      1  0.4781910000000  0.4157740000000  0.4712730000000 1.0
C      1  0.4211350000000  0.5240810000000  0.5477020000000 1.0
C      1  0.4774050000000  0.4923430000000  0.5056320000000 1.0
C      1  0.5262100000000  0.5169240000000  0.4578990000000 1.0
C      1  0.4495340000000  0.4987130000000  0.4322880000000 1.0
C      1  0.5451560000000  0.5852620000000  0.5071380000000 1.0
C      1  0.5474330000000  0.5062590000000  0.5563560000000 1.0
C      1  0.5772640000000  0.4571410000000  0.5293890000000 1.0
C      1  0.4996970000000  0.4847700000000  0.4284040000000 1.0
END
