TITL C-3909789-4856-21 21.2224374623062 125000 -15710.0910330391 0 0 106 (C1) n - 1
REM
REM in /home/nfs/bkarasulu/CARBON/AIRSS/Generating-Clusters/ReaxFF-fromJPCA2015/Units_Real/with-SteepDescent/Only-C1/SD-CG/Try1-3A/FIRE-CG
REM
REM
REM
REM
REM
REM ./C.cell (11c1c37f851c82e70ff6c80c92926a4b)
REM
REM compiler GCC version 9.2.1 20190827 (Red Hat 9.2.1-1)
REM options -cpp -mtune=generic -march=x86-64 -g -O0 -fpre-include=/usr/include/finclude/math-vector-fortran.h
REM seed 1358020737 -333852481 -1075761282 805590266 2116488531 677249122 -1127595679 -844209757 2067026791 1073642782 -791344586 -1479036016 1227301479 -211341492 -1966346704 955969106 675335550 749587504 1491048312 -1362107456 1155617020 1167888681 -1923638553 1395509150 -835914574 -462354000 991819805 -852347595 -1688175701 1267376027 2133765532 552729515 518680327
REM
CELL 1.54180   50.00000   50.00000   50.00000   90.00000   90.00000   90.00000
LATT -1
SFAC C  
C      1  0.5192760000000  0.4931550000000  0.5423140000000 1.0
C      1  0.3919980000000  0.5082930000000  0.4605220000000 1.0
C      1  0.5554600000000  0.5119590000000  0.4302120000000 1.0
C      1  0.5482660000000  0.5757120000000  0.5215980000000 1.0
C      1  0.4924080000000  0.5231240000000  0.5217480000000 1.0
C      1  0.4203360000000  0.4658370000000  0.4929320000000 1.0
C      1  0.4693070000000  0.4158830000000  0.5218020000000 1.0
C      1  0.4665950000000  0.4647530000000  0.4352330000000 1.0
C      1  0.5383930000000  0.5387310000000  0.4839520000000 1.0
C      1  0.5494350000000  0.5669510000000  0.5468730000000 1.0
C      1  0.4747140000000  0.5110520000000  0.4287780000000 1.0
C      1  0.4391810000000  0.5469370000000  0.5124490000000 1.0
C      1  0.5877390000000  0.4817950000000  0.4528160000000 1.0
C      1  0.4745960000000  0.4860160000000  0.5296310000000 1.0
C      1  0.5071050000000  0.4325720000000  0.4373810000000 1.0
C      1  0.5229710000000  0.5883860000000  0.5065750000000 1.0
C      1  0.4535270000000  0.5474850000000  0.5532780000000 1.0
C      1  0.5652950000000  0.5168000000000  0.5407250000000 1.0
C      1  0.5445880000000  0.5716000000000  0.4612030000000 1.0
C      1  0.5305450000000  0.4633430000000  0.5766930000000 1.0
C      1  0.4987940000000  0.4953820000000  0.5207860000000 1.0
C      1  0.4813220000000  0.4419580000000  0.5813880000000 1.0
C      1  0.4743930000000  0.4147460000000  0.4716790000000 1.0
C      1  0.5674050000000  0.4887160000000  0.5503420000000 1.0
C      1  0.4362340000000  0.4939960000000  0.5616160000000 1.0
C      1  0.5278740000000  0.5373510000000  0.5843560000000 1.0
C      1  0.5683760000000  0.5585290000000  0.5102100000000 1.0
C      1  0.4037890000000  0.5271290000000  0.4822380000000 1.0
C      1  0.4702050000000  0.5669090000000  0.4502000000000 1.0
C      1  0.4690010000000  0.5761180000000  0.5064560000000 1.0
C      1  0.5786240000000  0.5098440000000  0.4499790000000 1.0
C      1  0.5823500000000  0.4533870000000  0.4599790000000 1.0
C      1  0.4579460000000  0.4807660000000  0.5770300000000 1.0
C      1  0.4713770000000  0.4851530000000  0.4143050000000 1.0
C      1  0.5432780000000  0.4588750000000  0.4221030000000 1.0
C      1  0.5869830000000  0.5160100000000  0.4988240000000 1.0
C      1  0.4419820000000  0.4286150000000  0.5223380000000 1.0
C      1  0.4724710000000  0.5502950000000  0.5750810000000 1.0
C      1  0.4921600000000  0.5581770000000  0.4340800000000 1.0
C      1  0.5395610000000  0.4881960000000  0.4257640000000 1.0
C      1  0.4278740000000  0.5309010000000  0.4651240000000 1.0
C      1  0.5249760000000  0.5566390000000  0.4424990000000 1.0
C      1  0.5192830000000  0.5407260000000  0.4651050000000 1.0
C      1  0.5317280000000  0.5082940000000  0.5831140000000 1.0
C      1  0.5192340000000  0.4387590000000  0.5336770000000 1.0
C      1  0.5068030000000  0.5041280000000  0.5688440000000 1.0
C      1  0.4717520000000  0.4574300000000  0.4938890000000 1.0
C      1  0.5493550000000  0.5575040000000  0.5736000000000 1.0
C      1  0.5815260000000  0.5276320000000  0.4730760000000 1.0
C      1  0.4699490000000  0.4589330000000  0.5237520000000 1.0
C      1  0.4422920000000  0.5204820000000  0.5504240000000 1.0
C      1  0.5719970000000  0.4717230000000  0.5262470000000 1.0
C      1  0.4554440000000  0.5068980000000  0.5278110000000 1.0
C      1  0.4417740000000  0.4510550000000  0.5423680000000 1.0
C      1  0.5790930000000  0.4874350000000  0.5029590000000 1.0
C      1  0.4446700000000  0.5549360000000  0.4618780000000 1.0
C      1  0.4874080000000  0.4330660000000  0.5352550000000 1.0
C      1  0.4855900000000  0.4099240000000  0.4974400000000 1.0
C      1  0.4892660000000  0.5398070000000  0.4994740000000 1.0
C      1  0.5391920000000  0.5127450000000  0.5292150000000 1.0
C      1  0.5059490000000  0.5478010000000  0.5220930000000 1.0
C      1  0.4552250000000  0.4527970000000  0.5722810000000 1.0
C      1  0.5147420000000  0.4484350000000  0.4167150000000 1.0
C      1  0.5101170000000  0.4882430000000  0.4280690000000 1.0
C      1  0.5106500000000  0.4261180000000  0.4906810000000 1.0
C      1  0.4872600000000  0.4865820000000  0.5820950000000 1.0
C      1  0.4818200000000  0.4263460000000  0.5586470000000 1.0
C      1  0.4998950000000  0.4173680000000  0.4582990000000 1.0
C      1  0.4137100000000  0.5138670000000  0.5070000000000 1.0
C      1  0.5304840000000  0.5914540000000  0.4777140000000 1.0
C      1  0.5794940000000  0.5338680000000  0.5210120000000 1.0
C      1  0.5023590000000  0.5714160000000  0.5392680000000 1.0
C      1  0.4449620000000  0.4577530000000  0.4534350000000 1.0
C      1  0.4605120000000  0.5731820000000  0.4783070000000 1.0
C      1  0.5582090000000  0.4776180000000  0.4844620000000 1.0
C      1  0.5075970000000  0.4817080000000  0.4914540000000 1.0
C      1  0.5009910000000  0.5491950000000  0.5854990000000 1.0
C      1  0.5338920000000  0.4914930000000  0.4855850000000 1.0
C      1  0.4421800000000  0.5200460000000  0.5047290000000 1.0
C      1  0.5024620000000  0.4626880000000  0.5870000000000 1.0
C      1  0.5614590000000  0.4467730000000  0.5120790000000 1.0
C      1  0.5360230000000  0.4325460000000  0.5122630000000 1.0
C      1  0.5283270000000  0.4621340000000  0.5478610000000 1.0
C      1  0.4998110000000  0.4533530000000  0.4893010000000 1.0
C      1  0.4922960000000  0.4741340000000  0.4474090000000 1.0
C      1  0.4857310000000  0.4877110000000  0.4716660000000 1.0
C      1  0.5640410000000  0.5523260000000  0.4797290000000 1.0
C      1  0.5365850000000  0.5158730000000  0.5004950000000 1.0
C      1  0.4207970000000  0.5031530000000  0.4531950000000 1.0
C      1  0.4272110000000  0.4759840000000  0.4657150000000 1.0
C      1  0.5620180000000  0.4482660000000  0.4827120000000 1.0
C      1  0.4949420000000  0.5877640000000  0.5161050000000 1.0
C      1  0.4869760000000  0.5354350000000  0.4162300000000 1.0
C      1  0.5148900000000  0.5333240000000  0.4103460000000 1.0
C      1  0.5625750000000  0.4505710000000  0.4404190000000 1.0
C      1  0.4316050000000  0.4392150000000  0.4979470000000 1.0
C      1  0.4977790000000  0.4720500000000  0.4071790000000 1.0
C      1  0.5396940000000  0.5353270000000  0.4225800000000 1.0
C      1  0.4533830000000  0.4384510000000  0.4760810000000 1.0
C      1  0.4508110000000  0.5659670000000  0.5284990000000 1.0
C      1  0.5499070000000  0.4859440000000  0.5747100000000 1.0
C      1  0.4924060000000  0.5700150000000  0.5673900000000 1.0
C      1  0.4254360000000  0.4761850000000  0.5403850000000 1.0
C      1  0.4147900000000  0.4847750000000  0.5146970000000 1.0
C      1  0.4797010000000  0.5120850000000  0.4573770000000 1.0
C      1  0.4932350000000  0.5331060000000  0.4720620000000 1.0
END
