TITL C-3909654-4785-15 54.6983594106372 125000 -25980.226312904 0 0 176 (C1) n - 1
REM
REM in /home/nfs/bkarasulu/CARBON/AIRSS/Generating-Clusters/ReaxFF-fromJPCA2015/Units_Real/with-SteepDescent/Only-C1/SD-CG/Try1-3A/FIRE-CG
REM
REM
REM
REM
REM
REM ./C.cell (11c1c37f851c82e70ff6c80c92926a4b)
REM
REM compiler GCC version 9.2.1 20190827 (Red Hat 9.2.1-1)
REM options -cpp -mtune=generic -march=x86-64 -g -O0 -fpre-include=/usr/include/finclude/math-vector-fortran.h
REM seed 1279429700 506846507 1434811612 761991517 -1853698906 -678705269 405995452 980341287 -1561951489 -1517254058 577356085 1915155266 1323752219 1701540952 -1695741519 -1628540829 -142344436 -324872247 -1246401181 -657299944 600198154 1778773253 -526612919 1945769290 -366980265 767479515 1090704547 1889969989 -420261914 732233272 1514240398 1378019452 2110269724
REM
CELL 1.54180   50.00000   50.00000   50.00000   90.00000   90.00000   90.00000
LATT -1
SFAC C  
C      1  0.5776850000000  0.4640980000000  0.4348990000000 1.0
C      1  0.4726740000000  0.6019450000000  0.4813820000000 1.0
C      1  0.5267190000000  0.4363920000000  0.4713730000000 1.0
C      1  0.4980070000000  0.5164410000000  0.5149900000000 1.0
C      1  0.4565830000000  0.5380090000000  0.4773950000000 1.0
C      1  0.4800020000000  0.6196300000000  0.5167710000000 1.0
C      1  0.6103230000000  0.4858270000000  0.4904030000000 1.0
C      1  0.4703680000000  0.6023240000000  0.5406990000000 1.0
C      1  0.4645280000000  0.4052570000000  0.4898780000000 1.0
C      1  0.5837500000000  0.5236460000000  0.5627990000000 1.0
C      1  0.4638910000000  0.5815700000000  0.4414320000000 1.0
C      1  0.4246270000000  0.5016470000000  0.4280970000000 1.0
C      1  0.5382370000000  0.4482930000000  0.4174770000000 1.0
C      1  0.5496130000000  0.5114550000000  0.5446400000000 1.0
C      1  0.3955290000000  0.5268860000000  0.4608860000000 1.0
C      1  0.4283410000000  0.5491570000000  0.4291950000000 1.0
C      1  0.4949410000000  0.5069560000000  0.5563690000000 1.0
C      1  0.5211140000000  0.5266570000000  0.5311360000000 1.0
C      1  0.4721560000000  0.5301910000000  0.5215600000000 1.0
C      1  0.5187890000000  0.5577140000000  0.4110710000000 1.0
C      1  0.4346020000000  0.5710770000000  0.5120850000000 1.0
C      1  0.4434460000000  0.4600700000000  0.5629480000000 1.0
C      1  0.4137700000000  0.5075360000000  0.4543810000000 1.0
C      1  0.5219440000000  0.4155630000000  0.4489850000000 1.0
C      1  0.5053990000000  0.4961110000000  0.4542410000000 1.0
C      1  0.5374410000000  0.3972260000000  0.5333860000000 1.0
C      1  0.4692450000000  0.4772740000000  0.5912270000000 1.0
C      1  0.4602430000000  0.4095910000000  0.4631590000000 1.0
C      1  0.4946680000000  0.4564080000000  0.5052980000000 1.0
C      1  0.4942430000000  0.4608660000000  0.3942860000000 1.0
C      1  0.5401240000000  0.5995420000000  0.4698030000000 1.0
C      1  0.4554340000000  0.5151070000000  0.4041800000000 1.0
C      1  0.5392530000000  0.5890670000000  0.5423170000000 1.0
C      1  0.4581380000000  0.5108970000000  0.4685300000000 1.0
C      1  0.4041850000000  0.4818360000000  0.4831220000000 1.0
C      1  0.5435200000000  0.5517380000000  0.5793930000000 1.0
C      1  0.6150140000000  0.5155900000000  0.4972350000000 1.0
C      1  0.5096700000000  0.4619010000000  0.6053930000000 1.0
C      1  0.5026160000000  0.5846040000000  0.5097820000000 1.0
C      1  0.4562630000000  0.5553740000000  0.4305630000000 1.0
C      1  0.5269310000000  0.4940550000000  0.4072920000000 1.0
C      1  0.5916410000000  0.5425550000000  0.5409440000000 1.0
C      1  0.4268040000000  0.4262770000000  0.5245000000000 1.0
C      1  0.5237490000000  0.4339620000000  0.5224310000000 1.0
C      1  0.4164700000000  0.5245040000000  0.5695310000000 1.0
C      1  0.4704290000000  0.4907260000000  0.4837530000000 1.0
C      1  0.4135080000000  0.5620110000000  0.4771450000000 1.0
C      1  0.5108460000000  0.5820030000000  0.5377680000000 1.0
C      1  0.5399820000000  0.5187940000000  0.4718300000000 1.0
C      1  0.5269810000000  0.5434330000000  0.4640770000000 1.0
C      1  0.5225880000000  0.4662380000000  0.3998760000000 1.0
C      1  0.4153030000000  0.4299880000000  0.4998270000000 1.0
C      1  0.5013530000000  0.4511410000000  0.4780640000000 1.0
C      1  0.5969170000000  0.4971250000000  0.5546320000000 1.0
C      1  0.5070260000000  0.6135160000000  0.5045080000000 1.0
C      1  0.5510440000000  0.4132850000000  0.5573000000000 1.0
C      1  0.5181760000000  0.5026470000000  0.5893060000000 1.0
C      1  0.4408610000000  0.4621960000000  0.5916420000000 1.0
C      1  0.5417210000000  0.5404540000000  0.4172560000000 1.0
C      1  0.4388910000000  0.4919890000000  0.5150820000000 1.0
C      1  0.4676710000000  0.5409130000000  0.4054990000000 1.0
C      1  0.4484740000000  0.5034950000000  0.5586050000000 1.0
C      1  0.4935910000000  0.4695960000000  0.4565840000000 1.0
C      1  0.5634400000000  0.5110190000000  0.5190790000000 1.0
C      1  0.4158540000000  0.4340330000000  0.4735860000000 1.0
C      1  0.4901940000000  0.5926750000000  0.4391590000000 1.0
C      1  0.4618880000000  0.5531610000000  0.5001920000000 1.0
C      1  0.5490030000000  0.4370100000000  0.5081700000000 1.0
C      1  0.4141340000000  0.4485820000000  0.5356610000000 1.0
C      1  0.5781990000000  0.4288750000000  0.4764340000000 1.0
C      1  0.5730460000000  0.4295520000000  0.5480110000000 1.0
C      1  0.4770630000000  0.4161670000000  0.4210100000000 1.0
C      1  0.5458820000000  0.5079360000000  0.5976770000000 1.0
C      1  0.5626420000000  0.5359960000000  0.5033320000000 1.0
C      1  0.5544070000000  0.4835880000000  0.5121970000000 1.0
C      1  0.4791220000000  0.5772590000000  0.4950580000000 1.0
C      1  0.4913710000000  0.5893480000000  0.5578140000000 1.0
C      1  0.4713680000000  0.4850410000000  0.4048140000000 1.0
C      1  0.5519570000000  0.4794700000000  0.5911760000000 1.0
C      1  0.4996550000000  0.5253910000000  0.4507630000000 1.0
C      1  0.4959550000000  0.5433740000000  0.4015430000000 1.0
C      1  0.5876740000000  0.4861890000000  0.4479550000000 1.0
C      1  0.5003110000000  0.5234300000000  0.4215320000000 1.0
C      1  0.4288880000000  0.5829410000000  0.4840340000000 1.0
C      1  0.5151910000000  0.5818470000000  0.4279520000000 1.0
C      1  0.5607180000000  0.5285490000000  0.5820250000000 1.0
C      1  0.5590940000000  0.5850600000000  0.5207300000000 1.0
C      1  0.4973110000000  0.4650090000000  0.5530620000000 1.0
C      1  0.4441510000000  0.4654830000000  0.5087490000000 1.0
C      1  0.4666660000000  0.4702860000000  0.4655000000000 1.0
C      1  0.5130800000000  0.4606410000000  0.5281120000000 1.0
C      1  0.4089690000000  0.5516680000000  0.4513640000000 1.0
C      1  0.5934160000000  0.4380940000000  0.4992390000000 1.0
C      1  0.5744050000000  0.5058170000000  0.4335990000000 1.0
C      1  0.4320700000000  0.4815470000000  0.4901690000000 1.0
C      1  0.4898160000000  0.4322400000000  0.3985140000000 1.0
C      1  0.5376500000000  0.5441480000000  0.5126840000000 1.0
C      1  0.5666610000000  0.4239520000000  0.4367860000000 1.0
C      1  0.4139670000000  0.5563250000000  0.5291860000000 1.0
C      1  0.4710970000000  0.5355770000000  0.4543350000000 1.0
C      1  0.5160050000000  0.5568950000000  0.5912070000000 1.0
C      1  0.5494710000000  0.5580010000000  0.4414940000000 1.0
C      1  0.4928290000000  0.6099310000000  0.4623050000000 1.0
C      1  0.5404280000000  0.4656060000000  0.4667820000000 1.0
C      1  0.4520830000000  0.5618520000000  0.5552090000000 1.0
C      1  0.4539540000000  0.4630480000000  0.4149330000000 1.0
C      1  0.6041120000000  0.5300730000000  0.5186550000000 1.0
C      1  0.5886430000000  0.5276000000000  0.4471680000000 1.0
C      1  0.4296730000000  0.5258440000000  0.4118580000000 1.0
C      1  0.5330970000000  0.3981490000000  0.5040680000000 1.0
C      1  0.5033770000000  0.4910340000000  0.6114370000000 1.0
C      1  0.5351910000000  0.4288880000000  0.5771090000000 1.0
C      1  0.3944710000000  0.5099820000000  0.5282450000000 1.0
C      1  0.4669730000000  0.5266000000000  0.5989470000000 1.0
C      1  0.6029450000000  0.5307190000000  0.4750690000000 1.0
C      1  0.6076280000000  0.4643130000000  0.5096680000000 1.0
C      1  0.5750650000000  0.5681410000000  0.5395740000000 1.0
C      1  0.5477430000000  0.4208280000000  0.4864420000000 1.0
C      1  0.5742740000000  0.5514880000000  0.4534720000000 1.0
C      1  0.4877130000000  0.5483180000000  0.5952440000000 1.0
C      1  0.4981610000000  0.4966420000000  0.4135190000000 1.0
C      1  0.3940640000000  0.5383670000000  0.5181340000000 1.0
C      1  0.5397830000000  0.4200470000000  0.4264970000000 1.0
C      1  0.5231580000000  0.4934350000000  0.4774600000000 1.0
C      1  0.5050250000000  0.3964450000000  0.4622220000000 1.0
C      1  0.4704230000000  0.4586160000000  0.5469590000000 1.0
C      1  0.4717030000000  0.4944770000000  0.5640230000000 1.0
C      1  0.4246700000000  0.5495310000000  0.5554830000000 1.0
C      1  0.5349880000000  0.4548210000000  0.5924630000000 1.0
C      1  0.5805140000000  0.5480840000000  0.4823220000000 1.0
C      1  0.4641450000000  0.4399090000000  0.4296420000000 1.0
C      1  0.5596440000000  0.4927840000000  0.5648430000000 1.0
C      1  0.5485820000000  0.5821540000000  0.4926050000000 1.0
C      1  0.5060200000000  0.3951830000000  0.4931180000000 1.0
C      1  0.4522120000000  0.5908800000000  0.4663660000000 1.0
C      1  0.4089830000000  0.5009570000000  0.5516150000000 1.0
C      1  0.4264620000000  0.4571330000000  0.4250840000000 1.0
C      1  0.5007670000000  0.5352440000000  0.5518420000000 1.0
C      1  0.4763290000000  0.5011390000000  0.6095390000000 1.0
C      1  0.5483800000000  0.4661290000000  0.4383690000000 1.0
C      1  0.6051970000000  0.4825990000000  0.5314560000000 1.0
C      1  0.4545450000000  0.5087960000000  0.5315420000000 1.0
C      1  0.5383140000000  0.5861190000000  0.4441750000000 1.0
C      1  0.4802420000000  0.3995770000000  0.5081740000000 1.0
C      1  0.4810600000000  0.3994890000000  0.4457190000000 1.0
C      1  0.5306560000000  0.5600250000000  0.4901340000000 1.0
C      1  0.5484160000000  0.5123230000000  0.4179040000000 1.0
C      1  0.4585980000000  0.4168430000000  0.5290640000000 1.0
C      1  0.4163050000000  0.4718140000000  0.5516990000000 1.0
C      1  0.5817630000000  0.4358290000000  0.4495370000000 1.0
C      1  0.5150650000000  0.4865320000000  0.5623240000000 1.0
C      1  0.5815850000000  0.4746540000000  0.5633650000000 1.0
C      1  0.5855210000000  0.4821090000000  0.4758050000000 1.0
C      1  0.4680720000000  0.4507230000000  0.5182690000000 1.0
C      1  0.3965970000000  0.4865030000000  0.4541500000000 1.0
C      1  0.5632640000000  0.4572500000000  0.5495940000000 1.0
C      1  0.4966680000000  0.4977900000000  0.4943780000000 1.0
C      1  0.4758460000000  0.5475580000000  0.5451150000000 1.0
C      1  0.5101210000000  0.4172870000000  0.5684680000000 1.0
C      1  0.4250470000000  0.4389010000000  0.4483100000000 1.0
C      1  0.5418350000000  0.4714490000000  0.5358090000000 1.0
C      1  0.5127590000000  0.4111370000000  0.5388540000000 1.0
C      1  0.4939850000000  0.5748080000000  0.5836690000000 1.0
C      1  0.4070150000000  0.4778210000000  0.4274520000000 1.0
C      1  0.5747750000000  0.4280440000000  0.5185730000000 1.0
C      1  0.4856530000000  0.4509820000000  0.5946290000000 1.0
C      1  0.4527580000000  0.4398510000000  0.4574000000000 1.0
C      1  0.5549310000000  0.5717090000000  0.5607490000000 1.0
C      1  0.4840190000000  0.4262660000000  0.5786790000000 1.0
C      1  0.5620820000000  0.4685640000000  0.4879300000000 1.0
C      1  0.3897460000000  0.5007620000000  0.5005030000000 1.0
C      1  0.4479270000000  0.5845600000000  0.5376290000000 1.0
C      1  0.4652010000000  0.4170580000000  0.5572380000000 1.0
C      1  0.4422950000000  0.5205180000000  0.5826140000000 1.0
C      1  0.3910820000000  0.5287370000000  0.4900220000000 1.0
C      1  0.5169970000000  0.6160680000000  0.4766610000000 1.0
END
