TITL C-3909786-8783-17 70.5260272657707 125000 -22623.0695088291 0 0 153 (C1) n - 1
REM
REM in /home/nfs/bkarasulu/CARBON/AIRSS/Generating-Clusters/ReaxFF-fromJPCA2015/Units_Real/with-SteepDescent/Only-C1/SD-CG/Try1-3A/FIRE-CG
REM
REM
REM
REM
REM
REM ./C.cell (11c1c37f851c82e70ff6c80c92926a4b)
REM
REM compiler GCC version 9.2.1 20190827 (Red Hat 9.2.1-1)
REM options -cpp -mtune=generic -march=x86-64 -g -O0 -fpre-include=/usr/include/finclude/math-vector-fortran.h
REM seed -1337620688 75908646 2001290914 -877040087 2068269938 2116084654 -815049441 -1594739160 -286275479 1164178166 -340405103 151460624 594741795 -1884986335 418912812 1082833343 119589068 716190068 658343341 1505026943 -1848334582 -913964894 590755463 -1598861561 -1829506591 1964491837 1678885683 -234105967 61257364 -614197872 397098108 -1699311257 -1311118901
REM
CELL 1.54180   50.00000   50.00000   50.00000   90.00000   90.00000   90.00000
LATT -1
SFAC C  
C      1  0.5003160000000  0.4115460000000  0.5580760000000 1.0
C      1  0.4552920000000  0.5463570000000  0.4711010000000 1.0
C      1  0.5297340000000  0.5331470000000  0.4512750000000 1.0
C      1  0.5613760000000  0.4265480000000  0.4566460000000 1.0
C      1  0.5523480000000  0.5790980000000  0.4539370000000 1.0
C      1  0.4901840000000  0.5106950000000  0.4962400000000 1.0
C      1  0.4231090000000  0.5740990000000  0.4947110000000 1.0
C      1  0.4155490000000  0.5298760000000  0.5069390000000 1.0
C      1  0.4441040000000  0.4788500000000  0.5294830000000 1.0
C      1  0.4964980000000  0.4384240000000  0.4534550000000 1.0
C      1  0.5197210000000  0.5482160000000  0.5893390000000 1.0
C      1  0.5733350000000  0.5052900000000  0.5363010000000 1.0
C      1  0.5394780000000  0.5069990000000  0.4614580000000 1.0
C      1  0.5319850000000  0.4841400000000  0.6112740000000 1.0
C      1  0.5742260000000  0.4524700000000  0.4664490000000 1.0
C      1  0.4391390000000  0.4617590000000  0.4233800000000 1.0
C      1  0.4391210000000  0.5874970000000  0.5397570000000 1.0
C      1  0.4715620000000  0.5439490000000  0.5857070000000 1.0
C      1  0.5977480000000  0.4995420000000  0.5018970000000 1.0
C      1  0.5861360000000  0.5146340000000  0.4373410000000 1.0
C      1  0.4278100000000  0.5624840000000  0.4680380000000 1.0
C      1  0.5064850000000  0.5642660000000  0.5676430000000 1.0
C      1  0.4619590000000  0.5196150000000  0.5099950000000 1.0
C      1  0.5894180000000  0.4443250000000  0.5144930000000 1.0
C      1  0.5819310000000  0.5405540000000  0.4445100000000 1.0
C      1  0.4642720000000  0.4676780000000  0.4736300000000 1.0
C      1  0.5822600000000  0.4829870000000  0.5541890000000 1.0
C      1  0.4497870000000  0.5256490000000  0.5740940000000 1.0
C      1  0.4461730000000  0.4700160000000  0.5749510000000 1.0
C      1  0.4786440000000  0.5683640000000  0.5724310000000 1.0
C      1  0.4886460000000  0.5552340000000  0.4687470000000 1.0
C      1  0.5085080000000  0.5369730000000  0.4062240000000 1.0
C      1  0.4722040000000  0.4756250000000  0.5310050000000 1.0
C      1  0.5196220000000  0.4563670000000  0.4608420000000 1.0
C      1  0.4163850000000  0.5426900000000  0.4502600000000 1.0
C      1  0.5278460000000  0.5726020000000  0.4880910000000 1.0
C      1  0.4537940000000  0.5256730000000  0.4497290000000 1.0
C      1  0.3935730000000  0.4828590000000  0.4967280000000 1.0
C      1  0.4940840000000  0.6055920000000  0.5089970000000 1.0
C      1  0.5361990000000  0.4362520000000  0.4459840000000 1.0
C      1  0.5085080000000  0.4393810000000  0.5966240000000 1.0
C      1  0.4961140000000  0.5372880000000  0.5987440000000 1.0
C      1  0.5965800000000  0.4552120000000  0.4874590000000 1.0
C      1  0.5037490000000  0.4747920000000  0.4031820000000 1.0
C      1  0.4691130000000  0.5015630000000  0.4472110000000 1.0
C      1  0.5033880000000  0.4910950000000  0.6126800000000 1.0
C      1  0.4569430000000  0.5225420000000  0.4076640000000 1.0
C      1  0.4689910000000  0.4467290000000  0.5269110000000 1.0
C      1  0.4565990000000  0.4122880000000  0.4674910000000 1.0
C      1  0.4910610000000  0.4310730000000  0.5224550000000 1.0
C      1  0.5326510000000  0.5878220000000  0.5286820000000 1.0
C      1  0.5543630000000  0.5105670000000  0.4873730000000 1.0
C      1  0.4529210000000  0.4041240000000  0.5346840000000 1.0
C      1  0.6052060000000  0.4821290000000  0.4800110000000 1.0
C      1  0.5581590000000  0.5614700000000  0.4987580000000 1.0
C      1  0.4303160000000  0.5364770000000  0.5547900000000 1.0
C      1  0.5215640000000  0.5113300000000  0.4118720000000 1.0
C      1  0.5943300000000  0.5284460000000  0.5076640000000 1.0
C      1  0.5542450000000  0.4622880000000  0.4883920000000 1.0
C      1  0.4785460000000  0.5422250000000  0.4057800000000 1.0
C      1  0.5425290000000  0.5281530000000  0.5871300000000 1.0
C      1  0.4897530000000  0.5068420000000  0.4669070000000 1.0
C      1  0.4273970000000  0.4710740000000  0.5521740000000 1.0
C      1  0.5270180000000  0.5871110000000  0.4618450000000 1.0
C      1  0.4834450000000  0.4050680000000  0.5347440000000 1.0
C      1  0.4959220000000  0.5111240000000  0.5931990000000 1.0
C      1  0.4747870000000  0.5409320000000  0.5298400000000 1.0
C      1  0.4931870000000  0.4853880000000  0.5115550000000 1.0
C      1  0.5693740000000  0.5523830000000  0.5475260000000 1.0
C      1  0.5990330000000  0.4918570000000  0.4517580000000 1.0
C      1  0.4052040000000  0.4547940000000  0.4911830000000 1.0
C      1  0.4814630000000  0.4890570000000  0.5573760000000 1.0
C      1  0.5221000000000  0.4850830000000  0.5235780000000 1.0
C      1  0.5216530000000  0.5974850000000  0.5028340000000 1.0
C      1  0.5258520000000  0.5064890000000  0.5421000000000 1.0
C      1  0.4197620000000  0.4656200000000  0.4439780000000 1.0
C      1  0.5110920000000  0.4627630000000  0.6137980000000 1.0
C      1  0.4469900000000  0.5864030000000  0.5099270000000 1.0
C      1  0.5254700000000  0.3992850000000  0.4596060000000 1.0
C      1  0.5100400000000  0.4535970000000  0.4878410000000 1.0
C      1  0.4109430000000  0.5591190000000  0.5157030000000 1.0
C      1  0.5482350000000  0.4294380000000  0.5441760000000 1.0
C      1  0.4879380000000  0.4161810000000  0.4706240000000 1.0
C      1  0.4922910000000  0.4651690000000  0.5693740000000 1.0
C      1  0.5867880000000  0.5313410000000  0.5359220000000 1.0
C      1  0.5182220000000  0.4527470000000  0.5727690000000 1.0
C      1  0.5551440000000  0.5421700000000  0.5688190000000 1.0
C      1  0.4636360000000  0.4958170000000  0.4180110000000 1.0
C      1  0.5128290000000  0.4359990000000  0.4125410000000 1.0
C      1  0.5694050000000  0.5346980000000  0.4923150000000 1.0
C      1  0.5467540000000  0.4969490000000  0.5898930000000 1.0
C      1  0.4626800000000  0.4672600000000  0.4089090000000 1.0
C      1  0.4699200000000  0.6010350000000  0.4921580000000 1.0
C      1  0.4870130000000  0.4678090000000  0.4903480000000 1.0
C      1  0.5396730000000  0.4644230000000  0.5123760000000 1.0
C      1  0.5453890000000  0.4529120000000  0.5624850000000 1.0
C      1  0.4700040000000  0.5954600000000  0.4639390000000 1.0
C      1  0.4700790000000  0.5675410000000  0.5224090000000 1.0
C      1  0.5051710000000  0.5553200000000  0.4919370000000 1.0
C      1  0.5245110000000  0.4123790000000  0.5421000000000 1.0
C      1  0.5208880000000  0.5498750000000  0.4287460000000 1.0
C      1  0.4409070000000  0.4971580000000  0.5084810000000 1.0
C      1  0.4563040000000  0.4972130000000  0.5744590000000 1.0
C      1  0.5682260000000  0.4942810000000  0.5083200000000 1.0
C      1  0.4437010000000  0.4309460000000  0.5262350000000 1.0
C      1  0.4776770000000  0.5818450000000  0.4385850000000 1.0
C      1  0.4868750000000  0.4269260000000  0.5811290000000 1.0
C      1  0.4537210000000  0.4250410000000  0.4411910000000 1.0
C      1  0.5536880000000  0.4075440000000  0.5020920000000 1.0
C      1  0.5090110000000  0.4001970000000  0.4829390000000 1.0
C      1  0.4695650000000  0.4506870000000  0.5765690000000 1.0
C      1  0.6034250000000  0.5860050000000  0.4932310000000 1.0
C      1  0.5253360000000  0.4059010000000  0.5096800000000 1.0
C      1  0.4137090000000  0.4447640000000  0.4650330000000 1.0
C      1  0.4642700000000  0.5617330000000  0.4213690000000 1.0
C      1  0.4231540000000  0.5634630000000  0.5419900000000 1.0
C      1  0.5145050000000  0.5897220000000  0.5506480000000 1.0
C      1  0.4995250000000  0.5383020000000  0.5468390000000 1.0
C      1  0.5775330000000  0.5676020000000  0.4519730000000 1.0
C      1  0.4435900000000  0.5362490000000  0.4955320000000 1.0
C      1  0.5223750000000  0.4866230000000  0.4508470000000 1.0
C      1  0.5290430000000  0.4611410000000  0.4033830000000 1.0
C      1  0.5591190000000  0.4772310000000  0.5719560000000 1.0
C      1  0.5100260000000  0.5312170000000  0.5039610000000 1.0
C      1  0.5016620000000  0.5311300000000  0.4594220000000 1.0
C      1  0.5820050000000  0.5782240000000  0.4829280000000 1.0
C      1  0.4880430000000  0.4503790000000  0.4044900000000 1.0
C      1  0.4703740000000  0.4507640000000  0.4495130000000 1.0
C      1  0.4232840000000  0.4339860000000  0.5039780000000 1.0
C      1  0.5668610000000  0.4903740000000  0.4236140000000 1.0
C      1  0.4679510000000  0.5851310000000  0.5502130000000 1.0
C      1  0.5023150000000  0.5101960000000  0.5610360000000 1.0
C      1  0.4419970000000  0.4852620000000  0.4812340000000 1.0
C      1  0.5477500000000  0.5610830000000  0.5274430000000 1.0
C      1  0.4231080000000  0.4909550000000  0.4597430000000 1.0
C      1  0.5165750000000  0.4373900000000  0.5099830000000 1.0
C      1  0.5055960000000  0.5726450000000  0.4443880000000 1.0
C      1  0.5052760000000  0.4935190000000  0.4283470000000 1.0
C      1  0.5223850000000  0.4152180000000  0.4318470000000 1.0
C      1  0.4066240000000  0.5166910000000  0.4602500000000 1.0
C      1  0.4417580000000  0.5406600000000  0.4272860000000 1.0
C      1  0.5251310000000  0.5336200000000  0.5287620000000 1.0
C      1  0.5940610000000  0.4611540000000  0.5382980000000 1.0
C      1  0.4318720000000  0.4249660000000  0.4780810000000 1.0
C      1  0.4921880000000  0.6021250000000  0.5379690000000 1.0
C      1  0.5662760000000  0.4258380000000  0.5207650000000 1.0
C      1  0.4068990000000  0.4922120000000  0.5467400000000 1.0
C      1  0.3977700000000  0.4792220000000  0.5238150000000 1.0
C      1  0.5810970000000  0.4729430000000  0.4406370000000 1.0
C      1  0.5520070000000  0.4045440000000  0.4725110000000 1.0
C      1  0.5422720000000  0.4875610000000  0.4084600000000 1.0
C      1  0.3990180000000  0.5110340000000  0.4874400000000 1.0
C      1  0.4190640000000  0.5174470000000  0.5361390000000 1.0
END
