TITL C-3909646-7479-15 -6.27700004861911 125000 -26533.7194243089 0 0 177 (C1) n - 1
REM
REM in /home/nfs/bkarasulu/CARBON/AIRSS/Generating-Clusters/ReaxFF-fromJPCA2015/Units_Real/with-SteepDescent/Only-C1/SD-CG/Try1-3A/FIRE-CG
REM
REM
REM
REM
REM
REM ./C.cell (11c1c37f851c82e70ff6c80c92926a4b)
REM
REM compiler GCC version 9.2.1 20190827 (Red Hat 9.2.1-1)
REM options -cpp -mtune=generic -march=x86-64 -g -O0 -fpre-include=/usr/include/finclude/math-vector-fortran.h
REM seed 1579739941 -899997173 -68925573 -430833465 294458793 -1249508286 -1135364173 1570456888 -1665517539 419444881 -159844799 -2064547277 1106847004 150528376 406748814 796537102 -1036570925 1337044725 1344957370 281087805 1494581458 -1776236723 -1252809616 -825618091 -2007860297 -2028969596 -2021952798 -34769906 139815375 -2013791492 1244582907 1221828093 905711465
REM
CELL 1.54180   50.00000   50.00000   50.00000   90.00000   90.00000   90.00000
LATT -1
SFAC C  
C      1  0.5570910000000  0.6023270000000  0.5480630000000 1.0
C      1  0.5025190000000  0.5909200000000  0.5737900000000 1.0
C      1  0.4706120000000  0.4137060000000  0.4719270000000 1.0
C      1  0.5577420000000  0.4814830000000  0.5909980000000 1.0
C      1  0.4771740000000  0.5216620000000  0.6378080000000 1.0
C      1  0.5443000000000  0.4640280000000  0.4030950000000 1.0
C      1  0.4817530000000  0.4395810000000  0.4822910000000 1.0
C      1  0.5015290000000  0.5470890000000  0.4278660000000 1.0
C      1  0.5306540000000  0.6125450000000  0.5359730000000 1.0
C      1  0.5235360000000  0.4813120000000  0.4192100000000 1.0
C      1  0.5271300000000  0.5775620000000  0.5854580000000 1.0
C      1  0.4521120000000  0.5797150000000  0.4219180000000 1.0
C      1  0.5002800000000  0.6134700000000  0.4965410000000 1.0
C      1  0.5559230000000  0.5739230000000  0.5117740000000 1.0
C      1  0.4387240000000  0.4583810000000  0.4597840000000 1.0
C      1  0.5208030000000  0.4265060000000  0.4348240000000 1.0
C      1  0.5210810000000  0.4965810000000  0.5203460000000 1.0
C      1  0.5380500000000  0.4789940000000  0.5054500000000 1.0
C      1  0.4130070000000  0.4712810000000  0.4489400000000 1.0
C      1  0.5329640000000  0.5253320000000  0.5301880000000 1.0
C      1  0.4879410000000  0.4696990000000  0.4543520000000 1.0
C      1  0.4304790000000  0.4330680000000  0.4466780000000 1.0
C      1  0.4555180000000  0.4457400000000  0.5165500000000 1.0
C      1  0.5196330000000  0.5393490000000  0.5512350000000 1.0
C      1  0.4637280000000  0.5632350000000  0.5924370000000 1.0
C      1  0.5586890000000  0.5185100000000  0.4860890000000 1.0
C      1  0.5143230000000  0.4522890000000  0.5963610000000 1.0
C      1  0.4503730000000  0.5067520000000  0.5043220000000 1.0
C      1  0.5281430000000  0.4581160000000  0.4695660000000 1.0
C      1  0.4408220000000  0.4242580000000  0.5320920000000 1.0
C      1  0.5026130000000  0.5771950000000  0.5227510000000 1.0
C      1  0.5101450000000  0.4429510000000  0.4867210000000 1.0
C      1  0.4673740000000  0.4861330000000  0.4048340000000 1.0
C      1  0.4277570000000  0.4146580000000  0.4698090000000 1.0
C      1  0.5784120000000  0.5638980000000  0.4998300000000 1.0
C      1  0.5978160000000  0.5301190000000  0.5433640000000 1.0
C      1  0.5866040000000  0.5025720000000  0.5508860000000 1.0
C      1  0.5817960000000  0.4826420000000  0.5731480000000 1.0
C      1  0.5197740000000  0.4977520000000  0.6175000000000 1.0
C      1  0.4166060000000  0.4846380000000  0.4220280000000 1.0
C      1  0.5460350000000  0.4788320000000  0.4786010000000 1.0
C      1  0.3913070000000  0.5321880000000  0.5211540000000 1.0
C      1  0.5089610000000  0.4947200000000  0.3645520000000 1.0
C      1  0.5507770000000  0.4276920000000  0.4355980000000 1.0
C      1  0.4146220000000  0.4336780000000  0.4895480000000 1.0
C      1  0.5610720000000  0.4366770000000  0.5782470000000 1.0
C      1  0.4526920000000  0.4231020000000  0.5624010000000 1.0
C      1  0.5698650000000  0.4969440000000  0.5293230000000 1.0
C      1  0.4732400000000  0.4762330000000  0.6149790000000 1.0
C      1  0.6132750000000  0.4772050000000  0.4236410000000 1.0
C      1  0.4273450000000  0.5096540000000  0.4323320000000 1.0
C      1  0.4615740000000  0.4984320000000  0.6297660000000 1.0
C      1  0.4813900000000  0.4557910000000  0.5263800000000 1.0
C      1  0.5310230000000  0.5490580000000  0.5770540000000 1.0
C      1  0.4725020000000  0.4889600000000  0.5027550000000 1.0
C      1  0.5393870000000  0.6201220000000  0.4807810000000 1.0
C      1  0.5904570000000  0.4558760000000  0.4309890000000 1.0
C      1  0.4733200000000  0.5138860000000  0.3942120000000 1.0
C      1  0.6082680000000  0.5273420000000  0.4454990000000 1.0
C      1  0.4379340000000  0.4569960000000  0.4957400000000 1.0
C      1  0.4892170000000  0.5152600000000  0.3672410000000 1.0
C      1  0.4853710000000  0.4601870000000  0.5561550000000 1.0
C      1  0.4669900000000  0.4391220000000  0.4198880000000 1.0
C      1  0.5633310000000  0.4484920000000  0.4196860000000 1.0
C      1  0.5580030000000  0.4681760000000  0.5206830000000 1.0
C      1  0.5174670000000  0.4020800000000  0.4550270000000 1.0
C      1  0.4567550000000  0.4957730000000  0.5483140000000 1.0
C      1  0.4903940000000  0.5339080000000  0.5565380000000 1.0
C      1  0.5235360000000  0.6217360000000  0.5085830000000 1.0
C      1  0.4760010000000  0.3971660000000  0.5309020000000 1.0
C      1  0.6003080000000  0.4629280000000  0.5122740000000 1.0
C      1  0.5412710000000  0.3965190000000  0.4727070000000 1.0
C      1  0.5022420000000  0.4739220000000  0.6114980000000 1.0
C      1  0.5721250000000  0.4930690000000  0.4781180000000 1.0
C      1  0.4763080000000  0.5802200000000  0.5093850000000 1.0
C      1  0.6114470000000  0.5025270000000  0.4353330000000 1.0
C      1  0.4806930000000  0.4156960000000  0.5691730000000 1.0
C      1  0.4481650000000  0.4018250000000  0.4862560000000 1.0
C      1  0.5581200000000  0.5205520000000  0.5167630000000 1.0
C      1  0.4800630000000  0.5771720000000  0.5838590000000 1.0
C      1  0.4493660000000  0.4419740000000  0.5812920000000 1.0
C      1  0.4541530000000  0.5503130000000  0.4205430000000 1.0
C      1  0.4904070000000  0.3929420000000  0.4618350000000 1.0
C      1  0.4118050000000  0.5265530000000  0.4240380000000 1.0
C      1  0.4918240000000  0.5104290000000  0.5744700000000 1.0
C      1  0.5827690000000  0.5542710000000  0.5530990000000 1.0
C      1  0.4225630000000  0.4758620000000  0.5139770000000 1.0
C      1  0.4964030000000  0.5309290000000  0.4973990000000 1.0
C      1  0.4312090000000  0.5671490000000  0.4854440000000 1.0
C      1  0.5204410000000  0.5457770000000  0.4908040000000 1.0
C      1  0.4692280000000  0.5295400000000  0.4624970000000 1.0
C      1  0.4970030000000  0.5250540000000  0.5965420000000 1.0
C      1  0.4771690000000  0.4681030000000  0.4811830000000 1.0
C      1  0.4685730000000  0.5223200000000  0.5405710000000 1.0
C      1  0.4461780000000  0.5124220000000  0.4575760000000 1.0
C      1  0.4376180000000  0.4410360000000  0.4177720000000 1.0
C      1  0.4452950000000  0.5444680000000  0.6022900000000 1.0
C      1  0.4501900000000  0.4610910000000  0.6019780000000 1.0
C      1  0.4323260000000  0.4808930000000  0.5419030000000 1.0
C      1  0.4325280000000  0.5028760000000  0.4839980000000 1.0
C      1  0.5846570000000  0.4546890000000  0.5661070000000 1.0
C      1  0.5792160000000  0.4349380000000  0.4784010000000 1.0
C      1  0.4213520000000  0.5601320000000  0.5577700000000 1.0
C      1  0.3913410000000  0.5295340000000  0.4900310000000 1.0
C      1  0.5637740000000  0.5492400000000  0.4182280000000 1.0
C      1  0.6093950000000  0.5316430000000  0.5167370000000 1.0
C      1  0.3683640000000  0.5227020000000  0.5241000000000 1.0
C      1  0.5243740000000  0.4800880000000  0.5472910000000 1.0
C      1  0.5079630000000  0.5964320000000  0.5445730000000 1.0
C      1  0.5921000000000  0.5383260000000  0.4212260000000 1.0
C      1  0.4482500000000  0.5304080000000  0.5201530000000 1.0
C      1  0.3942750000000  0.4776380000000  0.4706190000000 1.0
C      1  0.5346520000000  0.6013630000000  0.4601750000000 1.0
C      1  0.5552490000000  0.5227340000000  0.4064030000000 1.0
C      1  0.5438070000000  0.5038530000000  0.6018600000000 1.0
C      1  0.5257870000000  0.5672960000000  0.5082400000000 1.0
C      1  0.4659280000000  0.4574200000000  0.4429760000000 1.0
C      1  0.4264380000000  0.4764610000000  0.5915660000000 1.0
C      1  0.4261900000000  0.5783140000000  0.4350580000000 1.0
C      1  0.4096200000000  0.4304670000000  0.5220520000000 1.0
C      1  0.4755430000000  0.5422240000000  0.4853010000000 1.0
C      1  0.5506560000000  0.5317910000000  0.5911550000000 1.0
C      1  0.4517770000000  0.5264430000000  0.6247210000000 1.0
C      1  0.5964010000000  0.4869080000000  0.4929270000000 1.0
C      1  0.5233110000000  0.4749170000000  0.3691160000000 1.0
C      1  0.4168390000000  0.4894390000000  0.5669650000000 1.0
C      1  0.4955910000000  0.4412800000000  0.5756740000000 1.0
C      1  0.3981500000000  0.4598960000000  0.5176190000000 1.0
C      1  0.5255440000000  0.4081680000000  0.5482090000000 1.0
C      1  0.6107120000000  0.5314090000000  0.4743680000000 1.0
C      1  0.5440710000000  0.5952840000000  0.5718670000000 1.0
C      1  0.5022360000000  0.4822380000000  0.5649310000000 1.0
C      1  0.5958260000000  0.4584420000000  0.5405800000000 1.0
C      1  0.4959200000000  0.3987900000000  0.5502260000000 1.0
C      1  0.5061490000000  0.4428200000000  0.5154280000000 1.0
C      1  0.6131180000000  0.5109210000000  0.4955120000000 1.0
C      1  0.5779670000000  0.4462810000000  0.5052900000000 1.0
C      1  0.4105990000000  0.5495930000000  0.4865600000000 1.0
C      1  0.4794470000000  0.5368980000000  0.4122990000000 1.0
C      1  0.5855370000000  0.5178130000000  0.4001730000000 1.0
C      1  0.5312900000000  0.4508190000000  0.3806070000000 1.0
C      1  0.5446610000000  0.4172910000000  0.5661310000000 1.0
C      1  0.4758850000000  0.6015090000000  0.4895760000000 1.0
C      1  0.4228170000000  0.5418460000000  0.5818750000000 1.0
C      1  0.5371810000000  0.5305090000000  0.4726510000000 1.0
C      1  0.5000420000000  0.5744700000000  0.4353250000000 1.0
C      1  0.5431490000000  0.5569640000000  0.4366390000000 1.0
C      1  0.4854720000000  0.4279540000000  0.3997840000000 1.0
C      1  0.4744890000000  0.5902110000000  0.4378130000000 1.0
C      1  0.5436670000000  0.4551650000000  0.5921720000000 1.0
C      1  0.5144420000000  0.4596310000000  0.4440100000000 1.0
C      1  0.4526410000000  0.4003300000000  0.5161260000000 1.0
C      1  0.4034720000000  0.5033530000000  0.4818700000000 1.0
C      1  0.3923900000000  0.4546690000000  0.4895940000000 1.0
C      1  0.4574120000000  0.5574690000000  0.5016320000000 1.0
C      1  0.6036490000000  0.5523550000000  0.4949110000000 1.0
C      1  0.4195290000000  0.5352670000000  0.5392190000000 1.0
C      1  0.5602520000000  0.4169460000000  0.4613240000000 1.0
C      1  0.4616400000000  0.5973000000000  0.4626480000000 1.0
C      1  0.4081740000000  0.5541010000000  0.4262260000000 1.0
C      1  0.5102760000000  0.4307420000000  0.3856890000000 1.0
C      1  0.5886410000000  0.4472960000000  0.4554330000000 1.0
C      1  0.5270530000000  0.5310620000000  0.4416300000000 1.0
C      1  0.5713420000000  0.5402590000000  0.5742400000000 1.0
C      1  0.4157980000000  0.5188880000000  0.5646810000000 1.0
C      1  0.4395050000000  0.4697210000000  0.4108650000000 1.0
C      1  0.5284780000000  0.5825490000000  0.4407900000000 1.0
C      1  0.4935190000000  0.4827280000000  0.4116030000000 1.0
C      1  0.4351840000000  0.5854000000000  0.4624030000000 1.0
C      1  0.5035970000000  0.5224270000000  0.6236470000000 1.0
C      1  0.4485770000000  0.5413220000000  0.4477010000000 1.0
C      1  0.4962250000000  0.5051480000000  0.5069180000000 1.0
C      1  0.5287400000000  0.4326470000000  0.5316100000000 1.0
C      1  0.5365290000000  0.5089790000000  0.4236000000000 1.0
C      1  0.5704710000000  0.5780910000000  0.5375600000000 1.0
C      1  0.5094260000000  0.4179520000000  0.4094040000000 1.0
C      1  0.5408310000000  0.4577010000000  0.5416610000000 1.0
END
