TITL C-3909653-6271-1 0.836515267205884 125000 -20276.6481216426 0 0 135 (C1) n - 1
REM
REM in /home/nfs/bkarasulu/CARBON/AIRSS/Generating-Clusters/ReaxFF-fromJPCA2015/Units_Real/with-SteepDescent/Only-C1/SD-CG/Try1-3A/FIRE-CG
REM
REM
REM
REM
REM
REM ./C.cell (11c1c37f851c82e70ff6c80c92926a4b)
REM
REM compiler GCC version 9.2.1 20190827 (Red Hat 9.2.1-1)
REM options -cpp -mtune=generic -march=x86-64 -g -O0 -fpre-include=/usr/include/finclude/math-vector-fortran.h
REM seed 958413457 471798612 -658544229 1889031797 -306600247 844979512 1306646957 1247328693 -1963054628 779653568 -700577368 -2001090310 30315743 1680661662 -161623185 1175262199 236938002 1723054556 1605256677 2013055628 -1917831500 978962037 2036501806 356787698 267554720 -912374065 632932496 -1229127574 1882498019 -77504948 1011243488 650109465 2087062633
REM
CELL 1.54180   50.00000   50.00000   50.00000   90.00000   90.00000   90.00000
LATT -1
SFAC C  
C      1  0.4723500000000  0.5915000000000  0.4986230000000 1.0
C      1  0.5776210000000  0.4777280000000  0.4426200000000 1.0
C      1  0.5224460000000  0.5517190000000  0.4987260000000 1.0
C      1  0.4371790000000  0.5461940000000  0.5620890000000 1.0
C      1  0.4866780000000  0.5592340000000  0.5749940000000 1.0
C      1  0.5232020000000  0.4065810000000  0.5364810000000 1.0
C      1  0.4116970000000  0.5162660000000  0.4924890000000 1.0
C      1  0.5926580000000  0.5009640000000  0.4874160000000 1.0
C      1  0.4529570000000  0.4630990000000  0.5801900000000 1.0
C      1  0.4986160000000  0.4003690000000  0.5211670000000 1.0
C      1  0.4561920000000  0.4163790000000  0.5059580000000 1.0
C      1  0.4736940000000  0.5893070000000  0.4697540000000 1.0
C      1  0.5169450000000  0.4208520000000  0.5608500000000 1.0
C      1  0.4538740000000  0.5732250000000  0.4540380000000 1.0
C      1  0.4585100000000  0.4743400000000  0.4131280000000 1.0
C      1  0.5310260000000  0.5532130000000  0.4291400000000 1.0
C      1  0.5254300000000  0.4089810000000  0.4811650000000 1.0
C      1  0.4626590000000  0.4625870000000  0.5062450000000 1.0
C      1  0.5242100000000  0.4181440000000  0.4547540000000 1.0
C      1  0.5028560000000  0.4620200000000  0.5270170000000 1.0
C      1  0.5020990000000  0.5815460000000  0.4655970000000 1.0
C      1  0.5530680000000  0.5546590000000  0.4448740000000 1.0
C      1  0.5374170000000  0.5259890000000  0.4980440000000 1.0
C      1  0.4608470000000  0.5716640000000  0.4253240000000 1.0
C      1  0.5160160000000  0.5978740000000  0.4854860000000 1.0
C      1  0.4547150000000  0.5480460000000  0.4086650000000 1.0
C      1  0.4428340000000  0.4423170000000  0.5110160000000 1.0
C      1  0.4827270000000  0.5078810000000  0.4408030000000 1.0
C      1  0.5839250000000  0.4599440000000  0.4928010000000 1.0
C      1  0.4718800000000  0.4098070000000  0.5295310000000 1.0
C      1  0.4443060000000  0.5721100000000  0.4954670000000 1.0
C      1  0.5571010000000  0.4416220000000  0.5473900000000 1.0
C      1  0.5201790000000  0.4554110000000  0.4064850000000 1.0
C      1  0.5100290000000  0.5473860000000  0.4133790000000 1.0
C      1  0.5867840000000  0.5257010000000  0.4710460000000 1.0
C      1  0.5360780000000  0.4629190000000  0.5282460000000 1.0
C      1  0.5612140000000  0.5711750000000  0.4676040000000 1.0
C      1  0.5748190000000  0.5399170000000  0.5328400000000 1.0
C      1  0.5017130000000  0.4577990000000  0.5829990000000 1.0
C      1  0.4649680000000  0.4992540000000  0.5435070000000 1.0
C      1  0.4374410000000  0.4882690000000  0.4498940000000 1.0
C      1  0.4958390000000  0.4804610000000  0.4384620000000 1.0
C      1  0.4778030000000  0.5549910000000  0.5181000000000 1.0
C      1  0.5634130000000  0.5027050000000  0.4329540000000 1.0
C      1  0.4691140000000  0.5351920000000  0.4994480000000 1.0
C      1  0.5404930000000  0.4843600000000  0.4774620000000 1.0
C      1  0.4992840000000  0.5937140000000  0.5105350000000 1.0
C      1  0.5405360000000  0.4342020000000  0.5714760000000 1.0
C      1  0.4654510000000  0.5153290000000  0.5870050000000 1.0
C      1  0.4731690000000  0.4113950000000  0.4823270000000 1.0
C      1  0.5539230000000  0.5766570000000  0.5325490000000 1.0
C      1  0.5508450000000  0.4377210000000  0.4570120000000 1.0
C      1  0.4776910000000  0.4920710000000  0.4835900000000 1.0
C      1  0.4989160000000  0.4373090000000  0.4164550000000 1.0
C      1  0.5267620000000  0.4737260000000  0.4297550000000 1.0
C      1  0.5450910000000  0.5079390000000  0.5879580000000 1.0
C      1  0.4819790000000  0.5593010000000  0.4099000000000 1.0
C      1  0.4628580000000  0.5011580000000  0.4603200000000 1.0
C      1  0.4451680000000  0.5229250000000  0.4198030000000 1.0
C      1  0.5850370000000  0.4844690000000  0.5114630000000 1.0
C      1  0.4655380000000  0.5753030000000  0.5351680000000 1.0
C      1  0.4290190000000  0.4533340000000  0.5348520000000 1.0
C      1  0.4378650000000  0.5686630000000  0.5435090000000 1.0
C      1  0.5781830000000  0.4903550000000  0.5401160000000 1.0
C      1  0.4965010000000  0.5028310000000  0.3966520000000 1.0
C      1  0.4473060000000  0.4412290000000  0.4516190000000 1.0
C      1  0.5220640000000  0.5063980000000  0.5163340000000 1.0
C      1  0.5785850000000  0.5514700000000  0.4825730000000 1.0
C      1  0.5084070000000  0.4771640000000  0.3892360000000 1.0
C      1  0.4219030000000  0.5258390000000  0.5481670000000 1.0
C      1  0.4566620000000  0.4897060000000  0.5176870000000 1.0
C      1  0.4859560000000  0.5813330000000  0.5559540000000 1.0
C      1  0.5466800000000  0.5485580000000  0.5358420000000 1.0
C      1  0.5450080000000  0.5905130000000  0.4828100000000 1.0
C      1  0.4897240000000  0.4500310000000  0.5030990000000 1.0
C      1  0.4171090000000  0.4800150000000  0.5312950000000 1.0
C      1  0.4918410000000  0.4737090000000  0.4668630000000 1.0
C      1  0.4229280000000  0.5303700000000  0.4680910000000 1.0
C      1  0.4503880000000  0.4943580000000  0.5699840000000 1.0
C      1  0.5088750000000  0.4977140000000  0.5546120000000 1.0
C      1  0.5412130000000  0.5731350000000  0.5057570000000 1.0
C      1  0.5182150000000  0.5188870000000  0.4076740000000 1.0
C      1  0.5660010000000  0.4379480000000  0.4843120000000 1.0
C      1  0.4716590000000  0.4244390000000  0.4566400000000 1.0
C      1  0.4819560000000  0.4605780000000  0.4200480000000 1.0
C      1  0.4695410000000  0.4287980000000  0.5515980000000 1.0
C      1  0.4280970000000  0.5176930000000  0.4423920000000 1.0
C      1  0.4727600000000  0.4548730000000  0.5985680000000 1.0
C      1  0.4072940000000  0.4660000000000  0.4846390000000 1.0
C      1  0.4995130000000  0.4015150000000  0.4925140000000 1.0
C      1  0.5328930000000  0.4571560000000  0.5868500000000 1.0
C      1  0.4367880000000  0.5575080000000  0.4714760000000 1.0
C      1  0.4887750000000  0.5192260000000  0.4858160000000 1.0
C      1  0.4237210000000  0.4982200000000  0.5531940000000 1.0
C      1  0.4973630000000  0.4850610000000  0.5777320000000 1.0
C      1  0.5350890000000  0.5141790000000  0.4709350000000 1.0
C      1  0.4084510000000  0.4887560000000  0.5034340000000 1.0
C      1  0.5671570000000  0.4696320000000  0.5570510000000 1.0
C      1  0.4982040000000  0.4229460000000  0.4420660000000 1.0
C      1  0.4684890000000  0.5028630000000  0.4133960000000 1.0
C      1  0.4984600000000  0.5372140000000  0.5268420000000 1.0
C      1  0.5378190000000  0.5002440000000  0.4205730000000 1.0
C      1  0.5685070000000  0.4514510000000  0.4349880000000 1.0
C      1  0.5100620000000  0.5541720000000  0.4724890000000 1.0
C      1  0.5404810000000  0.4728860000000  0.5024620000000 1.0
C      1  0.5410400000000  0.5579100000000  0.5735500000000 1.0
C      1  0.5205870000000  0.5403380000000  0.5436560000000 1.0
C      1  0.5512050000000  0.4781610000000  0.5799060000000 1.0
C      1  0.5472100000000  0.4206030000000  0.5272450000000 1.0
C      1  0.5137660000000  0.5476930000000  0.5718050000000 1.0
C      1  0.5300490000000  0.4613390000000  0.4608160000000 1.0
C      1  0.4891410000000  0.5142660000000  0.5427180000000 1.0
C      1  0.4236450000000  0.5312310000000  0.5170130000000 1.0
C      1  0.4625550000000  0.5420280000000  0.5778980000000 1.0
C      1  0.5735110000000  0.5179370000000  0.5522050000000 1.0
C      1  0.4960130000000  0.4418150000000  0.5565450000000 1.0
C      1  0.5490950000000  0.4202210000000  0.4986650000000 1.0
C      1  0.5616670000000  0.5243650000000  0.4534550000000 1.0
C      1  0.5190170000000  0.5120880000000  0.5983440000000 1.0
C      1  0.4912040000000  0.5058570000000  0.5985710000000 1.0
C      1  0.5087660000000  0.5885440000000  0.5397600000000 1.0
C      1  0.5341740000000  0.5808300000000  0.5538380000000 1.0
C      1  0.4433180000000  0.4639290000000  0.4340010000000 1.0
C      1  0.4462430000000  0.4452450000000  0.5571750000000 1.0
C      1  0.5560100000000  0.5303370000000  0.5724370000000 1.0
C      1  0.4286700000000  0.5621890000000  0.5169010000000 1.0
C      1  0.4289830000000  0.4737860000000  0.4730350000000 1.0
C      1  0.5009300000000  0.4883070000000  0.5131980000000 1.0
C      1  0.5914040000000  0.4773240000000  0.4705320000000 1.0
C      1  0.5335500000000  0.4923400000000  0.5391480000000 1.0
C      1  0.5049780000000  0.4521130000000  0.4775100000000 1.0
C      1  0.5066260000000  0.5262050000000  0.4632210000000 1.0
C      1  0.4266770000000  0.4465810000000  0.4716050000000 1.0
C      1  0.4494680000000  0.5162460000000  0.5082760000000 1.0
C      1  0.5671150000000  0.5362890000000  0.5046510000000 1.0
END
