TITL C-3909778-9233-51 -3.44975228478686 125000 -7706.92647632478 0 0 53 (C1) n - 1
REM
REM in /home/nfs/bkarasulu/CARBON/AIRSS/Generating-Clusters/ReaxFF-fromJPCA2015/Units_Real/with-SteepDescent/Only-C1/SD-CG/Try1-3A/FIRE-CG
REM
REM
REM
REM
REM
REM ./C.cell (11c1c37f851c82e70ff6c80c92926a4b)
REM
REM compiler GCC version 9.2.1 20190827 (Red Hat 9.2.1-1)
REM options -cpp -mtune=generic -march=x86-64 -g -O0 -fpre-include=/usr/include/finclude/math-vector-fortran.h
REM seed 1420816150 1930639615 -7175413 341035609 -1740035949 -1838213888 1628341874 -771911010 -1601637847 -1074147255 -777984341 761214906 1171820386 2015306292 -476060722 1821593709 -171476957 979437214 2107639967 1936944686 146749520 1338344940 -439199690 -808489274 1248382888 2140897183 -158180063 910822705 407565510 -1708730790 -964391052 -1273468289 1525468400
REM
CELL 1.54180   50.00000   50.00000   50.00000   90.00000   90.00000   90.00000
LATT -1
SFAC C  
C      1  0.4808770000000  0.4413930000000  0.4767390000000 1.0
C      1  0.4603000000000  0.4469300000000  0.5277360000000 1.0
C      1  0.4726650000000  0.5251160000000  0.5751640000000 1.0
C      1  0.4598680000000  0.5481720000000  0.5704280000000 1.0
C      1  0.4716640000000  0.5135510000000  0.5273450000000 1.0
C      1  0.5377770000000  0.5064690000000  0.4599410000000 1.0
C      1  0.4444620000000  0.5090990000000  0.5146900000000 1.0
C      1  0.5260960000000  0.4553790000000  0.4669320000000 1.0
C      1  0.4991800000000  0.4627630000000  0.5422280000000 1.0
C      1  0.4822320000000  0.4918260000000  0.4253080000000 1.0
C      1  0.4476550000000  0.5393420000000  0.4759480000000 1.0
C      1  0.4434710000000  0.5219350000000  0.4903280000000 1.0
C      1  0.5355550000000  0.4820040000000  0.5670860000000 1.0
C      1  0.5051440000000  0.5023040000000  0.4096640000000 1.0
C      1  0.5010410000000  0.5492660000000  0.5350940000000 1.0
C      1  0.5456480000000  0.5348920000000  0.4619560000000 1.0
C      1  0.4533280000000  0.4706050000000  0.5439610000000 1.0
C      1  0.4917880000000  0.5373470000000  0.4844760000000 1.0
C      1  0.4874620000000  0.5013200000000  0.5731690000000 1.0
C      1  0.5350200000000  0.5212930000000  0.5117580000000 1.0
C      1  0.4892150000000  0.4419780000000  0.5247610000000 1.0
C      1  0.5559950000000  0.5027730000000  0.5609330000000 1.0
C      1  0.5304810000000  0.5442590000000  0.4341110000000 1.0
C      1  0.4776640000000  0.4416630000000  0.4463530000000 1.0
C      1  0.5016930000000  0.4361150000000  0.4982150000000 1.0
C      1  0.4787410000000  0.4863330000000  0.5481710000000 1.0
C      1  0.4894210000000  0.5148190000000  0.5038320000000 1.0
C      1  0.5080130000000  0.4951860000000  0.4618630000000 1.0
C      1  0.5175870000000  0.4677480000000  0.4418020000000 1.0
C      1  0.4740140000000  0.4669880000000  0.4880540000000 1.0
C      1  0.5460480000000  0.5060470000000  0.4326200000000 1.0
C      1  0.4889080000000  0.4633110000000  0.4303940000000 1.0
C      1  0.4722920000000  0.5315420000000  0.4625800000000 1.0
C      1  0.5397780000000  0.4684720000000  0.5156610000000 1.0
C      1  0.5709080000000  0.4751070000000  0.5177550000000 1.0
C      1  0.4728610000000  0.5452670000000  0.5382380000000 1.0
C      1  0.5166700000000  0.5037660000000  0.5750860000000 1.0
C      1  0.4498910000000  0.4612570000000  0.5033870000000 1.0
C      1  0.5264090000000  0.5376480000000  0.5374160000000 1.0
C      1  0.4373590000000  0.4813830000000  0.5216310000000 1.0
C      1  0.4962000000000  0.5644840000000  0.4971730000000 1.0
C      1  0.5163300000000  0.5279120000000  0.4162050000000 1.0
C      1  0.4696830000000  0.5670610000000  0.5136630000000 1.0
C      1  0.5412920000000  0.5344130000000  0.4891400000000 1.0
C      1  0.5290170000000  0.4877250000000  0.4191830000000 1.0
C      1  0.5254460000000  0.4933260000000  0.5071960000000 1.0
C      1  0.5273160000000  0.4652190000000  0.5445970000000 1.0
C      1  0.5749720000000  0.4950190000000  0.5382490000000 1.0
C      1  0.5284740000000  0.4472770000000  0.4928160000000 1.0
C      1  0.4992360000000  0.4889920000000  0.4916080000000 1.0
C      1  0.4832280000000  0.5066190000000  0.4504640000000 1.0
C      1  0.5347770000000  0.5234740000000  0.5622030000000 1.0
C      1  0.4488500000000  0.5658100000000  0.4946900000000 1.0
END
