TITL C-3909653-6271-25 0.228961192307798 125000 -17379.7849739049 0 0 119 (C1) n - 1
REM
REM in /home/nfs/bkarasulu/CARBON/AIRSS/Generating-Clusters/ReaxFF-fromJPCA2015/Units_Real/with-SteepDescent/Only-C1/SD-CG/Try1-3A/FIRE-CG
REM
REM
REM
REM
REM
REM ./C.cell (11c1c37f851c82e70ff6c80c92926a4b)
REM
REM compiler GCC version 9.2.1 20190827 (Red Hat 9.2.1-1)
REM options -cpp -mtune=generic -march=x86-64 -g -O0 -fpre-include=/usr/include/finclude/math-vector-fortran.h
REM seed 186084532 1612279195 1581390217 -1767452936 -1666656128 672321714 2022040471 -334362800 -768038470 -1486016776 -1244539056 -440543097 -1813470853 1008537708 -795999295 1516918400 711411024 -356563147 805020661 -1444748242 255800923 -1784562929 -2016835350 -867054073 154080381 -1811571816 -252237705 1081103934 -1819271855 31454585 -507600282 400082848 -1271323156
REM
CELL 1.54180   50.00000   50.00000   50.00000   90.00000   90.00000   90.00000
LATT -1
SFAC C  
C      1  0.5596650000000  0.5035620000000  0.5903210000000 1.0
C      1  0.5463690000000  0.4590040000000  0.4805500000000 1.0
C      1  0.4174490000000  0.5501890000000  0.5267970000000 1.0
C      1  0.5070150000000  0.5100920000000  0.4107120000000 1.0
C      1  0.4710240000000  0.4764610000000  0.4598970000000 1.0
C      1  0.5001060000000  0.5742890000000  0.5551610000000 1.0
C      1  0.4841240000000  0.5757290000000  0.4451890000000 1.0
C      1  0.5112880000000  0.5149350000000  0.4742590000000 1.0
C      1  0.5420930000000  0.4754800000000  0.5575290000000 1.0
C      1  0.4293610000000  0.4981710000000  0.4277000000000 1.0
C      1  0.4571960000000  0.4896760000000  0.5646690000000 1.0
C      1  0.5015050000000  0.5018190000000  0.4998520000000 1.0
C      1  0.5885010000000  0.5580820000000  0.4858190000000 1.0
C      1  0.4242280000000  0.5778220000000  0.5166350000000 1.0
C      1  0.4830520000000  0.4459410000000  0.4219980000000 1.0
C      1  0.4544470000000  0.5527080000000  0.5134530000000 1.0
C      1  0.4554590000000  0.5654300000000  0.5399700000000 1.0
C      1  0.5378130000000  0.5368360000000  0.5629080000000 1.0
C      1  0.5350700000000  0.5145330000000  0.5439700000000 1.0
C      1  0.5111280000000  0.5437360000000  0.4734450000000 1.0
C      1  0.5394260000000  0.4232960000000  0.4520070000000 1.0
C      1  0.5013920000000  0.5378330000000  0.5217960000000 1.0
C      1  0.4549570000000  0.4946410000000  0.4773550000000 1.0
C      1  0.5107210000000  0.4832980000000  0.4135900000000 1.0
C      1  0.4691300000000  0.5414490000000  0.4285750000000 1.0
C      1  0.4678580000000  0.5365740000000  0.5779970000000 1.0
C      1  0.4202950000000  0.5292240000000  0.5478660000000 1.0
C      1  0.4291680000000  0.5785110000000  0.4877380000000 1.0
C      1  0.4359350000000  0.5334100000000  0.5129380000000 1.0
C      1  0.5447770000000  0.4734110000000  0.4561080000000 1.0
C      1  0.5340750000000  0.4895340000000  0.5828320000000 1.0
C      1  0.4254740000000  0.4385250000000  0.4764260000000 1.0
C      1  0.5584500000000  0.4964210000000  0.5442380000000 1.0
C      1  0.4778270000000  0.5963500000000  0.5256030000000 1.0
C      1  0.4820860000000  0.4960600000000  0.5487550000000 1.0
C      1  0.5929170000000  0.4923070000000  0.5058520000000 1.0
C      1  0.4698440000000  0.5116730000000  0.4939800000000 1.0
C      1  0.5487520000000  0.5630110000000  0.5575520000000 1.0
C      1  0.5735130000000  0.5092020000000  0.4541850000000 1.0
C      1  0.5572660000000  0.5250380000000  0.4117240000000 1.0
C      1  0.5072200000000  0.4963620000000  0.5937390000000 1.0
C      1  0.4650050000000  0.4220640000000  0.4707850000000 1.0
C      1  0.4830900000000  0.5142970000000  0.5925150000000 1.0
C      1  0.4185990000000  0.5014990000000  0.5343140000000 1.0
C      1  0.4680140000000  0.5452370000000  0.4888650000000 1.0
C      1  0.5224800000000  0.5197950000000  0.5185340000000 1.0
C      1  0.4722670000000  0.4153430000000  0.5255090000000 1.0
C      1  0.5180350000000  0.5845980000000  0.4649730000000 1.0
C      1  0.5049470000000  0.5905460000000  0.5298050000000 1.0
C      1  0.4656720000000  0.4908990000000  0.5930310000000 1.0
C      1  0.5788010000000  0.5153490000000  0.5135130000000 1.0
C      1  0.4454570000000  0.4542270000000  0.5441750000000 1.0
C      1  0.4468420000000  0.4467720000000  0.4956180000000 1.0
C      1  0.5239730000000  0.4569690000000  0.4962930000000 1.0
C      1  0.4753100000000  0.5605370000000  0.5616990000000 1.0
C      1  0.5092580000000  0.5632340000000  0.4490620000000 1.0
C      1  0.5927540000000  0.4690520000000  0.5088240000000 1.0
C      1  0.5522790000000  0.5220220000000  0.4679370000000 1.0
C      1  0.4284700000000  0.4861470000000  0.4831600000000 1.0
C      1  0.4501610000000  0.5920870000000  0.5290320000000 1.0
C      1  0.5953810000000  0.5320850000000  0.4984910000000 1.0
C      1  0.5704130000000  0.4352200000000  0.5381860000000 1.0
C      1  0.5225160000000  0.5616530000000  0.5693940000000 1.0
C      1  0.4570030000000  0.4957530000000  0.4167410000000 1.0
C      1  0.4587280000000  0.5639840000000  0.4422040000000 1.0
C      1  0.5383060000000  0.5879980000000  0.4847140000000 1.0
C      1  0.4724970000000  0.4505500000000  0.4802130000000 1.0
C      1  0.5509430000000  0.5480750000000  0.4550640000000 1.0
C      1  0.4801460000000  0.4049600000000  0.4599960000000 1.0
C      1  0.4420380000000  0.5584280000000  0.4694220000000 1.0
C      1  0.4836680000000  0.4202330000000  0.4332300000000 1.0
C      1  0.4430960000000  0.5329160000000  0.5647710000000 1.0
C      1  0.4114660000000  0.5269390000000  0.4941710000000 1.0
C      1  0.4894990000000  0.4729970000000  0.5980240000000 1.0
C      1  0.5223720000000  0.4960340000000  0.4558780000000 1.0
C      1  0.5739140000000  0.5072090000000  0.4262130000000 1.0
C      1  0.5325030000000  0.4474140000000  0.4377710000000 1.0
C      1  0.4604190000000  0.4686750000000  0.4296850000000 1.0
C      1  0.5119820000000  0.4556390000000  0.4183080000000 1.0
C      1  0.4742780000000  0.4510910000000  0.5540050000000 1.0
C      1  0.4195600000000  0.5354180000000  0.4669430000000 1.0
C      1  0.5300280000000  0.4066550000000  0.4774360000000 1.0
C      1  0.4420150000000  0.4181350000000  0.4669850000000 1.0
C      1  0.5686960000000  0.4195620000000  0.5141320000000 1.0
C      1  0.5014550000000  0.4036190000000  0.4814190000000 1.0
C      1  0.5777460000000  0.5045180000000  0.5664090000000 1.0
C      1  0.5588810000000  0.5696640000000  0.4731700000000 1.0
C      1  0.4958360000000  0.5516790000000  0.4969280000000 1.0
C      1  0.4238750000000  0.5173820000000  0.4473890000000 1.0
C      1  0.5509140000000  0.5730470000000  0.5287460000000 1.0
C      1  0.4307940000000  0.4696390000000  0.4367230000000 1.0
C      1  0.5081340000000  0.4755880000000  0.5134870000000 1.0
C      1  0.6098400000000  0.5686960000000  0.4959520000000 1.0
C      1  0.4929220000000  0.4726680000000  0.5370850000000 1.0
C      1  0.5500410000000  0.5252900000000  0.4990310000000 1.0
C      1  0.4500500000000  0.4353650000000  0.5222120000000 1.0
C      1  0.5296420000000  0.5291140000000  0.4097530000000 1.0
C      1  0.5704180000000  0.4846920000000  0.4437400000000 1.0
C      1  0.4795700000000  0.4204020000000  0.5528970000000 1.0
C      1  0.5013090000000  0.4553910000000  0.4777460000000 1.0
C      1  0.4335880000000  0.4807550000000  0.5487570000000 1.0
C      1  0.5007380000000  0.4771380000000  0.4599160000000 1.0
C      1  0.5469860000000  0.4464910000000  0.5521390000000 1.0
C      1  0.5307960000000  0.5892540000000  0.5146360000000 1.0
C      1  0.5032380000000  0.4262470000000  0.5695000000000 1.0
C      1  0.4963090000000  0.4082130000000  0.5098630000000 1.0
C      1  0.5496520000000  0.5521140000000  0.5099060000000 1.0
C      1  0.5458990000000  0.5463550000000  0.4258460000000 1.0
C      1  0.4579220000000  0.5140870000000  0.5181850000000 1.0
C      1  0.5254750000000  0.4267930000000  0.5504250000000 1.0
C      1  0.5887880000000  0.4423500000000  0.5156670000000 1.0
C      1  0.4888480000000  0.4491020000000  0.5816280000000 1.0
C      1  0.4132470000000  0.5002300000000  0.5051600000000 1.0
C      1  0.4209120000000  0.4650350000000  0.4637050000000 1.0
C      1  0.5423350000000  0.4107860000000  0.5046500000000 1.0
C      1  0.4764900000000  0.5177040000000  0.4166020000000 1.0
C      1  0.5546170000000  0.4369020000000  0.4704880000000 1.0
C      1  0.5215180000000  0.4126490000000  0.5243910000000 1.0
C      1  0.4803540000000  0.5221210000000  0.5345380000000 1.0
END
