TITL C-3909641-6767-36 29.1283408976224 125000 -19439.84456078 0 0 132 (C1) n - 1
REM
REM in /home/nfs/bkarasulu/CARBON/AIRSS/Generating-Clusters/ReaxFF-fromJPCA2015/Units_Real/with-SteepDescent/Only-C1/SD-CG/Try1-3A/FIRE-CG
REM
REM
REM
REM
REM
REM ./C.cell (11c1c37f851c82e70ff6c80c92926a4b)
REM
REM compiler GCC version 9.2.1 20190827 (Red Hat 9.2.1-1)
REM options -cpp -mtune=generic -march=x86-64 -g -O0 -fpre-include=/usr/include/finclude/math-vector-fortran.h
REM seed 1903383649 -1567391685 555169781 1696882239 -766009895 -1346035893 -1214468468 1179993187 -496759955 -816395905 324743959 -689704228 573141837 -383963097 -1096474946 -469017613 2128362321 920834513 857401797 2115379260 -1912265988 336086925 69565236 -93983810 1495690189 -1363178681 -458630925 834786466 -825673087 -572999949 -1466805336 1742699162 -387745571
REM
CELL 1.54180   50.00000   50.00000   50.00000   90.00000   90.00000   90.00000
LATT -1
SFAC C  
C      1  0.4436150000000  0.4883140000000  0.4726790000000 1.0
C      1  0.4276470000000  0.5117880000000  0.5649360000000 1.0
C      1  0.5012420000000  0.4744910000000  0.5370240000000 1.0
C      1  0.5424220000000  0.5224880000000  0.4137070000000 1.0
C      1  0.5721120000000  0.4583150000000  0.5628740000000 1.0
C      1  0.4286670000000  0.4422790000000  0.5046560000000 1.0
C      1  0.5055520000000  0.5045960000000  0.4151750000000 1.0
C      1  0.4464940000000  0.5341100000000  0.4916590000000 1.0
C      1  0.5172820000000  0.4551970000000  0.4059600000000 1.0
C      1  0.5226460000000  0.4956180000000  0.4832220000000 1.0
C      1  0.5346590000000  0.4720580000000  0.5286850000000 1.0
C      1  0.5890040000000  0.4732930000000  0.5205650000000 1.0
C      1  0.4786880000000  0.5269340000000  0.4584320000000 1.0
C      1  0.4753690000000  0.5846800000000  0.4852690000000 1.0
C      1  0.5003970000000  0.4622770000000  0.4619070000000 1.0
C      1  0.5497390000000  0.5400360000000  0.4661740000000 1.0
C      1  0.5273080000000  0.4247070000000  0.4449140000000 1.0
C      1  0.5844200000000  0.5258520000000  0.5022490000000 1.0
C      1  0.4673570000000  0.4573810000000  0.4223780000000 1.0
C      1  0.4501360000000  0.4812780000000  0.4224010000000 1.0
C      1  0.4889380000000  0.4581770000000  0.4029920000000 1.0
C      1  0.5672270000000  0.5480530000000  0.5634620000000 1.0
C      1  0.4080640000000  0.5388730000000  0.4802900000000 1.0
C      1  0.4193340000000  0.5059280000000  0.5212960000000 1.0
C      1  0.4715910000000  0.5893920000000  0.5362430000000 1.0
C      1  0.5450500000000  0.5119150000000  0.4760010000000 1.0
C      1  0.4202210000000  0.5371040000000  0.5073770000000 1.0
C      1  0.4874290000000  0.5988560000000  0.5133240000000 1.0
C      1  0.4939180000000  0.4900280000000  0.5138370000000 1.0
C      1  0.4572070000000  0.4497390000000  0.5450170000000 1.0
C      1  0.5891200000000  0.5178630000000  0.4748020000000 1.0
C      1  0.4080830000000  0.5000570000000  0.5465180000000 1.0
C      1  0.4884530000000  0.4465750000000  0.5032290000000 1.0
C      1  0.5662930000000  0.5499010000000  0.5081340000000 1.0
C      1  0.4620030000000  0.4976700000000  0.5482700000000 1.0
C      1  0.5382500000000  0.5533950000000  0.5588210000000 1.0
C      1  0.4831260000000  0.4522910000000  0.5308210000000 1.0
C      1  0.5584470000000  0.5352730000000  0.5914780000000 1.0
C      1  0.5700940000000  0.4852960000000  0.4389000000000 1.0
C      1  0.4602430000000  0.5535500000000  0.5741250000000 1.0
C      1  0.4670050000000  0.5283190000000  0.5084740000000 1.0
C      1  0.4383250000000  0.4326160000000  0.5305720000000 1.0
C      1  0.5837760000000  0.4566590000000  0.4776410000000 1.0
C      1  0.5541490000000  0.5672880000000  0.4871230000000 1.0
C      1  0.5492300000000  0.4988740000000  0.5315320000000 1.0
C      1  0.4393220000000  0.4740140000000  0.4468420000000 1.0
C      1  0.5162510000000  0.4130960000000  0.5136650000000 1.0
C      1  0.4033990000000  0.4824260000000  0.5235090000000 1.0
C      1  0.4955800000000  0.5464820000000  0.4047200000000 1.0
C      1  0.5404330000000  0.4163790000000  0.4964240000000 1.0
C      1  0.5826250000000  0.4493320000000  0.5052290000000 1.0
C      1  0.5163370000000  0.6023850000000  0.5090280000000 1.0
C      1  0.4342620000000  0.5288830000000  0.4256860000000 1.0
C      1  0.4474480000000  0.4905440000000  0.5712700000000 1.0
C      1  0.4125270000000  0.4677620000000  0.4997960000000 1.0
C      1  0.5170650000000  0.5618050000000  0.5129990000000 1.0
C      1  0.4552940000000  0.5112630000000  0.4149760000000 1.0
C      1  0.5120480000000  0.4531050000000  0.4869180000000 1.0
C      1  0.5836290000000  0.4857690000000  0.4660330000000 1.0
C      1  0.5661090000000  0.4424420000000  0.4600950000000 1.0
C      1  0.5384680000000  0.5433410000000  0.5157030000000 1.0
C      1  0.5468370000000  0.4248470000000  0.5364000000000 1.0
C      1  0.4937400000000  0.4039770000000  0.4986520000000 1.0
C      1  0.5292180000000  0.4642680000000  0.5842680000000 1.0
C      1  0.4040910000000  0.5123010000000  0.4670160000000 1.0
C      1  0.4618180000000  0.4235720000000  0.4648100000000 1.0
C      1  0.5615290000000  0.4903720000000  0.4850490000000 1.0
C      1  0.5347710000000  0.4463600000000  0.4266500000000 1.0
C      1  0.5231550000000  0.5863580000000  0.5325760000000 1.0
C      1  0.4418540000000  0.5536590000000  0.4405030000000 1.0
C      1  0.5179600000000  0.5638390000000  0.4423580000000 1.0
C      1  0.4919520000000  0.5647990000000  0.4279920000000 1.0
C      1  0.4707890000000  0.5525020000000  0.4441710000000 1.0
C      1  0.4513920000000  0.5700280000000  0.5263820000000 1.0
C      1  0.5076110000000  0.5105470000000  0.5718820000000 1.0
C      1  0.4921980000000  0.5504090000000  0.5439300000000 1.0
C      1  0.5029040000000  0.5256840000000  0.5984220000000 1.0
C      1  0.5238810000000  0.5371840000000  0.4517830000000 1.0
C      1  0.4365360000000  0.5392760000000  0.5586950000000 1.0
C      1  0.5349350000000  0.5887760000000  0.4871800000000 1.0
C      1  0.5069060000000  0.5122570000000  0.4445260000000 1.0
C      1  0.5751190000000  0.5286330000000  0.4524220000000 1.0
C      1  0.4525830000000  0.4810100000000  0.5005810000000 1.0
C      1  0.5777920000000  0.5322090000000  0.5415380000000 1.0
C      1  0.5092390000000  0.4882140000000  0.4592770000000 1.0
C      1  0.4097960000000  0.5173160000000  0.4384100000000 1.0
C      1  0.4127110000000  0.4838380000000  0.4751530000000 1.0
C      1  0.4651080000000  0.4060910000000  0.5061710000000 1.0
C      1  0.5239740000000  0.4916240000000  0.5868290000000 1.0
C      1  0.4813490000000  0.5204870000000  0.4062430000000 1.0
C      1  0.5627770000000  0.4267100000000  0.5128970000000 1.0
C      1  0.4810720000000  0.5413530000000  0.5876560000000 1.0
C      1  0.4792000000000  0.5718220000000  0.5594860000000 1.0
C      1  0.4821780000000  0.4136710000000  0.5528260000000 1.0
C      1  0.5154410000000  0.5332800000000  0.5501370000000 1.0
C      1  0.4928670000000  0.5890130000000  0.4623680000000 1.0
C      1  0.5487170000000  0.4516370000000  0.5460090000000 1.0
C      1  0.5586190000000  0.4591900000000  0.5895430000000 1.0
C      1  0.4719300000000  0.4787240000000  0.5824590000000 1.0
C      1  0.5647920000000  0.5122450000000  0.4297300000000 1.0
C      1  0.5089580000000  0.4427260000000  0.5696000000000 1.0
C      1  0.4903120000000  0.5320450000000  0.4895490000000 1.0
C      1  0.4788440000000  0.4737000000000  0.4969140000000 1.0
C      1  0.5874830000000  0.4791630000000  0.5485660000000 1.0
C      1  0.4529060000000  0.5184160000000  0.4685490000000 1.0
C      1  0.5452610000000  0.4235190000000  0.4676520000000 1.0
C      1  0.4582460000000  0.4094800000000  0.5340210000000 1.0
C      1  0.5081030000000  0.5119350000000  0.5039190000000 1.0
C      1  0.4835480000000  0.4513810000000  0.5819730000000 1.0
C      1  0.5210060000000  0.5881880000000  0.4607860000000 1.0
C      1  0.5332860000000  0.4696050000000  0.4979850000000 1.0
C      1  0.5066370000000  0.4796800000000  0.4012150000000 1.0
C      1  0.4511660000000  0.5008740000000  0.5212390000000 1.0
C      1  0.4469460000000  0.4242700000000  0.4894970000000 1.0
C      1  0.4462360000000  0.5753990000000  0.4769920000000 1.0
C      1  0.4261290000000  0.5600860000000  0.4658350000000 1.0
C      1  0.4795250000000  0.4442140000000  0.4478130000000 1.0
C      1  0.4854190000000  0.4068150000000  0.4688330000000 1.0
C      1  0.4658050000000  0.4327980000000  0.5683540000000 1.0
C      1  0.5095420000000  0.4229340000000  0.5476030000000 1.0
C      1  0.5433410000000  0.5766690000000  0.5490730000000 1.0
C      1  0.4710870000000  0.5482730000000  0.5262690000000 1.0
C      1  0.5584280000000  0.4591480000000  0.4367170000000 1.0
C      1  0.4297230000000  0.5523280000000  0.5340220000000 1.0
C      1  0.5731510000000  0.4973620000000  0.5098640000000 1.0
C      1  0.4973450000000  0.5603770000000  0.4930540000000 1.0
C      1  0.4988510000000  0.4190100000000  0.4463460000000 1.0
C      1  0.5729350000000  0.5052220000000  0.5496690000000 1.0
C      1  0.4864280000000  0.4907350000000  0.5600300000000 1.0
C      1  0.5320820000000  0.5293150000000  0.5986570000000 1.0
C      1  0.5279050000000  0.5201260000000  0.5258800000000 1.0
C      1  0.5229000000000  0.5377140000000  0.4025100000000 1.0
END
