TITL C-3909643-3388-23 -4.14605550198239 125000 -10535.3251093389 0 0 71 (C1) n - 1
REM
REM in /home/nfs/bkarasulu/CARBON/AIRSS/Generating-Clusters/ReaxFF-fromJPCA2015/Units_Real/with-SteepDescent/Only-C1/SD-CG/Try1-3A/FIRE-CG
REM
REM
REM
REM
REM
REM ./C.cell (11c1c37f851c82e70ff6c80c92926a4b)
REM
REM compiler GCC version 9.2.1 20190827 (Red Hat 9.2.1-1)
REM options -cpp -mtune=generic -march=x86-64 -g -O0 -fpre-include=/usr/include/finclude/math-vector-fortran.h
REM seed -146002543 1375706536 -1558234430 1492715227 -752598966 -402894413 -1023773032 -685609393 1717429375 1198379189 -657687890 1781369780 -421173779 -591036966 1510771484 -798457891 -1671630227 -356820344 -182156924 -1697416064 1896876863 1531859282 -1698231349 504064700 -69438714 1862473263 1545118621 704766272 164492796 1527873109 1945652227 -86728573 -179022766
REM
CELL 1.54180   50.00000   50.00000   50.00000   90.00000   90.00000   90.00000
LATT -1
SFAC C  
C      1  0.4887270000000  0.4982820000000  0.5291720000000 1.0
C      1  0.4510490000000  0.5637250000000  0.5108200000000 1.0
C      1  0.4599470000000  0.5573780000000  0.4606600000000 1.0
C      1  0.4475190000000  0.5132090000000  0.4418770000000 1.0
C      1  0.4596190000000  0.5550060000000  0.5373920000000 1.0
C      1  0.5549050000000  0.4450740000000  0.4984980000000 1.0
C      1  0.5139160000000  0.4964660000000  0.5328860000000 1.0
C      1  0.4225830000000  0.4780550000000  0.5069550000000 1.0
C      1  0.5753330000000  0.5265160000000  0.5126570000000 1.0
C      1  0.5484250000000  0.5470340000000  0.4717280000000 1.0
C      1  0.4828060000000  0.4770750000000  0.5692550000000 1.0
C      1  0.4263950000000  0.4945720000000  0.5298400000000 1.0
C      1  0.5313020000000  0.4379410000000  0.5338450000000 1.0
C      1  0.5112160000000  0.5676100000000  0.5233200000000 1.0
C      1  0.4402100000000  0.5348800000000  0.5070010000000 1.0
C      1  0.4406400000000  0.4758440000000  0.4600540000000 1.0
C      1  0.4867920000000  0.5441740000000  0.5424690000000 1.0
C      1  0.4881660000000  0.5587530000000  0.4534180000000 1.0
C      1  0.4547710000000  0.4877530000000  0.4360030000000 1.0
C      1  0.4990550000000  0.4523710000000  0.5565450000000 1.0
C      1  0.4683090000000  0.5245690000000  0.5011340000000 1.0
C      1  0.5199880000000  0.5143380000000  0.4684110000000 1.0
C      1  0.4377470000000  0.4528940000000  0.5129410000000 1.0
C      1  0.4647080000000  0.5711530000000  0.4862260000000 1.0
C      1  0.4936180000000  0.4998170000000  0.4669660000000 1.0
C      1  0.5018260000000  0.4659170000000  0.4352270000000 1.0
C      1  0.5141410000000  0.5662660000000  0.4984980000000 1.0
C      1  0.5691620000000  0.5306020000000  0.4836170000000 1.0
C      1  0.5786720000000  0.5037330000000  0.4771950000000 1.0
C      1  0.4403730000000  0.5332240000000  0.5381370000000 1.0
C      1  0.5060890000000  0.4286890000000  0.4938520000000 1.0
C      1  0.5224890000000  0.4541650000000  0.4498070000000 1.0
C      1  0.5310810000000  0.5349990000000  0.4513940000000 1.0
C      1  0.4572160000000  0.4816180000000  0.5550240000000 1.0
C      1  0.4708500000000  0.5161550000000  0.4760740000000 1.0
C      1  0.5644490000000  0.4939790000000  0.5477750000000 1.0
C      1  0.5431650000000  0.4806870000000  0.5613300000000 1.0
C      1  0.5361580000000  0.5318390000000  0.5507880000000 1.0
C      1  0.5878750000000  0.5011060000000  0.5053390000000 1.0
C      1  0.5666650000000  0.4814130000000  0.4606110000000 1.0
C      1  0.5056510000000  0.5158350000000  0.4249380000000 1.0
C      1  0.5421780000000  0.4775400000000  0.4423320000000 1.0
C      1  0.5069180000000  0.4512210000000  0.4750710000000 1.0
C      1  0.5336320000000  0.5467560000000  0.4969430000000 1.0
C      1  0.5600630000000  0.5227160000000  0.5384950000000 1.0
C      1  0.5266340000000  0.4904630000000  0.5080420000000 1.0
C      1  0.4451910000000  0.5307830000000  0.4605080000000 1.0
C      1  0.4265030000000  0.4928600000000  0.4813700000000 1.0
C      1  0.4938900000000  0.5716490000000  0.4797720000000 1.0
C      1  0.4978140000000  0.4986150000000  0.5798840000000 1.0
C      1  0.5756860000000  0.4814000000000  0.5238240000000 1.0
C      1  0.4548740000000  0.4365670000000  0.4956840000000 1.0
C      1  0.5613010000000  0.4573340000000  0.4737480000000 1.0
C      1  0.4819890000000  0.4293370000000  0.5098670000000 1.0
C      1  0.5305310000000  0.5169940000000  0.4941080000000 1.0
C      1  0.5160310000000  0.5526080000000  0.5458470000000 1.0
C      1  0.4998850000000  0.4766920000000  0.4897580000000 1.0
C      1  0.4283640000000  0.5209610000000  0.4819370000000 1.0
C      1  0.4497660000000  0.4532570000000  0.4740290000000 1.0
C      1  0.5064920000000  0.5425210000000  0.4371320000000 1.0
C      1  0.4855040000000  0.4899330000000  0.4344610000000 1.0
C      1  0.5271150000000  0.4983050000000  0.4302680000000 1.0
C      1  0.4866190000000  0.5235640000000  0.5221560000000 1.0
C      1  0.4612820000000  0.4625600000000  0.5304390000000 1.0
C      1  0.5237110000000  0.5036110000000  0.5597990000000 1.0
C      1  0.5288050000000  0.4543980000000  0.5565590000000 1.0
C      1  0.5320900000000  0.4267940000000  0.5085010000000 1.0
C      1  0.5516050000000  0.4717140000000  0.5110400000000 1.0
C      1  0.4824750000000  0.4397700000000  0.5367240000000 1.0
C      1  0.4794880000000  0.4785890000000  0.5105580000000 1.0
C      1  0.4399580000000  0.5057760000000  0.5514680000000 1.0
END
