TITL C-3909787-7025-27 1.91816373193048e-09 125000 -1303.89885026823 0 0 10 (C1) n - 1
REM
REM in /home/nfs/bkarasulu/CARBON/AIRSS/Generating-Clusters/ReaxFF-fromJPCA2015/Units_Real/with-SteepDescent/Only-C1/SD-CG/Try1-3A/FIRE-CG
REM
REM
REM
REM
REM
REM ./C.cell (11c1c37f851c82e70ff6c80c92926a4b)
REM
REM compiler GCC version 9.2.1 20190827 (Red Hat 9.2.1-1)
REM options -cpp -mtune=generic -march=x86-64 -g -O0 -fpre-include=/usr/include/finclude/math-vector-fortran.h
REM seed 1819848739 -1633544215 -821889004 1986561769 -553440601 1737371677 906305510 -1464245044 1217207786 697471627 -45364662 1866930371 1501351096 656782750 -1851788732 -1247151873 -164151519 1299906317 1622969241 -1631915760 -870656531 1610117759 -921459608 269163746 1548048260 130977456 -1560410889 -1472130538 -1703509296 -544034857 -1629171384 -1873535168 -1849138986
REM
CELL 1.54180   50.00000   50.00000   50.00000   90.00000   90.00000   90.00000
LATT -1
SFAC C  
C      1  0.5217920000000  0.5125590000000  0.4978860000000 1.0
C      1  0.5095170000000  0.5001380000000  0.4751340000000 1.0
C      1  0.5050730000000  0.5134990000000  0.5243550000000 1.0
C      1  0.5370990000000  0.4866990000000  0.4679910000000 1.0
C      1  0.4568190000000  0.4910010000000  0.5102070000000 1.0
C      1  0.4832950000000  0.4896090000000  0.4770250000000 1.0
C      1  0.4742280000000  0.5037370000000  0.5279460000000 1.0
C      1  0.5492350000000  0.5004800000000  0.4918330000000 1.0
C      1  0.4567850000000  0.4796700000000  0.4800610000000 1.0
C      1  0.5061570000000  0.5226090000000  0.5475630000000 1.0
END
