TITL C-3909653-6271-26 49.8164733397132 125000 -24172.857515906 0 0 163 (C1) n - 1
REM
REM in /home/nfs/bkarasulu/CARBON/AIRSS/Generating-Clusters/ReaxFF-fromJPCA2015/Units_Real/with-SteepDescent/Only-C1/SD-CG/Try1-3A/FIRE-CG
REM
REM
REM
REM
REM
REM ./C.cell (11c1c37f851c82e70ff6c80c92926a4b)
REM
REM compiler GCC version 9.2.1 20190827 (Red Hat 9.2.1-1)
REM options -cpp -mtune=generic -march=x86-64 -g -O0 -fpre-include=/usr/include/finclude/math-vector-fortran.h
REM seed 856413493 -1278376711 1402457525 638603513 -1003781457 -1733713627 -1586841023 -946037972 1938222646 -830883109 1789623264 -1268551082 -955211295 86117582 1997574238 -562841142 -1153700122 -2078073650 687304284 -1935882410 1496118388 1009638546 1578527612 1679950095 2099981053 801526090 127542334 234120669 1490753917 289292967 -1779209276 -1569640640 -321863348
REM
CELL 1.54180   50.00000   50.00000   50.00000   90.00000   90.00000   90.00000
LATT -1
SFAC C  
C      1  0.4926930000000  0.5115350000000  0.4696880000000 1.0
C      1  0.5377020000000  0.4535850000000  0.4899590000000 1.0
C      1  0.5629700000000  0.4942580000000  0.4115930000000 1.0
C      1  0.4074180000000  0.5193440000000  0.5727850000000 1.0
C      1  0.5742380000000  0.4226340000000  0.4695520000000 1.0
C      1  0.4041910000000  0.4883170000000  0.4603410000000 1.0
C      1  0.5241450000000  0.4270280000000  0.5787160000000 1.0
C      1  0.5371320000000  0.5707700000000  0.5025860000000 1.0
C      1  0.5698990000000  0.4908890000000  0.5287290000000 1.0
C      1  0.4940180000000  0.4574020000000  0.6262330000000 1.0
C      1  0.4564710000000  0.5454610000000  0.5030220000000 1.0
C      1  0.4893790000000  0.4642470000000  0.4980740000000 1.0
C      1  0.4910160000000  0.4013130000000  0.5212040000000 1.0
C      1  0.4135740000000  0.4580640000000  0.4947310000000 1.0
C      1  0.5099000000000  0.4421130000000  0.4879740000000 1.0
C      1  0.4953760000000  0.5653410000000  0.5235160000000 1.0
C      1  0.4733390000000  0.5151170000000  0.4026040000000 1.0
C      1  0.4116500000000  0.5137740000000  0.5085320000000 1.0
C      1  0.4755060000000  0.4263820000000  0.5875950000000 1.0
C      1  0.5304540000000  0.4128510000000  0.4542430000000 1.0
C      1  0.5227590000000  0.5187820000000  0.4144080000000 1.0
C      1  0.4752790000000  0.4111430000000  0.4735200000000 1.0
C      1  0.4611100000000  0.4641390000000  0.5307110000000 1.0
C      1  0.4799420000000  0.5297300000000  0.5993890000000 1.0
C      1  0.5329500000000  0.5623680000000  0.4723780000000 1.0
C      1  0.4468660000000  0.5854710000000  0.5260820000000 1.0
C      1  0.5002630000000  0.4902660000000  0.5081320000000 1.0
C      1  0.5807560000000  0.4873200000000  0.4357480000000 1.0
C      1  0.5210690000000  0.4899650000000  0.5264360000000 1.0
C      1  0.4112710000000  0.5461820000000  0.5112910000000 1.0
C      1  0.4134900000000  0.5597010000000  0.4578620000000 1.0
C      1  0.5069840000000  0.4458340000000  0.4588010000000 1.0
C      1  0.5561340000000  0.5003760000000  0.4851060000000 1.0
C      1  0.5844440000000  0.4636990000000  0.4528380000000 1.0
C      1  0.5881600000000  0.5315060000000  0.4611250000000 1.0
C      1  0.5289800000000  0.5173890000000  0.4439640000000 1.0
C      1  0.4819570000000  0.6025420000000  0.4627930000000 1.0
C      1  0.4554490000000  0.5172130000000  0.5487960000000 1.0
C      1  0.5865610000000  0.5732200000000  0.4876140000000 1.0
C      1  0.4940920000000  0.4054780000000  0.5482440000000 1.0
C      1  0.4231000000000  0.5340020000000  0.4420520000000 1.0
C      1  0.4946620000000  0.4289390000000  0.4387160000000 1.0
C      1  0.4324340000000  0.5611480000000  0.5581780000000 1.0
C      1  0.4932760000000  0.5260120000000  0.4202960000000 1.0
C      1  0.5083550000000  0.4668300000000  0.5611740000000 1.0
C      1  0.4147380000000  0.4608390000000  0.4646190000000 1.0
C      1  0.5391020000000  0.4789500000000  0.4759190000000 1.0
C      1  0.5044430000000  0.5631020000000  0.5952880000000 1.0
C      1  0.5266870000000  0.5381240000000  0.5465840000000 1.0
C      1  0.4687270000000  0.4858650000000  0.3977980000000 1.0
C      1  0.5499740000000  0.5612460000000  0.5750350000000 1.0
C      1  0.5150370000000  0.4986840000000  0.4607190000000 1.0
C      1  0.5381860000000  0.4982510000000  0.5814900000000 1.0
C      1  0.5299880000000  0.4469000000000  0.4182950000000 1.0
C      1  0.4451340000000  0.4742360000000  0.5069560000000 1.0
C      1  0.5040520000000  0.4934140000000  0.5497160000000 1.0
C      1  0.4752630000000  0.4476930000000  0.4214580000000 1.0
C      1  0.4267500000000  0.5655070000000  0.5291150000000 1.0
C      1  0.5406680000000  0.5662080000000  0.4262150000000 1.0
C      1  0.4878860000000  0.5468050000000  0.4412840000000 1.0
C      1  0.5513340000000  0.4164480000000  0.5230870000000 1.0
C      1  0.5640290000000  0.5256530000000  0.4715680000000 1.0
C      1  0.3948980000000  0.4906910000000  0.5267740000000 1.0
C      1  0.5456180000000  0.4257240000000  0.4751580000000 1.0
C      1  0.4715020000000  0.4758040000000  0.5840970000000 1.0
C      1  0.4754540000000  0.5580120000000  0.5904640000000 1.0
C      1  0.4472420000000  0.5462000000000  0.4764850000000 1.0
C      1  0.4144250000000  0.4920990000000  0.5682130000000 1.0
C      1  0.4739170000000  0.5046850000000  0.5849140000000 1.0
C      1  0.4938260000000  0.5890210000000  0.5417530000000 1.0
C      1  0.5443580000000  0.5556430000000  0.5334940000000 1.0
C      1  0.6059990000000  0.5316760000000  0.5061370000000 1.0
C      1  0.4249660000000  0.4900860000000  0.4224560000000 1.0
C      1  0.4530490000000  0.4344980000000  0.4735240000000 1.0
C      1  0.4909460000000  0.5503210000000  0.4708180000000 1.0
C      1  0.5712240000000  0.4547930000000  0.5641340000000 1.0
C      1  0.5956150000000  0.4600260000000  0.4804820000000 1.0
C      1  0.4217060000000  0.4364370000000  0.5134380000000 1.0
C      1  0.5240550000000  0.4619300000000  0.4428350000000 1.0
C      1  0.4970510000000  0.5888280000000  0.4417070000000 1.0
C      1  0.5791220000000  0.4272270000000  0.5192140000000 1.0
C      1  0.5936860000000  0.4861240000000  0.5457140000000 1.0
C      1  0.5622810000000  0.5861670000000  0.4980810000000 1.0
C      1  0.4159520000000  0.4455820000000  0.5410820000000 1.0
C      1  0.5197470000000  0.4674150000000  0.3992710000000 1.0
C      1  0.5891910000000  0.4437010000000  0.5401340000000 1.0
C      1  0.4895660000000  0.4662690000000  0.3989920000000 1.0
C      1  0.6010460000000  0.5484580000000  0.4813810000000 1.0
C      1  0.5246810000000  0.5779040000000  0.4486900000000 1.0
C      1  0.4849110000000  0.4514600000000  0.5239750000000 1.0
C      1  0.5708500000000  0.5543650000000  0.5416940000000 1.0
C      1  0.5197990000000  0.5981520000000  0.4985110000000 1.0
C      1  0.5658780000000  0.5174310000000  0.5260990000000 1.0
C      1  0.4573640000000  0.4692210000000  0.5592850000000 1.0
C      1  0.5465670000000  0.5400600000000  0.4146730000000 1.0
C      1  0.4612870000000  0.4656890000000  0.4837380000000 1.0
C      1  0.5800630000000  0.4838730000000  0.5709720000000 1.0
C      1  0.5463510000000  0.4744830000000  0.5215060000000 1.0
C      1  0.4449810000000  0.4490230000000  0.4245040000000 1.0
C      1  0.4679480000000  0.5087630000000  0.4592670000000 1.0
C      1  0.5367870000000  0.3966400000000  0.5050030000000 1.0
C      1  0.4288140000000  0.5320420000000  0.5643910000000 1.0
C      1  0.5284100000000  0.4686040000000  0.5817080000000 1.0
C      1  0.5448680000000  0.4445370000000  0.5820000000000 1.0
C      1  0.5332130000000  0.4339900000000  0.5374960000000 1.0
C      1  0.5884800000000  0.5362170000000  0.5306240000000 1.0
C      1  0.5503710000000  0.4561870000000  0.5431840000000 1.0
C      1  0.4638730000000  0.5888920000000  0.5491310000000 1.0
C      1  0.4338010000000  0.4343820000000  0.5602870000000 1.0
C      1  0.5726160000000  0.4380180000000  0.4448360000000 1.0
C      1  0.5151110000000  0.5960040000000  0.5604990000000 1.0
C      1  0.4827920000000  0.4537600000000  0.6022200000000 1.0
C      1  0.5708110000000  0.5225890000000  0.4147010000000 1.0
C      1  0.4792310000000  0.4730790000000  0.4388840000000 1.0
C      1  0.4022500000000  0.5562070000000  0.4853790000000 1.0
C      1  0.4341080000000  0.5468860000000  0.4162840000000 1.0
C      1  0.4088400000000  0.5058050000000  0.4367840000000 1.0
C      1  0.3905590000000  0.4769360000000  0.5021540000000 1.0
C      1  0.4915470000000  0.6045440000000  0.4900370000000 1.0
C      1  0.4827750000000  0.5109000000000  0.5580180000000 1.0
C      1  0.4543510000000  0.5957010000000  0.4714240000000 1.0
C      1  0.5351570000000  0.4914540000000  0.4034770000000 1.0
C      1  0.4644780000000  0.5933460000000  0.4994960000000 1.0
C      1  0.4420790000000  0.4737600000000  0.4085120000000 1.0
C      1  0.4807600000000  0.5705220000000  0.4256280000000 1.0
C      1  0.5896200000000  0.5154530000000  0.4365580000000 1.0
C      1  0.4571300000000  0.5709250000000  0.5709910000000 1.0
C      1  0.5093830000000  0.5340060000000  0.5966360000000 1.0
C      1  0.4433310000000  0.4226880000000  0.4997020000000 1.0
C      1  0.4440860000000  0.5213690000000  0.4616170000000 1.0
C      1  0.5891020000000  0.4342450000000  0.4917790000000 1.0
C      1  0.5638670000000  0.5073620000000  0.5753810000000 1.0
C      1  0.4678140000000  0.4056350000000  0.5009250000000 1.0
C      1  0.6059210000000  0.4647340000000  0.5304100000000 1.0
C      1  0.4965650000000  0.5285520000000  0.4861410000000 1.0
C      1  0.4421390000000  0.4933470000000  0.5585680000000 1.0
C      1  0.5662250000000  0.5400770000000  0.5661700000000 1.0
C      1  0.4900820000000  0.5176590000000  0.5119700000000 1.0
C      1  0.4778820000000  0.5644770000000  0.4986720000000 1.0
C      1  0.5466250000000  0.4280690000000  0.4335780000000 1.0
C      1  0.5022450000000  0.5393250000000  0.5314900000000 1.0
C      1  0.4987220000000  0.4064390000000  0.4558230000000 1.0
C      1  0.6082660000000  0.4764080000000  0.5019290000000 1.0
C      1  0.5246760000000  0.5231020000000  0.5737670000000 1.0
C      1  0.5447360000000  0.6118530000000  0.4915540000000 1.0
C      1  0.4338670000000  0.4442770000000  0.4507650000000 1.0
C      1  0.4565830000000  0.5642150000000  0.4097900000000 1.0
C      1  0.4989590000000  0.4118610000000  0.5753260000000 1.0
C      1  0.5417620000000  0.5376730000000  0.4608190000000 1.0
C      1  0.4395470000000  0.5718770000000  0.4630570000000 1.0
C      1  0.5268640000000  0.5775640000000  0.5815310000000 1.0
C      1  0.4581280000000  0.5203920000000  0.5165230000000 1.0
C      1  0.4522040000000  0.4292620000000  0.5736100000000 1.0
C      1  0.4387060000000  0.5021220000000  0.5073800000000 1.0
C      1  0.5115090000000  0.4119990000000  0.5020970000000 1.0
C      1  0.5068030000000  0.4455620000000  0.5416310000000 1.0
C      1  0.6083360000000  0.5043830000000  0.5023850000000 1.0
C      1  0.5062110000000  0.4844310000000  0.4386380000000 1.0
C      1  0.4039960000000  0.4727500000000  0.5468640000000 1.0
C      1  0.5432170000000  0.5190810000000  0.5054720000000 1.0
C      1  0.3952160000000  0.5002470000000  0.4858990000000 1.0
C      1  0.4536120000000  0.5370930000000  0.3977480000000 1.0
C      1  0.4594430000000  0.4830390000000  0.4585040000000 1.0
END
