TITL C-3909641-6767-35 -14.5088973618506 125000 -6254.44827964102 0 0 43 (C1) n - 1
REM
REM in /home/nfs/bkarasulu/CARBON/AIRSS/Generating-Clusters/ReaxFF-fromJPCA2015/Units_Real/with-SteepDescent/Only-C1/SD-CG/Try1-3A/FIRE-CG
REM
REM
REM
REM
REM
REM ./C.cell (11c1c37f851c82e70ff6c80c92926a4b)
REM
REM compiler GCC version 9.2.1 20190827 (Red Hat 9.2.1-1)
REM options -cpp -mtune=generic -march=x86-64 -g -O0 -fpre-include=/usr/include/finclude/math-vector-fortran.h
REM seed 575506323 -162212434 1241373719 -245304129 -642090135 -1993978222 -887939820 -161628325 -43617384 1082123078 -501695263 -1798866786 -174256427 2139817475 1147679583 -281686730 -245046953 240380975 2081909114 -1694303658 -2056425333 1577403394 -816395882 -540918070 87354952 1693884183 1168108695 479523405 701117733 534295475 494440383 1342272822 1665092790
REM
CELL 1.54180   50.00000   50.00000   50.00000   90.00000   90.00000   90.00000
LATT -1
SFAC C  
C      1  0.4806300000000  0.5513710000000  0.4742700000000 1.0
C      1  0.5650650000000  0.5168440000000  0.5042880000000 1.0
C      1  0.5579520000000  0.4932590000000  0.4898720000000 1.0
C      1  0.4511970000000  0.5627210000000  0.4783570000000 1.0
C      1  0.5599030000000  0.5179450000000  0.4757790000000 1.0
C      1  0.5111120000000  0.4995850000000  0.5236880000000 1.0
C      1  0.4968020000000  0.5292950000000  0.4358560000000 1.0
C      1  0.4655020000000  0.5027240000000  0.5645730000000 1.0
C      1  0.4972530000000  0.4341290000000  0.4760990000000 1.0
C      1  0.5251470000000  0.5432210000000  0.5313270000000 1.0
C      1  0.4707470000000  0.4488320000000  0.4783740000000 1.0
C      1  0.4831780000000  0.4862270000000  0.5833480000000 1.0
C      1  0.4798890000000  0.4627570000000  0.5640130000000 1.0
C      1  0.5504130000000  0.5401450000000  0.5155650000000 1.0
C      1  0.5510120000000  0.4714840000000  0.5346850000000 1.0
C      1  0.5121870000000  0.5548010000000  0.5072880000000 1.0
C      1  0.4409500000000  0.5079590000000  0.4777130000000 1.0
C      1  0.5164280000000  0.4583810000000  0.4774380000000 1.0
C      1  0.5405150000000  0.5380980000000  0.4679650000000 1.0
C      1  0.4945000000000  0.4831000000000  0.4502750000000 1.0
C      1  0.4651460000000  0.4527410000000  0.5073830000000 1.0
C      1  0.5073400000000  0.5222920000000  0.5415510000000 1.0
C      1  0.4554110000000  0.4962970000000  0.4548680000000 1.0
C      1  0.4956200000000  0.5530240000000  0.4492610000000 1.0
C      1  0.5584500000000  0.4531060000000  0.4976600000000 1.0
C      1  0.5210580000000  0.5400240000000  0.4464640000000 1.0
C      1  0.4461010000000  0.5021320000000  0.5073980000000 1.0
C      1  0.5359240000000  0.4450930000000  0.4871490000000 1.0
C      1  0.5094520000000  0.4878020000000  0.4749220000000 1.0
C      1  0.4527490000000  0.4756240000000  0.5208240000000 1.0
C      1  0.5218740000000  0.4737660000000  0.5359380000000 1.0
C      1  0.4423210000000  0.5355050000000  0.4807280000000 1.0
C      1  0.4777580000000  0.5242220000000  0.5466900000000 1.0
C      1  0.4943920000000  0.5352560000000  0.4943600000000 1.0
C      1  0.4588360000000  0.4777720000000  0.5493330000000 1.0
C      1  0.4857550000000  0.4392190000000  0.5249830000000 1.0
C      1  0.5013670000000  0.4527990000000  0.5457660000000 1.0
C      1  0.4799220000000  0.5067890000000  0.4412790000000 1.0
C      1  0.5694630000000  0.4760160000000  0.5101120000000 1.0
C      1  0.5382140000000  0.5538250000000  0.4927630000000 1.0
C      1  0.4604850000000  0.5174290000000  0.5255470000000 1.0
C      1  0.5035420000000  0.5063510000000  0.4963160000000 1.0
C      1  0.4684420000000  0.4700350000000  0.4579350000000 1.0
END
