TITL C-3909788-9832-21 3.74649729534235 125000 -11623.5786625789 0 0 78 (C1) n - 1
REM
REM in /home/nfs/bkarasulu/CARBON/AIRSS/Generating-Clusters/ReaxFF-fromJPCA2015/Units_Real/with-SteepDescent/Only-C1/SD-CG/Try1-3A/FIRE-CG
REM
REM
REM
REM
REM
REM ./C.cell (11c1c37f851c82e70ff6c80c92926a4b)
REM
REM compiler GCC version 9.2.1 20190827 (Red Hat 9.2.1-1)
REM options -cpp -mtune=generic -march=x86-64 -g -O0 -fpre-include=/usr/include/finclude/math-vector-fortran.h
REM seed -246278125 -1506700531 -2137107998 -311518907 1081864249 -1527787161 1267560477 -162275382 -1849380297 1248651301 -179933291 1699278822 982131752 1862789626 -1804690882 985105665 516637360 -1883855838 -289616651 -1012397173 -214480188 -1868503162 232013446 1684892256 1666697433 -1674794399 790932611 947830818 -387448087 -1638743259 260725856 669329633 680279659
REM
CELL 1.54180   50.00000   50.00000   50.00000   90.00000   90.00000   90.00000
LATT -1
SFAC C  
C      1  0.5675370000000  0.4853500000000  0.4671910000000 1.0
C      1  0.4350540000000  0.5179020000000  0.4462970000000 1.0
C      1  0.5292140000000  0.5717880000000  0.5105410000000 1.0
C      1  0.4891480000000  0.4679090000000  0.5053980000000 1.0
C      1  0.5078830000000  0.4599250000000  0.4332120000000 1.0
C      1  0.4920910000000  0.4415680000000  0.5500800000000 1.0
C      1  0.4925210000000  0.5751340000000  0.4769760000000 1.0
C      1  0.4962190000000  0.5645130000000  0.4494190000000 1.0
C      1  0.4757440000000  0.5457710000000  0.4384780000000 1.0
C      1  0.4476010000000  0.5256340000000  0.5106800000000 1.0
C      1  0.5719660000000  0.4763950000000  0.4941890000000 1.0
C      1  0.4306470000000  0.4728530000000  0.5471710000000 1.0
C      1  0.5264550000000  0.4220530000000  0.4848580000000 1.0
C      1  0.4345540000000  0.5644700000000  0.4711910000000 1.0
C      1  0.4660500000000  0.4731320000000  0.4546090000000 1.0
C      1  0.4807330000000  0.5548460000000  0.4949870000000 1.0
C      1  0.5100000000000  0.4866250000000  0.5275630000000 1.0
C      1  0.5572160000000  0.5365510000000  0.5003890000000 1.0
C      1  0.4923970000000  0.4399870000000  0.5207190000000 1.0
C      1  0.4718860000000  0.4224490000000  0.5108020000000 1.0
C      1  0.4522750000000  0.4305520000000  0.5310880000000 1.0
C      1  0.4633500000000  0.4391560000000  0.5565180000000 1.0
C      1  0.4985020000000  0.4807420000000  0.5823760000000 1.0
C      1  0.4877620000000  0.5227980000000  0.4303700000000 1.0
C      1  0.4996900000000  0.4226000000000  0.4719900000000 1.0
C      1  0.5314560000000  0.5053600000000  0.4361700000000 1.0
C      1  0.4399140000000  0.4570400000000  0.5217550000000 1.0
C      1  0.4934530000000  0.5291180000000  0.5355670000000 1.0
C      1  0.5551360000000  0.5599750000000  0.5177180000000 1.0
C      1  0.4650930000000  0.4776890000000  0.5207590000000 1.0
C      1  0.4861900000000  0.4755370000000  0.4294420000000 1.0
C      1  0.4543940000000  0.4502080000000  0.4727480000000 1.0
C      1  0.4677090000000  0.5294470000000  0.4852180000000 1.0
C      1  0.5697170000000  0.5271750000000  0.5548200000000 1.0
C      1  0.4492260000000  0.5525580000000  0.5217850000000 1.0
C      1  0.5103050000000  0.4599160000000  0.5638750000000 1.0
C      1  0.5786800000000  0.5115410000000  0.5330100000000 1.0
C      1  0.4822220000000  0.4891010000000  0.5401020000000 1.0
C      1  0.5623990000000  0.4531610000000  0.5083160000000 1.0
C      1  0.5169420000000  0.5162940000000  0.4792990000000 1.0
C      1  0.4240370000000  0.5078440000000  0.5080180000000 1.0
C      1  0.5314520000000  0.5218160000000  0.5017960000000 1.0
C      1  0.5820650000000  0.5228450000000  0.4927570000000 1.0
C      1  0.4344290000000  0.4608790000000  0.4910840000000 1.0
C      1  0.5215330000000  0.5731450000000  0.4818900000000 1.0
C      1  0.5724110000000  0.5242530000000  0.4425720000000 1.0
C      1  0.5236650000000  0.5566210000000  0.4567450000000 1.0
C      1  0.5212160000000  0.5288610000000  0.5739990000000 1.0
C      1  0.4381200000000  0.5638200000000  0.4985160000000 1.0
C      1  0.5531880000000  0.5279300000000  0.4225750000000 1.0
C      1  0.5451070000000  0.4816440000000  0.4489850000000 1.0
C      1  0.4723760000000  0.4288430000000  0.4815560000000 1.0
C      1  0.4895210000000  0.5090220000000  0.4803150000000 1.0
C      1  0.4837360000000  0.4812190000000  0.4785150000000 1.0
C      1  0.4188880000000  0.4962360000000  0.4594310000000 1.0
C      1  0.5467840000000  0.5209850000000  0.5708850000000 1.0
C      1  0.4828460000000  0.5559480000000  0.5252450000000 1.0
C      1  0.4705590000000  0.4797650000000  0.5791890000000 1.0
C      1  0.5276500000000  0.4687220000000  0.5426860000000 1.0
C      1  0.5821450000000  0.5116810000000  0.4652390000000 1.0
C      1  0.4517590000000  0.5397460000000  0.4576330000000 1.0
C      1  0.4289290000000  0.4966560000000  0.5330730000000 1.0
C      1  0.4212160000000  0.4860960000000  0.4868350000000 1.0
C      1  0.5423100000000  0.4333740000000  0.5064370000000 1.0
C      1  0.5438650000000  0.4499630000000  0.5291840000000 1.0
C      1  0.5011560000000  0.5005920000000  0.4237680000000 1.0
C      1  0.5265510000000  0.5535970000000  0.5546140000000 1.0
C      1  0.4980090000000  0.5105220000000  0.5795170000000 1.0
C      1  0.4422050000000  0.4902870000000  0.4437760000000 1.0
C      1  0.5332360000000  0.4553790000000  0.4426780000000 1.0
C      1  0.4503410000000  0.4633680000000  0.5684810000000 1.0
C      1  0.5154540000000  0.5146590000000  0.5248350000000 1.0
C      1  0.4794690000000  0.5134280000000  0.5568070000000 1.0
C      1  0.5286680000000  0.5273720000000  0.4564280000000 1.0
C      1  0.5544170000000  0.5531740000000  0.5463480000000 1.0
C      1  0.5860670000000  0.4984890000000  0.5097250000000 1.0
C      1  0.5112390000000  0.5667260000000  0.5333400000000 1.0
C      1  0.5240480000000  0.4296680000000  0.4568460000000 1.0
END
