TITL C-3909641-6767-21 3.6036619907074 125000 -28907.7537375965 0 0 191 (C1) n - 1
REM
REM in /home/nfs/bkarasulu/CARBON/AIRSS/Generating-Clusters/ReaxFF-fromJPCA2015/Units_Real/with-SteepDescent/Only-C1/SD-CG/Try1-3A/FIRE-CG
REM
REM
REM
REM
REM
REM ./C.cell (11c1c37f851c82e70ff6c80c92926a4b)
REM
REM compiler GCC version 9.2.1 20190827 (Red Hat 9.2.1-1)
REM options -cpp -mtune=generic -march=x86-64 -g -O0 -fpre-include=/usr/include/finclude/math-vector-fortran.h
REM seed 1756658869 -1106447254 1477951656 1615069959 1925950414 2060112309 1801227638 1131944282 131165661 680195536 -2058025107 -1187448335 -1024310130 787498953 188824565 -1009364844 -1906055703 -2064263924 627253737 826065902 689905940 -2060092698 -341449628 1149131457 1864293233 428250355 1318532261 -289824727 -1859555835 -177090002 -1019941055 -1956109088 -2047918980
REM
CELL 1.54180   50.00000   50.00000   50.00000   90.00000   90.00000   90.00000
LATT -1
SFAC C  
C      1  0.5337780000000  0.4732580000000  0.5579610000000 1.0
C      1  0.6012070000000  0.4989860000000  0.4502480000000 1.0
C      1  0.4472180000000  0.4443100000000  0.4841690000000 1.0
C      1  0.4477000000000  0.4899130000000  0.6092080000000 1.0
C      1  0.4552500000000  0.4574340000000  0.4581110000000 1.0
C      1  0.4724820000000  0.5222710000000  0.4835720000000 1.0
C      1  0.4146460000000  0.4570900000000  0.4156980000000 1.0
C      1  0.6162050000000  0.5124710000000  0.5241150000000 1.0
C      1  0.5675180000000  0.4906950000000  0.5274060000000 1.0
C      1  0.4808450000000  0.4930690000000  0.4528910000000 1.0
C      1  0.4570160000000  0.4125110000000  0.4433710000000 1.0
C      1  0.5112720000000  0.6147150000000  0.4700070000000 1.0
C      1  0.5719940000000  0.4849720000000  0.4994110000000 1.0
C      1  0.5716400000000  0.5612450000000  0.5559830000000 1.0
C      1  0.4612800000000  0.5427290000000  0.3946400000000 1.0
C      1  0.5516180000000  0.5639830000000  0.4415360000000 1.0
C      1  0.4886790000000  0.4797060000000  0.3885680000000 1.0
C      1  0.5223670000000  0.4768100000000  0.5136160000000 1.0
C      1  0.4628260000000  0.4670110000000  0.3952480000000 1.0
C      1  0.5786750000000  0.4707630000000  0.5713180000000 1.0
C      1  0.5343470000000  0.5776470000000  0.5854240000000 1.0
C      1  0.3904920000000  0.4699550000000  0.4280300000000 1.0
C      1  0.4285450000000  0.4181790000000  0.4521500000000 1.0
C      1  0.4210290000000  0.5222340000000  0.4992960000000 1.0
C      1  0.5939220000000  0.5174400000000  0.5742690000000 1.0
C      1  0.5369530000000  0.5634650000000  0.5103880000000 1.0
C      1  0.4771910000000  0.5208600000000  0.4064880000000 1.0
C      1  0.4896160000000  0.5742920000000  0.4977960000000 1.0
C      1  0.5502130000000  0.4551440000000  0.4577600000000 1.0
C      1  0.5109390000000  0.4173340000000  0.4278910000000 1.0
C      1  0.4346240000000  0.5496850000000  0.5432010000000 1.0
C      1  0.5082810000000  0.5912650000000  0.5891470000000 1.0
C      1  0.4799650000000  0.5398110000000  0.4599640000000 1.0
C      1  0.5617720000000  0.5004930000000  0.4175280000000 1.0
C      1  0.5518070000000  0.4567200000000  0.5744000000000 1.0
C      1  0.5323600000000  0.4045020000000  0.4782470000000 1.0
C      1  0.5553020000000  0.5834130000000  0.4628770000000 1.0
C      1  0.5535270000000  0.4295310000000  0.5567980000000 1.0
C      1  0.6010110000000  0.4704970000000  0.4428140000000 1.0
C      1  0.4996700000000  0.5622840000000  0.4718450000000 1.0
C      1  0.4375690000000  0.5146820000000  0.5973380000000 1.0
C      1  0.4167970000000  0.5133920000000  0.4343340000000 1.0
C      1  0.4524440000000  0.5476290000000  0.4600220000000 1.0
C      1  0.5399950000000  0.4892070000000  0.5353370000000 1.0
C      1  0.4300150000000  0.5027820000000  0.4085760000000 1.0
C      1  0.5506140000000  0.4471230000000  0.4833460000000 1.0
C      1  0.5824100000000  0.5548770000000  0.5258170000000 1.0
C      1  0.5841900000000  0.4490870000000  0.4331750000000 1.0
C      1  0.5751800000000  0.4564190000000  0.4942270000000 1.0
C      1  0.5058660000000  0.4273560000000  0.5860400000000 1.0
C      1  0.5910710000000  0.4147450000000  0.4919520000000 1.0
C      1  0.5310630000000  0.4881080000000  0.6094440000000 1.0
C      1  0.6059650000000  0.5143530000000  0.5495480000000 1.0
C      1  0.5569920000000  0.5339850000000  0.5967450000000 1.0
C      1  0.4306020000000  0.4404920000000  0.5504840000000 1.0
C      1  0.4870270000000  0.5681940000000  0.4127210000000 1.0
C      1  0.4788090000000  0.5165100000000  0.5673980000000 1.0
C      1  0.5002080000000  0.4892550000000  0.6107340000000 1.0
C      1  0.4041020000000  0.5462000000000  0.4619790000000 1.0
C      1  0.5024400000000  0.5845820000000  0.4309580000000 1.0
C      1  0.5340910000000  0.5515630000000  0.5987160000000 1.0
C      1  0.4745660000000  0.3845900000000  0.4689790000000 1.0
C      1  0.4164100000000  0.4678990000000  0.5424280000000 1.0
C      1  0.3968410000000  0.5395140000000  0.4880410000000 1.0
C      1  0.4441290000000  0.5002060000000  0.5356500000000 1.0
C      1  0.3934950000000  0.5536250000000  0.5142360000000 1.0
C      1  0.5123270000000  0.5528030000000  0.4048200000000 1.0
C      1  0.5504350000000  0.5802960000000  0.5608930000000 1.0
C      1  0.5732710000000  0.4698350000000  0.4521420000000 1.0
C      1  0.5126890000000  0.5006260000000  0.4974150000000 1.0
C      1  0.5304680000000  0.4125500000000  0.5532400000000 1.0
C      1  0.4437970000000  0.5786020000000  0.5369530000000 1.0
C      1  0.5180870000000  0.5257490000000  0.3944290000000 1.0
C      1  0.5353480000000  0.4990350000000  0.4608380000000 1.0
C      1  0.5173110000000  0.5426150000000  0.4762020000000 1.0
C      1  0.4576510000000  0.4393320000000  0.5373930000000 1.0
C      1  0.4706190000000  0.4423320000000  0.4081000000000 1.0
C      1  0.4961830000000  0.5078590000000  0.3871520000000 1.0
C      1  0.4547770000000  0.4840240000000  0.4525700000000 1.0
C      1  0.5269000000000  0.5675090000000  0.4255920000000 1.0
C      1  0.5794890000000  0.5147570000000  0.4358370000000 1.0
C      1  0.4445110000000  0.5754480000000  0.4550960000000 1.0
C      1  0.5077880000000  0.5172490000000  0.5713900000000 1.0
C      1  0.5742270000000  0.4302000000000  0.5372200000000 1.0
C      1  0.5738650000000  0.5432590000000  0.4431670000000 1.0
C      1  0.5778010000000  0.4953640000000  0.5866920000000 1.0
C      1  0.5099610000000  0.5352350000000  0.5948590000000 1.0
C      1  0.5365050000000  0.5161640000000  0.4158430000000 1.0
C      1  0.4760740000000  0.4767430000000  0.5105110000000 1.0
C      1  0.6098180000000  0.5031520000000  0.4784550000000 1.0
C      1  0.5530600000000  0.5880550000000  0.5139620000000 1.0
C      1  0.4629190000000  0.5284510000000  0.6095280000000 1.0
C      1  0.4612710000000  0.4405900000000  0.4364170000000 1.0
C      1  0.4369220000000  0.4467070000000  0.5805940000000 1.0
C      1  0.4851010000000  0.4692880000000  0.5673620000000 1.0
C      1  0.5797070000000  0.5789770000000  0.5070470000000 1.0
C      1  0.5241690000000  0.4037970000000  0.5263740000000 1.0
C      1  0.5909310000000  0.5526430000000  0.4645440000000 1.0
C      1  0.6140910000000  0.4888230000000  0.5031920000000 1.0
C      1  0.5187520000000  0.5233950000000  0.5439570000000 1.0
C      1  0.4792490000000  0.5267290000000  0.5118940000000 1.0
C      1  0.4123850000000  0.5388450000000  0.5597390000000 1.0
C      1  0.5221200000000  0.6142360000000  0.4975120000000 1.0
C      1  0.4782910000000  0.5438790000000  0.5562340000000 1.0
C      1  0.5634160000000  0.5003590000000  0.4764930000000 1.0
C      1  0.4983690000000  0.4686980000000  0.5286800000000 1.0
C      1  0.5521030000000  0.4721100000000  0.4132360000000 1.0
C      1  0.5437800000000  0.4035700000000  0.5050420000000 1.0
C      1  0.4587490000000  0.4181780000000  0.4915620000000 1.0
C      1  0.4534050000000  0.4580350000000  0.5128890000000 1.0
C      1  0.6056460000000  0.5379490000000  0.5151580000000 1.0
C      1  0.5007590000000  0.4141730000000  0.5629430000000 1.0
C      1  0.5385930000000  0.6056760000000  0.4739460000000 1.0
C      1  0.4741010000000  0.5026340000000  0.6167990000000 1.0
C      1  0.5091790000000  0.4496210000000  0.4714060000000 1.0
C      1  0.4583610000000  0.3773200000000  0.4912830000000 1.0
C      1  0.5042730000000  0.5495020000000  0.5433570000000 1.0
C      1  0.3901340000000  0.4473760000000  0.4486560000000 1.0
C      1  0.5029380000000  0.6058390000000  0.5656100000000 1.0
C      1  0.5085090000000  0.5645020000000  0.5182640000000 1.0
C      1  0.5254650000000  0.4536320000000  0.4943950000000 1.0
C      1  0.4381460000000  0.5865190000000  0.5091090000000 1.0
C      1  0.4862460000000  0.4935370000000  0.4816410000000 1.0
C      1  0.4497160000000  0.5180440000000  0.3950620000000 1.0
C      1  0.5076400000000  0.4649800000000  0.5535090000000 1.0
C      1  0.4319340000000  0.4775650000000  0.5190660000000 1.0
C      1  0.5082320000000  0.4600290000000  0.3992190000000 1.0
C      1  0.4917690000000  0.4655540000000  0.5966490000000 1.0
C      1  0.4647390000000  0.5887240000000  0.4936270000000 1.0
C      1  0.5570830000000  0.5423900000000  0.5104430000000 1.0
C      1  0.3875030000000  0.5058440000000  0.5391280000000 1.0
C      1  0.4202840000000  0.4328820000000  0.4757370000000 1.0
C      1  0.6006120000000  0.5318230000000  0.4861010000000 1.0
C      1  0.5847450000000  0.4770280000000  0.5451620000000 1.0
C      1  0.4065560000000  0.4914390000000  0.5571560000000 1.0
C      1  0.3948630000000  0.4762160000000  0.4926470000000 1.0
C      1  0.4676500000000  0.5024280000000  0.5207110000000 1.0
C      1  0.4141300000000  0.5718040000000  0.5074180000000 1.0
C      1  0.4673040000000  0.5904720000000  0.5491730000000 1.0
C      1  0.4693460000000  0.5695300000000  0.5697140000000 1.0
C      1  0.4438600000000  0.5243910000000  0.4757600000000 1.0
C      1  0.4192330000000  0.5136190000000  0.5742610000000 1.0
C      1  0.5172820000000  0.6086860000000  0.5263830000000 1.0
C      1  0.5767280000000  0.5424570000000  0.5765460000000 1.0
C      1  0.4795380000000  0.4203720000000  0.5422520000000 1.0
C      1  0.4851430000000  0.5473650000000  0.6053100000000 1.0
C      1  0.5208660000000  0.5139460000000  0.4395900000000 1.0
C      1  0.5796430000000  0.5759870000000  0.4777720000000 1.0
C      1  0.4146980000000  0.5461590000000  0.4369140000000 1.0
C      1  0.4869720000000  0.4153270000000  0.4947710000000 1.0
C      1  0.6111350000000  0.4609340000000  0.5134010000000 1.0
C      1  0.5545560000000  0.5050530000000  0.6009530000000 1.0
C      1  0.5128150000000  0.4457440000000  0.6057880000000 1.0
C      1  0.4908380000000  0.5170010000000  0.4389050000000 1.0
C      1  0.5374360000000  0.4614850000000  0.6021030000000 1.0
C      1  0.5388380000000  0.4214460000000  0.4311830000000 1.0
C      1  0.4858520000000  0.4049230000000  0.4486470000000 1.0
C      1  0.3971120000000  0.4496610000000  0.4768340000000 1.0
C      1  0.4958540000000  0.4102060000000  0.5207900000000 1.0
C      1  0.4838650000000  0.5744900000000  0.5945120000000 1.0
C      1  0.5058590000000  0.5180150000000  0.5182370000000 1.0
C      1  0.5583940000000  0.4434790000000  0.4209460000000 1.0
C      1  0.4434750000000  0.4019400000000  0.5105880000000 1.0
C      1  0.5419120000000  0.5987070000000  0.5386690000000 1.0
C      1  0.5733410000000  0.4073700000000  0.4711050000000 1.0
C      1  0.4986640000000  0.4329440000000  0.4072710000000 1.0
C      1  0.6007770000000  0.4432730000000  0.4928390000000 1.0
C      1  0.4338040000000  0.4999230000000  0.4613610000000 1.0
C      1  0.4913630000000  0.6000660000000  0.4535770000000 1.0
C      1  0.5248610000000  0.4662690000000  0.4520320000000 1.0
C      1  0.4645120000000  0.5951090000000  0.4653070000000 1.0
C      1  0.5709430000000  0.4124670000000  0.5136100000000 1.0
C      1  0.5244400000000  0.4704450000000  0.4209440000000 1.0
C      1  0.3927550000000  0.5354300000000  0.5382990000000 1.0
C      1  0.4580250000000  0.5642510000000  0.4106000000000 1.0
C      1  0.5280910000000  0.5188320000000  0.4819330000000 1.0
C      1  0.5940920000000  0.4532100000000  0.5371190000000 1.0
C      1  0.5499600000000  0.4050690000000  0.4553300000000 1.0
C      1  0.4348370000000  0.5668160000000  0.4287430000000 1.0
C      1  0.4195320000000  0.4924260000000  0.4905230000000 1.0
C      1  0.3900620000000  0.4987970000000  0.4338140000000 1.0
C      1  0.3881010000000  0.4860260000000  0.5187720000000 1.0
C      1  0.5678910000000  0.5264090000000  0.4889210000000 1.0
C      1  0.4906390000000  0.6092710000000  0.5416170000000 1.0
C      1  0.4643670000000  0.4906330000000  0.5630130000000 1.0
C      1  0.4112710000000  0.4333960000000  0.4336880000000 1.0
C      1  0.4473950000000  0.4731080000000  0.5847910000000 1.0
C      1  0.4300720000000  0.4096640000000  0.5331860000000 1.0
C      1  0.5049360000000  0.4197940000000  0.4722180000000 1.0
C      1  0.4340610000000  0.5266790000000  0.5260390000000 1.0
C      1  0.4354910000000  0.4747230000000  0.4044610000000 1.0
END
