TITL C-3909642-4437-22 25.9547119767002 125000 -27013.1993428011 0 0 182 (C1) n - 1
REM
REM in /home/nfs/bkarasulu/CARBON/AIRSS/Generating-Clusters/ReaxFF-fromJPCA2015/Units_Real/with-SteepDescent/Only-C1/SD-CG/Try1-3A/FIRE-CG
REM
REM
REM
REM
REM
REM ./C.cell (11c1c37f851c82e70ff6c80c92926a4b)
REM
REM compiler GCC version 9.2.1 20190827 (Red Hat 9.2.1-1)
REM options -cpp -mtune=generic -march=x86-64 -g -O0 -fpre-include=/usr/include/finclude/math-vector-fortran.h
REM seed -291913609 -937115745 1543442659 -2046532306 -522279763 2085600796 -1962866387 2017753876 1081786328 186484398 -1756112504 -1437744096 1991661345 -571297928 1343439612 851516077 99120604 -131255482 222829071 -885033288 -1638136272 1230429003 -1628142337 -787094073 -395657114 1684454359 -1521961173 -480377200 1906103152 359042752 -585658934 -313685572 62381182
REM
CELL 1.54180   50.00000   50.00000   50.00000   90.00000   90.00000   90.00000
LATT -1
SFAC C  
C      1  0.4753340000000  0.4327190000000  0.5793860000000 1.0
C      1  0.4422090000000  0.4614430000000  0.4619050000000 1.0
C      1  0.4535780000000  0.5167430000000  0.6154530000000 1.0
C      1  0.5454570000000  0.5254430000000  0.6081290000000 1.0
C      1  0.5927490000000  0.5428250000000  0.4597340000000 1.0
C      1  0.4931140000000  0.4595140000000  0.4056270000000 1.0
C      1  0.4307900000000  0.5494020000000  0.5548380000000 1.0
C      1  0.5452700000000  0.4033560000000  0.5411460000000 1.0
C      1  0.5432080000000  0.4712120000000  0.4562710000000 1.0
C      1  0.4769070000000  0.5460840000000  0.4458820000000 1.0
C      1  0.4820160000000  0.5407540000000  0.4006440000000 1.0
C      1  0.5313260000000  0.4012260000000  0.4430420000000 1.0
C      1  0.5487490000000  0.5951510000000  0.5481200000000 1.0
C      1  0.6012600000000  0.4506250000000  0.5259370000000 1.0
C      1  0.6085660000000  0.4905300000000  0.4891060000000 1.0
C      1  0.5656680000000  0.5853680000000  0.4500080000000 1.0
C      1  0.4529240000000  0.4857650000000  0.4507520000000 1.0
C      1  0.5094010000000  0.4106130000000  0.4281390000000 1.0
C      1  0.4587060000000  0.4680310000000  0.5964560000000 1.0
C      1  0.5290220000000  0.4533980000000  0.5026100000000 1.0
C      1  0.5958160000000  0.4642060000000  0.4955200000000 1.0
C      1  0.5248730000000  0.4043720000000  0.4894280000000 1.0
C      1  0.5766740000000  0.5597080000000  0.4418210000000 1.0
C      1  0.4062900000000  0.5166190000000  0.5226760000000 1.0
C      1  0.4795010000000  0.5856780000000  0.5036640000000 1.0
C      1  0.5189240000000  0.5239240000000  0.3980680000000 1.0
C      1  0.5205150000000  0.5994000000000  0.5576640000000 1.0
C      1  0.5622720000000  0.5894950000000  0.4789340000000 1.0
C      1  0.5671960000000  0.4715320000000  0.5037860000000 1.0
C      1  0.4817820000000  0.4957430000000  0.5308410000000 1.0
C      1  0.5281480000000  0.5287430000000  0.4468880000000 1.0
C      1  0.5065140000000  0.4126480000000  0.5968020000000 1.0
C      1  0.4168280000000  0.4890060000000  0.4247000000000 1.0
C      1  0.4193410000000  0.4207900000000  0.5436580000000 1.0
C      1  0.5078310000000  0.4546810000000  0.5463700000000 1.0
C      1  0.3923630000000  0.4358280000000  0.5032860000000 1.0
C      1  0.4380980000000  0.4755230000000  0.4095710000000 1.0
C      1  0.5137680000000  0.5906460000000  0.4333310000000 1.0
C      1  0.5115480000000  0.4865090000000  0.6083260000000 1.0
C      1  0.5866000000000  0.4258590000000  0.5328650000000 1.0
C      1  0.4638150000000  0.6057720000000  0.4710740000000 1.0
C      1  0.4292940000000  0.4478030000000  0.5567430000000 1.0
C      1  0.4305310000000  0.5468220000000  0.4196590000000 1.0
C      1  0.4325540000000  0.4752260000000  0.4872540000000 1.0
C      1  0.5693120000000  0.5685430000000  0.4968340000000 1.0
C      1  0.5912890000000  0.4694560000000  0.4486750000000 1.0
C      1  0.4003080000000  0.4833240000000  0.4930670000000 1.0
C      1  0.5084170000000  0.4706920000000  0.4950310000000 1.0
C      1  0.5684570000000  0.4341960000000  0.4718720000000 1.0
C      1  0.4965700000000  0.5355720000000  0.5106170000000 1.0
C      1  0.5168060000000  0.5675200000000  0.5296490000000 1.0
C      1  0.5654970000000  0.4707350000000  0.4319450000000 1.0
C      1  0.4033560000000  0.4867330000000  0.5238730000000 1.0
C      1  0.4537650000000  0.5372440000000  0.5226380000000 1.0
C      1  0.5455060000000  0.5964680000000  0.4290510000000 1.0
C      1  0.4633400000000  0.4582000000000  0.4090690000000 1.0
C      1  0.6023030000000  0.4935150000000  0.4603750000000 1.0
C      1  0.5651590000000  0.5156640000000  0.5880680000000 1.0
C      1  0.5639960000000  0.5653460000000  0.5454280000000 1.0
C      1  0.4895610000000  0.4544160000000  0.4848290000000 1.0
C      1  0.4870710000000  0.5872530000000  0.4235720000000 1.0
C      1  0.4397690000000  0.5613920000000  0.4683240000000 1.0
C      1  0.3829570000000  0.4560960000000  0.4869700000000 1.0
C      1  0.4985070000000  0.5897360000000  0.5402110000000 1.0
C      1  0.4428390000000  0.4899060000000  0.6094760000000 1.0
C      1  0.5468070000000  0.4012480000000  0.5120490000000 1.0
C      1  0.4529760000000  0.5384790000000  0.4035350000000 1.0
C      1  0.5386440000000  0.5428320000000  0.4879950000000 1.0
C      1  0.4621320000000  0.5690640000000  0.4543240000000 1.0
C      1  0.4809460000000  0.4319420000000  0.5016310000000 1.0
C      1  0.5085060000000  0.5839630000000  0.5793020000000 1.0
C      1  0.4871900000000  0.3943210000000  0.5185490000000 1.0
C      1  0.5605080000000  0.4455610000000  0.5671780000000 1.0
C      1  0.4921720000000  0.4572310000000  0.4565640000000 1.0
C      1  0.5169680000000  0.4731520000000  0.3947060000000 1.0
C      1  0.4243960000000  0.5017960000000  0.5904160000000 1.0
C      1  0.4558710000000  0.4417500000000  0.5145280000000 1.0
C      1  0.5235820000000  0.5098690000000  0.6209040000000 1.0
C      1  0.4674320000000  0.5529260000000  0.5882230000000 1.0
C      1  0.5166170000000  0.6036810000000  0.4798620000000 1.0
C      1  0.5754140000000  0.5321520000000  0.5668470000000 1.0
C      1  0.4412100000000  0.5480140000000  0.5813190000000 1.0
C      1  0.4160900000000  0.4608220000000  0.4238340000000 1.0
C      1  0.5018140000000  0.4375040000000  0.5960020000000 1.0
C      1  0.4103970000000  0.5419980000000  0.4400050000000 1.0
C      1  0.5501720000000  0.4620040000000  0.5895770000000 1.0
C      1  0.5952450000000  0.5178070000000  0.4455240000000 1.0
C      1  0.5087910000000  0.5026880000000  0.5647930000000 1.0
C      1  0.5776940000000  0.4162760000000  0.4888390000000 1.0
C      1  0.5611890000000  0.4861290000000  0.5528320000000 1.0
C      1  0.4905850000000  0.4897030000000  0.5037920000000 1.0
C      1  0.5268250000000  0.5541280000000  0.4641460000000 1.0
C      1  0.4237450000000  0.4438880000000  0.4472030000000 1.0
C      1  0.4795120000000  0.4822410000000  0.4435820000000 1.0
C      1  0.4803360000000  0.5748210000000  0.5742690000000 1.0
C      1  0.4397330000000  0.5134810000000  0.4528520000000 1.0
C      1  0.4858870000000  0.5242390000000  0.4649190000000 1.0
C      1  0.4513430000000  0.5894960000000  0.4948130000000 1.0
C      1  0.5852330000000  0.5440000000000  0.5435590000000 1.0
C      1  0.5335800000000  0.4974940000000  0.4003810000000 1.0
C      1  0.5277870000000  0.5205110000000  0.5515360000000 1.0
C      1  0.6053530000000  0.5036240000000  0.5149280000000 1.0
C      1  0.4528640000000  0.5299180000000  0.4307870000000 1.0
C      1  0.5163940000000  0.5806220000000  0.4608320000000 1.0
C      1  0.4721390000000  0.5800120000000  0.5475490000000 1.0
C      1  0.5219580000000  0.5486090000000  0.5534460000000 1.0
C      1  0.4724410000000  0.4370240000000  0.4495070000000 1.0
C      1  0.5310600000000  0.5003400000000  0.4928600000000 1.0
C      1  0.5767720000000  0.5172430000000  0.4217530000000 1.0
C      1  0.4777940000000  0.3939870000000  0.4680200000000 1.0
C      1  0.4421360000000  0.5336750000000  0.4760040000000 1.0
C      1  0.5598740000000  0.5253360000000  0.4777300000000 1.0
C      1  0.5046800000000  0.5127660000000  0.4488140000000 1.0
C      1  0.5325620000000  0.4196900000000  0.4643950000000 1.0
C      1  0.5129400000000  0.4410220000000  0.4211160000000 1.0
C      1  0.5619120000000  0.4873920000000  0.5804810000000 1.0
C      1  0.4395190000000  0.5237650000000  0.5022470000000 1.0
C      1  0.6059200000000  0.4775100000000  0.5332970000000 1.0
C      1  0.4884640000000  0.6083900000000  0.4872360000000 1.0
C      1  0.5268240000000  0.5466670000000  0.6036050000000 1.0
C      1  0.4491840000000  0.4990780000000  0.4956730000000 1.0
C      1  0.5210210000000  0.5252080000000  0.5014930000000 1.0
C      1  0.4461040000000  0.5646030000000  0.5332280000000 1.0
C      1  0.5514250000000  0.4561800000000  0.4841580000000 1.0
C      1  0.5354290000000  0.5373400000000  0.4185900000000 1.0
C      1  0.4785900000000  0.5245520000000  0.5291930000000 1.0
C      1  0.5418150000000  0.6064170000000  0.4941870000000 1.0
C      1  0.5761010000000  0.4096340000000  0.5112330000000 1.0
C      1  0.4862530000000  0.4109600000000  0.4459650000000 1.0
C      1  0.5233790000000  0.4500680000000  0.4507320000000 1.0
C      1  0.4944650000000  0.5001090000000  0.4270980000000 1.0
C      1  0.4492340000000  0.4447170000000  0.5817830000000 1.0
C      1  0.5938680000000  0.5295510000000  0.5175670000000 1.0
C      1  0.4663920000000  0.5952230000000  0.4437750000000 1.0
C      1  0.4286020000000  0.4975400000000  0.5598050000000 1.0
C      1  0.5429870000000  0.6062140000000  0.5230640000000 1.0
C      1  0.4755430000000  0.5050400000000  0.4840500000000 1.0
C      1  0.5610810000000  0.4481740000000  0.4097090000000 1.0
C      1  0.4371180000000  0.4182060000000  0.4409460000000 1.0
C      1  0.5673750000000  0.4202810000000  0.5540910000000 1.0
C      1  0.4789110000000  0.5300610000000  0.6042490000000 1.0
C      1  0.4419300000000  0.4578680000000  0.5040700000000 1.0
C      1  0.5438360000000  0.5033700000000  0.4667740000000 1.0
C      1  0.4905210000000  0.5582620000000  0.4219110000000 1.0
C      1  0.4983170000000  0.3933920000000  0.4912290000000 1.0
C      1  0.4356200000000  0.4003140000000  0.5344560000000 1.0
C      1  0.5227910000000  0.5595850000000  0.5794120000000 1.0
C      1  0.4563900000000  0.4541340000000  0.5419500000000 1.0
C      1  0.5032440000000  0.4827220000000  0.5455920000000 1.0
C      1  0.4076190000000  0.5591770000000  0.4918780000000 1.0
C      1  0.4321470000000  0.5284870000000  0.5994360000000 1.0
C      1  0.4598470000000  0.4838310000000  0.5517750000000 1.0
C      1  0.4586220000000  0.3855830000000  0.5272070000000 1.0
C      1  0.5578760000000  0.4603810000000  0.5419410000000 1.0
C      1  0.3980140000000  0.5089970000000  0.4772080000000 1.0
C      1  0.4085980000000  0.5127690000000  0.4480460000000 1.0
C      1  0.5496200000000  0.5061320000000  0.5373120000000 1.0
C      1  0.5608850000000  0.5970470000000  0.4092440000000 1.0
C      1  0.5513640000000  0.5654130000000  0.5196440000000 1.0
C      1  0.4929970000000  0.5014980000000  0.5884070000000 1.0
C      1  0.4304200000000  0.5730320000000  0.5061560000000 1.0
C      1  0.5922020000000  0.4485870000000  0.4681230000000 1.0
C      1  0.5320600000000  0.4505220000000  0.5304020000000 1.0
C      1  0.4147160000000  0.4741870000000  0.5469710000000 1.0
C      1  0.4578400000000  0.4338210000000  0.4242630000000 1.0
C      1  0.4929250000000  0.4216300000000  0.5262210000000 1.0
C      1  0.5058360000000  0.5331320000000  0.6174980000000 1.0
C      1  0.4916400000000  0.5149790000000  0.4024080000000 1.0
C      1  0.5590830000000  0.4956330000000  0.4143930000000 1.0
C      1  0.5518640000000  0.4947110000000  0.5111790000000 1.0
C      1  0.3993160000000  0.5304130000000  0.4961850000000 1.0
C      1  0.5230150000000  0.4615980000000  0.6003270000000 1.0
C      1  0.5639070000000  0.5432700000000  0.4200910000000 1.0
C      1  0.4044450000000  0.4215540000000  0.5206670000000 1.0
C      1  0.4192620000000  0.5241070000000  0.5474950000000 1.0
C      1  0.4842900000000  0.4375030000000  0.5495000000000 1.0
C      1  0.4108910000000  0.5613690000000  0.4622790000000 1.0
C      1  0.4493060000000  0.4007340000000  0.4623760000000 1.0
C      1  0.4747250000000  0.4833970000000  0.5768690000000 1.0
C      1  0.5345300000000  0.4488330000000  0.3994230000000 1.0
C      1  0.4977680000000  0.5638540000000  0.5081210000000 1.0
C      1  0.5837900000000  0.5414710000000  0.4902870000000 1.0
END
