TITL C-3909780-8184-9 10.9079269037427 125000 -21665.6857955342 0 0 144 (C1) n - 1
REM
REM in /home/nfs/bkarasulu/CARBON/AIRSS/Generating-Clusters/ReaxFF-fromJPCA2015/Units_Real/with-SteepDescent/Only-C1/SD-CG/Try1-3A/FIRE-CG
REM
REM
REM
REM
REM
REM ./C.cell (11c1c37f851c82e70ff6c80c92926a4b)
REM
REM compiler GCC version 9.2.1 20190827 (Red Hat 9.2.1-1)
REM options -cpp -mtune=generic -march=x86-64 -g -O0 -fpre-include=/usr/include/finclude/math-vector-fortran.h
REM seed 767517280 132729019 -1019848961 -288029895 -354379569 -1000721858 -1859495364 1116243080 -1796740137 -53746253 1644693194 721133793 1709571687 -1744763627 -145870162 -464487186 -1034592891 468193335 1245701314 -793619983 2138656037 972443972 -589438520 1660452137 -660644918 1123451894 1153624003 74438171 269055683 -355336485 -937623508 -646937828 46807635
REM
CELL 1.54180   50.00000   50.00000   50.00000   90.00000   90.00000   90.00000
LATT -1
SFAC C  
C      1  0.5216530000000  0.4685800000000  0.4917070000000 1.0
C      1  0.5506420000000  0.5250890000000  0.4153740000000 1.0
C      1  0.4632630000000  0.5000700000000  0.5366380000000 1.0
C      1  0.4893130000000  0.5600170000000  0.5190950000000 1.0
C      1  0.4362570000000  0.4358890000000  0.4982380000000 1.0
C      1  0.4728980000000  0.4445360000000  0.5695350000000 1.0
C      1  0.5246140000000  0.5185490000000  0.5929170000000 1.0
C      1  0.5680660000000  0.4696340000000  0.4753650000000 1.0
C      1  0.4823920000000  0.5037160000000  0.4539830000000 1.0
C      1  0.5344820000000  0.5434600000000  0.4579620000000 1.0
C      1  0.4893990000000  0.4929900000000  0.5253190000000 1.0
C      1  0.5746650000000  0.4286370000000  0.4645700000000 1.0
C      1  0.5132940000000  0.5822060000000  0.4746710000000 1.0
C      1  0.4136410000000  0.5520570000000  0.5099450000000 1.0
C      1  0.5384390000000  0.4397540000000  0.4527350000000 1.0
C      1  0.4851860000000  0.4765420000000  0.4594670000000 1.0
C      1  0.4170110000000  0.4842030000000  0.5466770000000 1.0
C      1  0.4798060000000  0.5314080000000  0.4853210000000 1.0
C      1  0.4059710000000  0.5324960000000  0.4647400000000 1.0
C      1  0.5629700000000  0.4241820000000  0.5354440000000 1.0
C      1  0.4605090000000  0.5894140000000  0.5311580000000 1.0
C      1  0.5086340000000  0.5263680000000  0.4122430000000 1.0
C      1  0.4988440000000  0.4450880000000  0.5837040000000 1.0
C      1  0.4765700000000  0.4285930000000  0.4450260000000 1.0
C      1  0.5880070000000  0.4917580000000  0.4769640000000 1.0
C      1  0.5488490000000  0.5058650000000  0.5828060000000 1.0
C      1  0.4935990000000  0.4841390000000  0.3948500000000 1.0
C      1  0.5180740000000  0.4180900000000  0.5507230000000 1.0
C      1  0.4641710000000  0.5458410000000  0.5060870000000 1.0
C      1  0.5949180000000  0.5384950000000  0.4619630000000 1.0
C      1  0.4704550000000  0.5122060000000  0.4312080000000 1.0
C      1  0.4359550000000  0.5027550000000  0.5053810000000 1.0
C      1  0.4940840000000  0.4850500000000  0.5750700000000 1.0
C      1  0.5191770000000  0.3990090000000  0.5282310000000 1.0
C      1  0.5330630000000  0.5136490000000  0.4967500000000 1.0
C      1  0.4641200000000  0.5130420000000  0.4702860000000 1.0
C      1  0.4468100000000  0.4811180000000  0.5496600000000 1.0
C      1  0.5444240000000  0.5553880000000  0.4179580000000 1.0
C      1  0.4224590000000  0.4762230000000  0.4660040000000 1.0
C      1  0.4625960000000  0.5512010000000  0.5790680000000 1.0
C      1  0.5123660000000  0.5483170000000  0.5785300000000 1.0
C      1  0.4110310000000  0.4943490000000  0.5140650000000 1.0
C      1  0.4904260000000  0.3975660000000  0.5190390000000 1.0
C      1  0.4037570000000  0.5033480000000  0.4687730000000 1.0
C      1  0.5285150000000  0.4345510000000  0.4270700000000 1.0
C      1  0.4381570000000  0.4638730000000  0.4443380000000 1.0
C      1  0.4124290000000  0.5070160000000  0.5692340000000 1.0
C      1  0.3951800000000  0.5371250000000  0.4920990000000 1.0
C      1  0.4995380000000  0.5551630000000  0.4064260000000 1.0
C      1  0.5402100000000  0.4019530000000  0.5071720000000 1.0
C      1  0.4990360000000  0.4326180000000  0.4298330000000 1.0
C      1  0.5335550000000  0.5648150000000  0.5649430000000 1.0
C      1  0.5811660000000  0.5111750000000  0.5226400000000 1.0
C      1  0.5594970000000  0.5092960000000  0.4388630000000 1.0
C      1  0.5032520000000  0.5359460000000  0.5297950000000 1.0
C      1  0.4764360000000  0.5023830000000  0.5899370000000 1.0
C      1  0.4707630000000  0.5554130000000  0.4109550000000 1.0
C      1  0.5189100000000  0.5832100000000  0.5475550000000 1.0
C      1  0.4899310000000  0.4689250000000  0.5054750000000 1.0
C      1  0.5252840000000  0.4665800000000  0.5407500000000 1.0
C      1  0.5577740000000  0.4773030000000  0.5787980000000 1.0
C      1  0.4746110000000  0.4705030000000  0.4118610000000 1.0
C      1  0.4871310000000  0.4424980000000  0.5180840000000 1.0
C      1  0.5228510000000  0.4749080000000  0.4342740000000 1.0
C      1  0.4458140000000  0.5746070000000  0.5482610000000 1.0
C      1  0.4274180000000  0.5541130000000  0.4670530000000 1.0
C      1  0.4697640000000  0.5643420000000  0.4410110000000 1.0
C      1  0.5246000000000  0.4339260000000  0.5751160000000 1.0
C      1  0.5050600000000  0.4855740000000  0.5490520000000 1.0
C      1  0.4166520000000  0.4550100000000  0.4869780000000 1.0
C      1  0.5505430000000  0.5025850000000  0.5178880000000 1.0
C      1  0.4219930000000  0.5364990000000  0.5326950000000 1.0
C      1  0.4708090000000  0.4011620000000  0.5394460000000 1.0
C      1  0.4947830000000  0.4635940000000  0.4357860000000 1.0
C      1  0.4685090000000  0.5938990000000  0.4785850000000 1.0
C      1  0.5539730000000  0.5623000000000  0.4444230000000 1.0
C      1  0.4838170000000  0.4185420000000  0.4959940000000 1.0
C      1  0.4863780000000  0.5662910000000  0.5729900000000 1.0
C      1  0.4159180000000  0.4546110000000  0.5368360000000 1.0
C      1  0.5793270000000  0.4526880000000  0.4499540000000 1.0
C      1  0.5740210000000  0.5613210000000  0.5352620000000 1.0
C      1  0.4769590000000  0.5256480000000  0.5730290000000 1.0
C      1  0.5238910000000  0.4819260000000  0.3940950000000 1.0
C      1  0.4646440000000  0.4323940000000  0.5419940000000 1.0
C      1  0.5589190000000  0.5518810000000  0.5593060000000 1.0
C      1  0.5083800000000  0.4193180000000  0.4789510000000 1.0
C      1  0.5394570000000  0.4764070000000  0.5175920000000 1.0
C      1  0.5896280000000  0.5429900000000  0.5185400000000 1.0
C      1  0.5304300000000  0.5860740000000  0.5211380000000 1.0
C      1  0.5824020000000  0.5127200000000  0.4570620000000 1.0
C      1  0.4380940000000  0.4382510000000  0.5279160000000 1.0
C      1  0.5486750000000  0.4151210000000  0.4569990000000 1.0
C      1  0.5837390000000  0.5079440000000  0.5527620000000 1.0
C      1  0.3912330000000  0.5078760000000  0.4943610000000 1.0
C      1  0.5615570000000  0.5605180000000  0.4929040000000 1.0
C      1  0.5098940000000  0.5775040000000  0.5018840000000 1.0
C      1  0.4378220000000  0.5652960000000  0.4434510000000 1.0
C      1  0.5316540000000  0.5101060000000  0.3999660000000 1.0
C      1  0.5908830000000  0.4626750000000  0.5144060000000 1.0
C      1  0.4504570000000  0.5341250000000  0.4045050000000 1.0
C      1  0.5159360000000  0.4954420000000  0.6081950000000 1.0
C      1  0.4866390000000  0.5092240000000  0.4067060000000 1.0
C      1  0.4486430000000  0.5207920000000  0.5215860000000 1.0
C      1  0.4350920000000  0.5573280000000  0.5676750000000 1.0
C      1  0.5416950000000  0.5407460000000  0.4848900000000 1.0
C      1  0.4540820000000  0.4656000000000  0.5747320000000 1.0
C      1  0.5027870000000  0.5281740000000  0.5584840000000 1.0
C      1  0.4493260000000  0.4919510000000  0.4837070000000 1.0
C      1  0.4524680000000  0.4373520000000  0.4539650000000 1.0
C      1  0.4720210000000  0.4714570000000  0.4841510000000 1.0
C      1  0.4566170000000  0.4256050000000  0.4805600000000 1.0
C      1  0.5324980000000  0.4030550000000  0.4788970000000 1.0
C      1  0.5090250000000  0.5311230000000  0.4463550000000 1.0
C      1  0.4538730000000  0.5896060000000  0.5018730000000 1.0
C      1  0.4156490000000  0.5352720000000  0.5606800000000 1.0
C      1  0.5020210000000  0.5174360000000  0.5076620000000 1.0
C      1  0.5660880000000  0.5248470000000  0.5680790000000 1.0
C      1  0.5949250000000  0.4898130000000  0.5050870000000 1.0
C      1  0.5706710000000  0.4377900000000  0.5580330000000 1.0
C      1  0.5128360000000  0.4405230000000  0.5331870000000 1.0
C      1  0.5763690000000  0.4460400000000  0.4942570000000 1.0
C      1  0.5189320000000  0.5699250000000  0.4218200000000 1.0
C      1  0.5816590000000  0.5625480000000  0.4540260000000 1.0
C      1  0.4301260000000  0.4977010000000  0.5875050000000 1.0
C      1  0.5870780000000  0.4580120000000  0.5435420000000 1.0
C      1  0.5622580000000  0.4217850000000  0.5106960000000 1.0
C      1  0.5089350000000  0.5858000000000  0.4475910000000 1.0
C      1  0.5577700000000  0.5771560000000  0.5161160000000 1.0
C      1  0.5384470000000  0.4868960000000  0.4772130000000 1.0
C      1  0.5005960000000  0.4700650000000  0.5995760000000 1.0
C      1  0.5337770000000  0.4602560000000  0.4119650000000 1.0
C      1  0.4389410000000  0.5625030000000  0.4961460000000 1.0
C      1  0.4804870000000  0.5926840000000  0.4528680000000 1.0
C      1  0.5206420000000  0.4447730000000  0.4742960000000 1.0
C      1  0.4527010000000  0.4857340000000  0.5973650000000 1.0
C      1  0.4049540000000  0.4642350000000  0.5115060000000 1.0
C      1  0.5813040000000  0.4805830000000  0.5615810000000 1.0
C      1  0.5876520000000  0.5582770000000  0.4817410000000 1.0
C      1  0.5494020000000  0.4496000000000  0.5762690000000 1.0
C      1  0.4875780000000  0.5456960000000  0.4584260000000 1.0
C      1  0.4480700000000  0.4786330000000  0.4214890000000 1.0
C      1  0.5380620000000  0.4929940000000  0.4499530000000 1.0
C      1  0.4436740000000  0.5091330000000  0.4194260000000 1.0
C      1  0.4885080000000  0.5798550000000  0.5465780000000 1.0
END
