TITL C-3909652-3393-10 -10.7843360994613 125000 -8256.8878005533 0 0 57 (C1) n - 1
REM
REM in /home/nfs/bkarasulu/CARBON/AIRSS/Generating-Clusters/ReaxFF-fromJPCA2015/Units_Real/with-SteepDescent/Only-C1/SD-CG/Try1-3A/FIRE-CG
REM
REM
REM
REM
REM
REM ./C.cell (11c1c37f851c82e70ff6c80c92926a4b)
REM
REM compiler GCC version 9.2.1 20190827 (Red Hat 9.2.1-1)
REM options -cpp -mtune=generic -march=x86-64 -g -O0 -fpre-include=/usr/include/finclude/math-vector-fortran.h
REM seed -2128833768 -1683516889 -2049256190 1363887883 1952468422 105426426 875156998 1639204012 897799829 678371004 -104074954 148912041 771233549 -1234437331 -1452812089 1836109562 -465255253 -1805801096 386387997 -1718099308 1180450687 -1674963016 -1598228574 -266330784 115078550 13660488 303521570 751826731 -1036806371 1837383607 1256778544 158475651 -359052349
REM
CELL 1.54180   50.00000   50.00000   50.00000   90.00000   90.00000   90.00000
LATT -1
SFAC C  
C      1  0.4879570000000  0.4208000000000  0.4823590000000 1.0
C      1  0.4531140000000  0.5313080000000  0.5101980000000 1.0
C      1  0.4821720000000  0.5425600000000  0.4635740000000 1.0
C      1  0.4800100000000  0.5622770000000  0.5424540000000 1.0
C      1  0.4508680000000  0.4675240000000  0.4648730000000 1.0
C      1  0.4576910000000  0.5279630000000  0.4605830000000 1.0
C      1  0.4721230000000  0.4576450000000  0.5465660000000 1.0
C      1  0.5178720000000  0.4278050000000  0.5256060000000 1.0
C      1  0.4551240000000  0.5690760000000  0.4840580000000 1.0
C      1  0.4653360000000  0.5039820000000  0.5457040000000 1.0
C      1  0.4859050000000  0.4988700000000  0.4322520000000 1.0
C      1  0.5430060000000  0.5544890000000  0.4783380000000 1.0
C      1  0.5082510000000  0.4526840000000  0.4434370000000 1.0
C      1  0.4565130000000  0.5786060000000  0.5119240000000 1.0
C      1  0.4685040000000  0.5079800000000  0.5168500000000 1.0
C      1  0.5096830000000  0.4909100000000  0.5608270000000 1.0
C      1  0.5341310000000  0.4775580000000  0.5278440000000 1.0
C      1  0.5487720000000  0.4846640000000  0.4533980000000 1.0
C      1  0.5626210000000  0.5340390000000  0.4805880000000 1.0
C      1  0.4640760000000  0.4977300000000  0.4555120000000 1.0
C      1  0.5264670000000  0.5401520000000  0.5263020000000 1.0
C      1  0.5021300000000  0.5743990000000  0.4984710000000 1.0
C      1  0.5077510000000  0.5578930000000  0.5722810000000 1.0
C      1  0.5171540000000  0.4824460000000  0.5022740000000 1.0
C      1  0.4925080000000  0.4314190000000  0.5101660000000 1.0
C      1  0.5387950000000  0.5109260000000  0.4427940000000 1.0
C      1  0.4826540000000  0.4973760000000  0.4785190000000 1.0
C      1  0.5024950000000  0.5407680000000  0.5496950000000 1.0
C      1  0.4446960000000  0.5409720000000  0.4831630000000 1.0
C      1  0.5418380000000  0.5177710000000  0.5282900000000 1.0
C      1  0.4506260000000  0.4775130000000  0.5431450000000 1.0
C      1  0.5365710000000  0.4957060000000  0.5471670000000 1.0
C      1  0.5496000000000  0.5355710000000  0.4550970000000 1.0
C      1  0.5100080000000  0.5133600000000  0.4401800000000 1.0
C      1  0.5335410000000  0.4590830000000  0.4567740000000 1.0
C      1  0.4994530000000  0.4754160000000  0.4307800000000 1.0
C      1  0.5519270000000  0.5106150000000  0.4976610000000 1.0
C      1  0.4906560000000  0.5111850000000  0.5577120000000 1.0
C      1  0.5709500000000  0.4294950000000  0.5212960000000 1.0
C      1  0.4547470000000  0.5544930000000  0.5292030000000 1.0
C      1  0.4317990000000  0.4704930000000  0.4909740000000 1.0
C      1  0.4835230000000  0.5685570000000  0.4761170000000 1.0
C      1  0.5561910000000  0.4836030000000  0.4813990000000 1.0
C      1  0.4824920000000  0.4410170000000  0.4590160000000 1.0
C      1  0.5373210000000  0.4616360000000  0.4868360000000 1.0
C      1  0.4980490000000  0.4633040000000  0.5613120000000 1.0
C      1  0.5105960000000  0.4420670000000  0.5478040000000 1.0
C      1  0.4613790000000  0.4472060000000  0.4675910000000 1.0
C      1  0.5500390000000  0.4602200000000  0.5317380000000 1.0
C      1  0.5229250000000  0.5081450000000  0.4916210000000 1.0
C      1  0.4836470000000  0.4831710000000  0.5043060000000 1.0
C      1  0.5452970000000  0.4396230000000  0.5140590000000 1.0
C      1  0.4848820000000  0.5822130000000  0.5210560000000 1.0
C      1  0.5038670000000  0.5180270000000  0.4712030000000 1.0
C      1  0.5256130000000  0.5574120000000  0.5021750000000 1.0
C      1  0.4383920000000  0.4731980000000  0.5172890000000 1.0
C      1  0.4756930000000  0.4550780000000  0.5175900000000 1.0
END
