TITL C-3909784-5023-1 9.31338835229401 125000 -21234.2714816029 0 0 141 (C1) n - 1
REM
REM in /home/nfs/bkarasulu/CARBON/AIRSS/Generating-Clusters/ReaxFF-fromJPCA2015/Units_Real/with-SteepDescent/Only-C1/SD-CG/Try1-3A/FIRE-CG
REM
REM
REM
REM
REM
REM ./C.cell (11c1c37f851c82e70ff6c80c92926a4b)
REM
REM compiler GCC version 9.2.1 20190827 (Red Hat 9.2.1-1)
REM options -cpp -mtune=generic -march=x86-64 -g -O0 -fpre-include=/usr/include/finclude/math-vector-fortran.h
REM seed 1414051707 1566429069 -676722735 -1664495947 -1191317186 816330673 -99807796 -1041019354 -1508460029 -635652842 2014350571 -1691265614 -1238251554 1830657817 1155772487 813233888 -165847617 -1089733965 -1030271603 1195673079 -259591441 1676858867 830177053 -1077289015 -1521191410 256590669 -166447002 -1027660893 1143247602 1088236259 -553336100 366337725 -708188717
REM
CELL 1.54180   50.00000   50.00000   50.00000   90.00000   90.00000   90.00000
LATT -1
SFAC C  
C      1  0.4900800000000  0.4318810000000  0.4479840000000 1.0
C      1  0.4809660000000  0.4547900000000  0.5337460000000 1.0
C      1  0.5907490000000  0.5020930000000  0.5263710000000 1.0
C      1  0.4046660000000  0.5410400000000  0.5081280000000 1.0
C      1  0.4207000000000  0.5620560000000  0.4670670000000 1.0
C      1  0.4478930000000  0.4264520000000  0.5089760000000 1.0
C      1  0.5415120000000  0.4671950000000  0.5658930000000 1.0
C      1  0.4273850000000  0.4438330000000  0.4951440000000 1.0
C      1  0.5549810000000  0.5108450000000  0.4540340000000 1.0
C      1  0.4918130000000  0.4842020000000  0.4029030000000 1.0
C      1  0.5801530000000  0.4422870000000  0.4770290000000 1.0
C      1  0.5052580000000  0.5884650000000  0.4500270000000 1.0
C      1  0.5166890000000  0.5700670000000  0.5821560000000 1.0
C      1  0.4997890000000  0.5417310000000  0.5160430000000 1.0
C      1  0.4639640000000  0.5295960000000  0.5429240000000 1.0
C      1  0.5963000000000  0.5381550000000  0.5060200000000 1.0
C      1  0.4831630000000  0.5930910000000  0.4697060000000 1.0
C      1  0.4825630000000  0.4824110000000  0.4651280000000 1.0
C      1  0.4117900000000  0.5032480000000  0.5414020000000 1.0
C      1  0.5924910000000  0.5077130000000  0.4759950000000 1.0
C      1  0.4632100000000  0.5239480000000  0.5142750000000 1.0
C      1  0.5738680000000  0.4425600000000  0.5403730000000 1.0
C      1  0.5114460000000  0.5124760000000  0.4411440000000 1.0
C      1  0.5582230000000  0.5674720000000  0.4468210000000 1.0
C      1  0.4823560000000  0.4369080000000  0.4206290000000 1.0
C      1  0.4471460000000  0.4752250000000  0.4186540000000 1.0
C      1  0.4253560000000  0.4857950000000  0.4338770000000 1.0
C      1  0.4892630000000  0.5493130000000  0.4183570000000 1.0
C      1  0.5150140000000  0.4480630000000  0.5021550000000 1.0
C      1  0.5273680000000  0.5508230000000  0.6000330000000 1.0
C      1  0.5908410000000  0.4910700000000  0.4517630000000 1.0
C      1  0.5343590000000  0.4914760000000  0.5210030000000 1.0
C      1  0.4676570000000  0.4221110000000  0.4635360000000 1.0
C      1  0.4900860000000  0.5152250000000  0.5089310000000 1.0
C      1  0.5210750000000  0.5180560000000  0.5544930000000 1.0
C      1  0.4106960000000  0.5128020000000  0.4674510000000 1.0
C      1  0.4064870000000  0.4852880000000  0.4789450000000 1.0
C      1  0.5881270000000  0.4604610000000  0.4561950000000 1.0
C      1  0.4533480000000  0.4836240000000  0.5074860000000 1.0
C      1  0.5235080000000  0.5368700000000  0.5314980000000 1.0
C      1  0.5311160000000  0.4160160000000  0.4455470000000 1.0
C      1  0.4265800000000  0.5106830000000  0.5655940000000 1.0
C      1  0.5226670000000  0.4002700000000  0.4689900000000 1.0
C      1  0.5304300000000  0.5264820000000  0.4583370000000 1.0
C      1  0.5513440000000  0.5000670000000  0.4117490000000 1.0
C      1  0.4857470000000  0.5759730000000  0.4311810000000 1.0
C      1  0.4687580000000  0.4972910000000  0.4125320000000 1.0
C      1  0.4754030000000  0.5439380000000  0.4727060000000 1.0
C      1  0.5130710000000  0.4683900000000  0.3956000000000 1.0
C      1  0.4425380000000  0.5358190000000  0.4325500000000 1.0
C      1  0.5509330000000  0.5483380000000  0.5848110000000 1.0
C      1  0.5048740000000  0.5969190000000  0.5143920000000 1.0
C      1  0.5340170000000  0.5848950000000  0.4436120000000 1.0
C      1  0.4810530000000  0.5530770000000  0.5446340000000 1.0
C      1  0.4059410000000  0.5684860000000  0.5203130000000 1.0
C      1  0.4988760000000  0.5517630000000  0.4879150000000 1.0
C      1  0.4548960000000  0.4480190000000  0.4240800000000 1.0
C      1  0.4622830000000  0.5742930000000  0.5427800000000 1.0
C      1  0.4164150000000  0.5686250000000  0.5460360000000 1.0
C      1  0.5513940000000  0.4500020000000  0.4163360000000 1.0
C      1  0.5172070000000  0.4395240000000  0.4555100000000 1.0
C      1  0.5683010000000  0.5560930000000  0.4717330000000 1.0
C      1  0.4471960000000  0.4304060000000  0.5370030000000 1.0
C      1  0.4951370000000  0.4351430000000  0.5777250000000 1.0
C      1  0.4712370000000  0.5023800000000  0.5530480000000 1.0
C      1  0.4399540000000  0.5092860000000  0.5050420000000 1.0
C      1  0.5267390000000  0.5947110000000  0.5279570000000 1.0
C      1  0.4999440000000  0.4988970000000  0.5491580000000 1.0
C      1  0.4253250000000  0.5808040000000  0.4862860000000 1.0
C      1  0.5184640000000  0.5434920000000  0.4144810000000 1.0
C      1  0.5674790000000  0.4223090000000  0.4923560000000 1.0
C      1  0.4164480000000  0.5180290000000  0.5182480000000 1.0
C      1  0.5182780000000  0.4192950000000  0.5793760000000 1.0
C      1  0.5327650000000  0.4792480000000  0.4756110000000 1.0
C      1  0.4457070000000  0.4344030000000  0.4485810000000 1.0
C      1  0.4291720000000  0.5895090000000  0.5117550000000 1.0
C      1  0.5606530000000  0.4978480000000  0.5875630000000 1.0
C      1  0.5072010000000  0.4407800000000  0.4061460000000 1.0
C      1  0.5756720000000  0.4328290000000  0.5165540000000 1.0
C      1  0.5242500000000  0.5461300000000  0.4773940000000 1.0
C      1  0.5477910000000  0.5846600000000  0.5384840000000 1.0
C      1  0.5622040000000  0.4589080000000  0.4424570000000 1.0
C      1  0.5064050000000  0.4817500000000  0.5971720000000 1.0
C      1  0.5803230000000  0.4810490000000  0.5738790000000 1.0
C      1  0.5280230000000  0.4507210000000  0.4802160000000 1.0
C      1  0.4242530000000  0.5141410000000  0.4415000000000 1.0
C      1  0.4324150000000  0.5381360000000  0.5682710000000 1.0
C      1  0.4594160000000  0.4636960000000  0.5807100000000 1.0
C      1  0.4640140000000  0.5822090000000  0.4499530000000 1.0
C      1  0.5425300000000  0.4739470000000  0.4028670000000 1.0
C      1  0.5261520000000  0.5152490000000  0.4153460000000 1.0
C      1  0.5310100000000  0.4283930000000  0.4182290000000 1.0
C      1  0.5474180000000  0.5482890000000  0.5198280000000 1.0
C      1  0.4583820000000  0.5881640000000  0.5184940000000 1.0
C      1  0.5386180000000  0.5634110000000  0.4248790000000 1.0
C      1  0.4397350000000  0.5660300000000  0.5610820000000 1.0
C      1  0.5092600000000  0.5294420000000  0.5838820000000 1.0
C      1  0.4863910000000  0.4607050000000  0.5904560000000 1.0
C      1  0.5187390000000  0.3991810000000  0.5107340000000 1.0
C      1  0.5468390000000  0.5545710000000  0.4909610000000 1.0
C      1  0.4650100000000  0.5082900000000  0.6028260000000 1.0
C      1  0.4697960000000  0.5016770000000  0.4474280000000 1.0
C      1  0.5052480000000  0.4925920000000  0.5209540000000 1.0
C      1  0.5499020000000  0.4828500000000  0.4552100000000 1.0
C      1  0.5444870000000  0.4923730000000  0.5473480000000 1.0
C      1  0.5785580000000  0.4966170000000  0.4997810000000 1.0
C      1  0.4707050000000  0.4140720000000  0.4912500000000 1.0
C      1  0.4481480000000  0.5567580000000  0.4540190000000 1.0
C      1  0.4975860000000  0.4030090000000  0.4911900000000 1.0
C      1  0.5402470000000  0.4036350000000  0.4907690000000 1.0
C      1  0.5648790000000  0.5628670000000  0.5395970000000 1.0
C      1  0.4515760000000  0.4935920000000  0.5795380000000 1.0
C      1  0.5087800000000  0.4916850000000  0.4608750000000 1.0
C      1  0.4667190000000  0.5305470000000  0.4178930000000 1.0
C      1  0.4113580000000  0.4759810000000  0.5312570000000 1.0
C      1  0.5682500000000  0.4546560000000  0.5648710000000 1.0
C      1  0.5799350000000  0.5429240000000  0.5558910000000 1.0
C      1  0.5282930000000  0.4379790000000  0.5183430000000 1.0
C      1  0.4729540000000  0.4734900000000  0.4905230000000 1.0
C      1  0.4443650000000  0.4438940000000  0.5625110000000 1.0
C      1  0.4957500000000  0.5545210000000  0.5721640000000 1.0
C      1  0.5504190000000  0.4916910000000  0.4992280000000 1.0
C      1  0.5917840000000  0.5382330000000  0.4784040000000 1.0
C      1  0.4251270000000  0.4446710000000  0.4660090000000 1.0
C      1  0.5357470000000  0.4819480000000  0.5902000000000 1.0
C      1  0.4597700000000  0.4753780000000  0.5353680000000 1.0
C      1  0.5739280000000  0.4930240000000  0.5480190000000 1.0
C      1  0.4727070000000  0.5228480000000  0.4602390000000 1.0
C      1  0.5366290000000  0.4062290000000  0.5650280000000 1.0
C      1  0.5960050000000  0.5308840000000  0.5332880000000 1.0
C      1  0.4943200000000  0.5078300000000  0.6011030000000 1.0
C      1  0.4069630000000  0.5386930000000  0.4796800000000 1.0
C      1  0.5675550000000  0.5278330000000  0.5784790000000 1.0
C      1  0.5733340000000  0.5054030000000  0.4318580000000 1.0
C      1  0.5187870000000  0.4186660000000  0.5376290000000 1.0
C      1  0.4809460000000  0.5956100000000  0.4999580000000 1.0
C      1  0.4128520000000  0.4681750000000  0.5028250000000 1.0
C      1  0.4923010000000  0.4635480000000  0.5096970000000 1.0
C      1  0.4328000000000  0.4668980000000  0.5488780000000 1.0
C      1  0.4943400000000  0.4348660000000  0.5487910000000 1.0
C      1  0.4134130000000  0.4697320000000  0.4561560000000 1.0
END
