TITL C-3909788-9832-18 8.56452234688922 125000 -8929.68001896222 0 0 61 (C1) n - 1
REM
REM in /home/nfs/bkarasulu/CARBON/AIRSS/Generating-Clusters/ReaxFF-fromJPCA2015/Units_Real/with-SteepDescent/Only-C1/SD-CG/Try1-3A/FIRE-CG
REM
REM
REM
REM
REM
REM ./C.cell (11c1c37f851c82e70ff6c80c92926a4b)
REM
REM compiler GCC version 9.2.1 20190827 (Red Hat 9.2.1-1)
REM options -cpp -mtune=generic -march=x86-64 -g -O0 -fpre-include=/usr/include/finclude/math-vector-fortran.h
REM seed 957928556 750162119 1370107738 2039023493 -302614338 51692012 -1657787648 -2011095948 574782354 1134272583 -247633905 1291944628 237770855 491004392 -519892068 213473059 -913166717 565885297 604711250 -986328468 -1944466658 619446841 1000385273 1744666268 745190094 2141366062 -99958039 -671710902 -1180631411 1592438253 628533595 325215489 -122772028
REM
CELL 1.54180   50.00000   50.00000   50.00000   90.00000   90.00000   90.00000
LATT -1
SFAC C  
C      1  0.4449730000000  0.4613740000000  0.5566830000000 1.0
C      1  0.4799970000000  0.4419920000000  0.5257220000000 1.0
C      1  0.4861090000000  0.4958260000000  0.5653710000000 1.0
C      1  0.4770020000000  0.5141830000000  0.5438930000000 1.0
C      1  0.5265340000000  0.5277060000000  0.5537410000000 1.0
C      1  0.4625160000000  0.4510790000000  0.5036180000000 1.0
C      1  0.4323200000000  0.5008460000000  0.5502440000000 1.0
C      1  0.4160040000000  0.5112220000000  0.4960370000000 1.0
C      1  0.4581200000000  0.5154460000000  0.4399980000000 1.0
C      1  0.4991840000000  0.5217480000000  0.5622840000000 1.0
C      1  0.5720390000000  0.5195230000000  0.5028610000000 1.0
C      1  0.5454510000000  0.5050460000000  0.5478920000000 1.0
C      1  0.5502970000000  0.5184570000000  0.5222570000000 1.0
C      1  0.5266130000000  0.4651370000000  0.4493180000000 1.0
C      1  0.4829010000000  0.5074300000000  0.4905530000000 1.0
C      1  0.5480190000000  0.5374210000000  0.4631810000000 1.0
C      1  0.5118710000000  0.5735600000000  0.5014680000000 1.0
C      1  0.4312480000000  0.4878020000000  0.4837260000000 1.0
C      1  0.4952180000000  0.4684430000000  0.5606810000000 1.0
C      1  0.5703340000000  0.4865690000000  0.4656240000000 1.0
C      1  0.4818670000000  0.5165130000000  0.4252250000000 1.0
C      1  0.4332620000000  0.4753540000000  0.5337880000000 1.0
C      1  0.4595040000000  0.5383190000000  0.4587440000000 1.0
C      1  0.5737420000000  0.4917780000000  0.4943710000000 1.0
C      1  0.5252050000000  0.5491420000000  0.5328870000000 1.0
C      1  0.5426950000000  0.4775300000000  0.5398640000000 1.0
C      1  0.4989800000000  0.4370010000000  0.4751690000000 1.0
C      1  0.5170770000000  0.5353700000000  0.4614230000000 1.0
C      1  0.4659800000000  0.5755960000000  0.5451260000000 1.0
C      1  0.5511900000000  0.4395310000000  0.4729890000000 1.0
C      1  0.5390140000000  0.5588330000000  0.5087170000000 1.0
C      1  0.4863370000000  0.4896880000000  0.4259360000000 1.0
C      1  0.5053980000000  0.5306840000000  0.4339500000000 1.0
C      1  0.5319630000000  0.4859910000000  0.4971560000000 1.0
C      1  0.5036920000000  0.5553500000000  0.4453530000000 1.0
C      1  0.5170690000000  0.4773820000000  0.4742960000000 1.0
C      1  0.5571440000000  0.5433920000000  0.4906380000000 1.0
C      1  0.5551180000000  0.4621610000000  0.4554500000000 1.0
C      1  0.5094480000000  0.4410180000000  0.5260210000000 1.0
C      1  0.4769030000000  0.4538600000000  0.4777800000000 1.0
C      1  0.5625060000000  0.5135450000000  0.4606570000000 1.0
C      1  0.5263150000000  0.5107740000000  0.5060670000000 1.0
C      1  0.4313570000000  0.5258690000000  0.5164860000000 1.0
C      1  0.5535880000000  0.4429180000000  0.5015800000000 1.0
C      1  0.4575370000000  0.5194710000000  0.4813860000000 1.0
C      1  0.4409660000000  0.4700500000000  0.5060220000000 1.0
C      1  0.5235460000000  0.4248800000000  0.4779000000000 1.0
C      1  0.5060000000000  0.4747420000000  0.4327740000000 1.0
C      1  0.5048940000000  0.5267160000000  0.4937170000000 1.0
C      1  0.4715740000000  0.5541590000000  0.5342220000000 1.0
C      1  0.5554550000000  0.4722450000000  0.5116280000000 1.0
C      1  0.4501610000000  0.5274630000000  0.5396240000000 1.0
C      1  0.4380450000000  0.4857980000000  0.5751410000000 1.0
C      1  0.5193300000000  0.4613970000000  0.5451350000000 1.0
C      1  0.4931710000000  0.5719220000000  0.4806950000000 1.0
C      1  0.5288290000000  0.4289160000000  0.5074960000000 1.0
C      1  0.4493930000000  0.4978940000000  0.4627180000000 1.0
C      1  0.4726310000000  0.4519290000000  0.5521530000000 1.0
C      1  0.4990360000000  0.5505640000000  0.5173800000000 1.0
C      1  0.4784510000000  0.5615260000000  0.4590180000000 1.0
C      1  0.4888820000000  0.4819170000000  0.4781650000000 1.0
END
