TITL C-3909647-4341-16 1.83333023696723 125000 -2244.89028139435 0 0 17 (C1) n - 1
REM
REM in /home/nfs/bkarasulu/CARBON/AIRSS/Generating-Clusters/ReaxFF-fromJPCA2015/Units_Real/with-SteepDescent/Only-C1/SD-CG/Try1-3A/FIRE-CG
REM
REM
REM
REM
REM
REM ./C.cell (11c1c37f851c82e70ff6c80c92926a4b)
REM
REM compiler GCC version 9.2.1 20190827 (Red Hat 9.2.1-1)
REM options -cpp -mtune=generic -march=x86-64 -g -O0 -fpre-include=/usr/include/finclude/math-vector-fortran.h
REM seed 1280875112 798483187 2033142116 481931235 2087220472 -1069919170 753064306 -1127163892 -1483738581 -1581100510 821079758 625255447 1776250596 369105099 -1528212619 -1909497132 406687726 -804933507 909967288 -506311595 1133003780 -1618540842 -640639873 1832855884 658172745 -535808180 -1397603035 -873925453 396129333 81810141 131368808 -534878589 -1269271219
REM
CELL 1.54180   50.00000   50.00000   50.00000   90.00000   90.00000   90.00000
LATT -1
SFAC C  
C      1  0.4930650000000  0.4976510000000  0.4860920000000 1.0
C      1  0.5211570000000  0.4896770000000  0.4854720000000 1.0
C      1  0.5435840000000  0.5452080000000  0.5352630000000 1.0
C      1  0.4814060000000  0.5261510000000  0.4963070000000 1.0
C      1  0.4494270000000  0.4480160000000  0.5236640000000 1.0
C      1  0.5108280000000  0.5481460000000  0.5377960000000 1.0
C      1  0.5696900000000  0.5209120000000  0.4887740000000 1.0
C      1  0.4334170000000  0.4362130000000  0.5378240000000 1.0
C      1  0.5457400000000  0.5054240000000  0.4870390000000 1.0
C      1  0.4953920000000  0.5381330000000  0.5177890000000 1.0
C      1  0.4835150000000  0.4736340000000  0.4949740000000 1.0
C      1  0.4599330000000  0.5392080000000  0.4862390000000 1.0
C      1  0.5578110000000  0.5342040000000  0.5153060000000 1.0
C      1  0.4511440000000  0.5270840000000  0.4674540000000 1.0
C      1  0.5153110000000  0.4646390000000  0.4716490000000 1.0
C      1  0.4664880000000  0.4608370000000  0.5093050000000 1.0
C      1  0.5220900000000  0.4448640000000  0.4590540000000 1.0
END
