TITL C-3909786-8783-30 -33.3471946414018 125000 -27393.3148060606 0 0 180 (C1) n - 1
REM
REM in /home/nfs/bkarasulu/CARBON/AIRSS/Generating-Clusters/ReaxFF-fromJPCA2015/Units_Real/with-SteepDescent/Only-C1/SD-CG/Try1-3A/FIRE-CG
REM
REM
REM
REM
REM
REM ./C.cell (11c1c37f851c82e70ff6c80c92926a4b)
REM
REM compiler GCC version 9.2.1 20190827 (Red Hat 9.2.1-1)
REM options -cpp -mtune=generic -march=x86-64 -g -O0 -fpre-include=/usr/include/finclude/math-vector-fortran.h
REM seed 494015807 -2087077987 230014628 -155531199 -1450666378 -537491072 1348887381 -1149523836 -1602495073 710396350 -382410020 23293899 63130198 -1841983248 -1995406210 2007234504 -1063612248 575293673 1706541622 1950821699 -358597479 -535803134 -1239842495 -995949228 680903826 -662206673 -856426346 -1046312753 1602092652 -469528763 869890881 -821326779 2076194814
REM
CELL 1.54180   50.00000   50.00000   50.00000   90.00000   90.00000   90.00000
LATT -1
SFAC C  
C      1  0.4494820000000  0.4160740000000  0.4749960000000 1.0
C      1  0.4837620000000  0.5882620000000  0.5608000000000 1.0
C      1  0.4957270000000  0.5362010000000  0.3995640000000 1.0
C      1  0.4165030000000  0.4414930000000  0.5304260000000 1.0
C      1  0.5419860000000  0.4857780000000  0.6139810000000 1.0
C      1  0.5546980000000  0.4916180000000  0.4471570000000 1.0
C      1  0.4733350000000  0.4780990000000  0.4853060000000 1.0
C      1  0.5080270000000  0.4046720000000  0.5502030000000 1.0
C      1  0.5607260000000  0.4998620000000  0.3970670000000 1.0
C      1  0.5461760000000  0.5509340000000  0.5790800000000 1.0
C      1  0.4768890000000  0.5112400000000  0.4421380000000 1.0
C      1  0.4590330000000  0.5075850000000  0.6021240000000 1.0
C      1  0.4864510000000  0.4365380000000  0.4993090000000 1.0
C      1  0.4733070000000  0.6026400000000  0.4799450000000 1.0
C      1  0.4775000000000  0.3979750000000  0.5099610000000 1.0
C      1  0.4237150000000  0.5366600000000  0.4139260000000 1.0
C      1  0.4260160000000  0.4383690000000  0.5585210000000 1.0
C      1  0.5758060000000  0.5013090000000  0.4259280000000 1.0
C      1  0.5736350000000  0.4211580000000  0.4921500000000 1.0
C      1  0.5591160000000  0.4761810000000  0.5925680000000 1.0
C      1  0.5897900000000  0.4559330000000  0.5259910000000 1.0
C      1  0.4116730000000  0.5203130000000  0.4833180000000 1.0
C      1  0.4567230000000  0.5110530000000  0.5142150000000 1.0
C      1  0.4239020000000  0.5606090000000  0.5360480000000 1.0
C      1  0.5865720000000  0.5599040000000  0.5437270000000 1.0
C      1  0.5594060000000  0.5872380000000  0.5252930000000 1.0
C      1  0.5194480000000  0.5549310000000  0.5398260000000 1.0
C      1  0.4527920000000  0.5059510000000  0.3943030000000 1.0
C      1  0.5021590000000  0.6000580000000  0.4299730000000 1.0
C      1  0.5067810000000  0.5142270000000  0.4504040000000 1.0
C      1  0.5872480000000  0.4457170000000  0.4971790000000 1.0
C      1  0.5045510000000  0.5443640000000  0.4458590000000 1.0
C      1  0.4935710000000  0.4392690000000  0.5843410000000 1.0
C      1  0.4357030000000  0.5087540000000  0.4745890000000 1.0
C      1  0.4501240000000  0.5525700000000  0.5268930000000 1.0
C      1  0.4521700000000  0.5948460000000  0.5259110000000 1.0
C      1  0.4286530000000  0.4846510000000  0.5710140000000 1.0
C      1  0.5936230000000  0.5037230000000  0.4792850000000 1.0
C      1  0.5559000000000  0.5386420000000  0.4776650000000 1.0
C      1  0.4940890000000  0.5727830000000  0.5857950000000 1.0
C      1  0.6009530000000  0.4809320000000  0.4629960000000 1.0
C      1  0.4837680000000  0.5619580000000  0.4561040000000 1.0
C      1  0.4871260000000  0.4286470000000  0.4238480000000 1.0
C      1  0.4718230000000  0.4607850000000  0.5862630000000 1.0
C      1  0.4483590000000  0.5591290000000  0.5697390000000 1.0
C      1  0.5036260000000  0.5154310000000  0.6124670000000 1.0
C      1  0.4327950000000  0.4349790000000  0.4848900000000 1.0
C      1  0.5824570000000  0.4895120000000  0.5489310000000 1.0
C      1  0.5341340000000  0.5038990000000  0.5581330000000 1.0
C      1  0.5621360000000  0.4339160000000  0.4216420000000 1.0
C      1  0.5105590000000  0.5144870000000  0.3871590000000 1.0
C      1  0.4307190000000  0.5330590000000  0.5651800000000 1.0
C      1  0.5204820000000  0.5816140000000  0.4182840000000 1.0
C      1  0.4779890000000  0.5340310000000  0.4880080000000 1.0
C      1  0.5104310000000  0.5527550000000  0.4183220000000 1.0
C      1  0.4303060000000  0.4838150000000  0.4877950000000 1.0
C      1  0.5697730000000  0.4699630000000  0.5359780000000 1.0
C      1  0.4619990000000  0.5244350000000  0.4651610000000 1.0
C      1  0.5477570000000  0.4512470000000  0.5820110000000 1.0
C      1  0.5286120000000  0.5360690000000  0.5594480000000 1.0
C      1  0.4425650000000  0.4577370000000  0.4092110000000 1.0
C      1  0.5712440000000  0.5617220000000  0.4705200000000 1.0
C      1  0.4726880000000  0.4416260000000  0.5231510000000 1.0
C      1  0.5334060000000  0.5139060000000  0.6096710000000 1.0
C      1  0.5855720000000  0.5764590000000  0.5205730000000 1.0
C      1  0.5160740000000  0.5044820000000  0.4801280000000 1.0
C      1  0.4099210000000  0.5222980000000  0.4359750000000 1.0
C      1  0.4975810000000  0.4890360000000  0.3809450000000 1.0
C      1  0.4471290000000  0.5942700000000  0.4794210000000 1.0
C      1  0.5924480000000  0.5645120000000  0.4946640000000 1.0
C      1  0.5043710000000  0.4851770000000  0.5202370000000 1.0
C      1  0.4921960000000  0.5627400000000  0.5439410000000 1.0
C      1  0.6048280000000  0.5121850000000  0.5053740000000 1.0
C      1  0.5115070000000  0.4665080000000  0.5406760000000 1.0
C      1  0.5556100000000  0.5906530000000  0.5535600000000 1.0
C      1  0.5237700000000  0.5899340000000  0.4739760000000 1.0
C      1  0.4959270000000  0.4880150000000  0.6192470000000 1.0
C      1  0.4637580000000  0.4577760000000  0.3895060000000 1.0
C      1  0.5268180000000  0.4963190000000  0.4330290000000 1.0
C      1  0.5243710000000  0.4423720000000  0.5326630000000 1.0
C      1  0.4761980000000  0.5146640000000  0.5360860000000 1.0
C      1  0.5482250000000  0.4004380000000  0.5262990000000 1.0
C      1  0.5434170000000  0.4975320000000  0.4888290000000 1.0
C      1  0.5025010000000  0.3932250000000  0.5241730000000 1.0
C      1  0.4145720000000  0.4928540000000  0.4329630000000 1.0
C      1  0.5347660000000  0.4177600000000  0.5466450000000 1.0
C      1  0.4156840000000  0.5200270000000  0.5436560000000 1.0
C      1  0.4883320000000  0.4158480000000  0.5674810000000 1.0
C      1  0.4950980000000  0.5900960000000  0.4598830000000 1.0
C      1  0.5688040000000  0.5592550000000  0.4219750000000 1.0
C      1  0.4538540000000  0.5368850000000  0.5030150000000 1.0
C      1  0.5018330000000  0.5123340000000  0.5223670000000 1.0
C      1  0.4753300000000  0.6040520000000  0.5094330000000 1.0
C      1  0.4591210000000  0.4153810000000  0.5249000000000 1.0
C      1  0.5639620000000  0.4993690000000  0.5745210000000 1.0
C      1  0.4375050000000  0.4144370000000  0.5680720000000 1.0
C      1  0.4635040000000  0.4872890000000  0.4386910000000 1.0
C      1  0.5027780000000  0.6046000000000  0.5199640000000 1.0
C      1  0.4691640000000  0.4850270000000  0.3797910000000 1.0
C      1  0.5506130000000  0.4188520000000  0.4746350000000 1.0
C      1  0.5471540000000  0.5812100000000  0.4604420000000 1.0
C      1  0.5058870000000  0.5273460000000  0.4976280000000 1.0
C      1  0.5216080000000  0.5912030000000  0.5023090000000 1.0
C      1  0.5419350000000  0.5025310000000  0.5295480000000 1.0
C      1  0.5385530000000  0.5424860000000  0.5008440000000 1.0
C      1  0.4879360000000  0.4439650000000  0.3978150000000 1.0
C      1  0.6019350000000  0.5390490000000  0.4983520000000 1.0
C      1  0.4277510000000  0.5223570000000  0.3879640000000 1.0
C      1  0.5596450000000  0.4649530000000  0.4604630000000 1.0
C      1  0.5837250000000  0.4537470000000  0.4236970000000 1.0
C      1  0.5346740000000  0.5082290000000  0.4037090000000 1.0
C      1  0.3849950000000  0.4836140000000  0.5180360000000 1.0
C      1  0.5734750000000  0.4131190000000  0.5200100000000 1.0
C      1  0.5158400000000  0.4480440000000  0.4631470000000 1.0
C      1  0.5581450000000  0.4388380000000  0.5581970000000 1.0
C      1  0.4321500000000  0.4277930000000  0.5109730000000 1.0
C      1  0.4728620000000  0.5433700000000  0.5409760000000 1.0
C      1  0.5331650000000  0.4530950000000  0.5086640000000 1.0
C      1  0.5816460000000  0.4319950000000  0.5419770000000 1.0
C      1  0.4339250000000  0.4602110000000  0.4699440000000 1.0
C      1  0.5488240000000  0.4783680000000  0.5115420000000 1.0
C      1  0.4250850000000  0.5622860000000  0.4663060000000 1.0
C      1  0.5424740000000  0.4420980000000  0.4604440000000 1.0
C      1  0.5769830000000  0.5341960000000  0.5393650000000 1.0
C      1  0.5843330000000  0.4615250000000  0.4737650000000 1.0
C      1  0.5636340000000  0.5112600000000  0.4738810000000 1.0
C      1  0.5051280000000  0.4044180000000  0.4645310000000 1.0
C      1  0.5530780000000  0.5279980000000  0.5225450000000 1.0
C      1  0.5192270000000  0.4494060000000  0.5931930000000 1.0
C      1  0.4136440000000  0.4671810000000  0.4460500000000 1.0
C      1  0.4700430000000  0.5277070000000  0.4130590000000 1.0
C      1  0.4882650000000  0.4833550000000  0.5726650000000 1.0
C      1  0.4723520000000  0.5535360000000  0.5878520000000 1.0
C      1  0.5282470000000  0.5943780000000  0.5646290000000 1.0
C      1  0.5864840000000  0.5543650000000  0.4448170000000 1.0
C      1  0.4528910000000  0.5835410000000  0.5534370000000 1.0
C      1  0.5102470000000  0.4517050000000  0.4904460000000 1.0
C      1  0.5363150000000  0.5707750000000  0.5163160000000 1.0
C      1  0.5113760000000  0.4717010000000  0.4256430000000 1.0
C      1  0.4083920000000  0.5388700000000  0.4604810000000 1.0
C      1  0.5687280000000  0.5670270000000  0.5634650000000 1.0
C      1  0.4534790000000  0.4837460000000  0.5052290000000 1.0
C      1  0.4595610000000  0.4194880000000  0.4265950000000 1.0
C      1  0.4794580000000  0.5285810000000  0.6018610000000 1.0
C      1  0.4371260000000  0.5098810000000  0.5828600000000 1.0
C      1  0.4114550000000  0.4920200000000  0.5487270000000 1.0
C      1  0.5287740000000  0.4003730000000  0.4803470000000 1.0
C      1  0.4361610000000  0.4368790000000  0.4282610000000 1.0
C      1  0.5225340000000  0.5737070000000  0.5840060000000 1.0
C      1  0.4454610000000  0.4610370000000  0.5647430000000 1.0
C      1  0.5066320000000  0.4658340000000  0.3978320000000 1.0
C      1  0.4325660000000  0.5938260000000  0.5034160000000 1.0
C      1  0.5055890000000  0.6028810000000  0.5484530000000 1.0
C      1  0.4999970000000  0.4802770000000  0.4929340000000 1.0
C      1  0.5273310000000  0.3918560000000  0.5087830000000 1.0
C      1  0.5372740000000  0.4198500000000  0.4271600000000 1.0
C      1  0.5155650000000  0.4819310000000  0.5649910000000 1.0
C      1  0.5820020000000  0.5334210000000  0.4265830000000 1.0
C      1  0.4693680000000  0.4810350000000  0.6095010000000 1.0
C      1  0.4615870000000  0.4086280000000  0.5562250000000 1.0
C      1  0.4543350000000  0.5549370000000  0.4517140000000 1.0
C      1  0.3780570000000  0.5081740000000  0.5127580000000 1.0
C      1  0.4008390000000  0.5272720000000  0.5146900000000 1.0
C      1  0.4608890000000  0.4660020000000  0.5353370000000 1.0
C      1  0.4041960000000  0.5573800000000  0.5158140000000 1.0
C      1  0.4441870000000  0.4156920000000  0.4471540000000 1.0
C      1  0.4730450000000  0.4883760000000  0.5493930000000 1.0
C      1  0.4430390000000  0.4851560000000  0.4191780000000 1.0
C      1  0.5944430000000  0.4789950000000  0.4343520000000 1.0
C      1  0.4031410000000  0.4679230000000  0.5300450000000 1.0
C      1  0.5103860000000  0.4122990000000  0.4377140000000 1.0
C      1  0.4666450000000  0.4675010000000  0.4594730000000 1.0
C      1  0.4951650000000  0.4550670000000  0.4440900000000 1.0
C      1  0.4801340000000  0.4120530000000  0.4845540000000 1.0
C      1  0.5937870000000  0.5104280000000  0.5336000000000 1.0
C      1  0.5473460000000  0.5771940000000  0.4324320000000 1.0
C      1  0.5183420000000  0.4688800000000  0.6150980000000 1.0
C      1  0.4497770000000  0.5466470000000  0.4234990000000 1.0
C      1  0.4147370000000  0.5724030000000  0.4917840000000 1.0
C      1  0.5532260000000  0.5230250000000  0.5906980000000 1.0
END
