TITL C-3909768-8671-28 -7.28514608048144 125000 -23264.840794231 0 0 155 (C1) n - 1
REM
REM in /home/nfs/bkarasulu/CARBON/AIRSS/Generating-Clusters/ReaxFF-fromJPCA2015/Units_Real/with-SteepDescent/Only-C1/SD-CG/Try1-3A/FIRE-CG
REM
REM
REM
REM
REM
REM ./C.cell (11c1c37f851c82e70ff6c80c92926a4b)
REM
REM compiler GCC version 9.2.1 20190827 (Red Hat 9.2.1-1)
REM options -cpp -mtune=generic -march=x86-64 -g -O0 -fpre-include=/usr/include/finclude/math-vector-fortran.h
REM seed -1942592431 -1799571707 -296340408 -828240744 -1158510867 -416649895 -1314972624 1581583940 304382904 1226208118 593364197 -1848373336 -876758537 414137944 2047146870 -1443753875 1063723386 129165858 -891504352 730905157 -1799490823 -1096480406 -1733125834 243360736 2104170655 1580423353 -1909835482 -808020835 -1173544318 503909733 157454883 -1605609167 -786339483
REM
CELL 1.54180   50.00000   50.00000   50.00000   90.00000   90.00000   90.00000
LATT -1
SFAC C  
C      1  0.5581410000000  0.5441110000000  0.5050980000000 1.0
C      1  0.5392200000000  0.5953490000000  0.4675820000000 1.0
C      1  0.4636000000000  0.5996960000000  0.4806330000000 1.0
C      1  0.4505650000000  0.5450190000000  0.5882040000000 1.0
C      1  0.4977050000000  0.4625140000000  0.4030100000000 1.0
C      1  0.5930270000000  0.4807350000000  0.4946860000000 1.0
C      1  0.4420250000000  0.4780750000000  0.4910000000000 1.0
C      1  0.5684690000000  0.5502480000000  0.4566960000000 1.0
C      1  0.4564650000000  0.4271270000000  0.5753630000000 1.0
C      1  0.3988620000000  0.5220960000000  0.4702260000000 1.0
C      1  0.5549230000000  0.5352290000000  0.4770240000000 1.0
C      1  0.3945280000000  0.5081430000000  0.5218240000000 1.0
C      1  0.5478470000000  0.6013520000000  0.4947340000000 1.0
C      1  0.4574360000000  0.4242270000000  0.4510060000000 1.0
C      1  0.5714800000000  0.5108520000000  0.5824550000000 1.0
C      1  0.4281470000000  0.4645060000000  0.4414720000000 1.0
C      1  0.4262260000000  0.4464930000000  0.5383750000000 1.0
C      1  0.4242830000000  0.5288080000000  0.5015510000000 1.0
C      1  0.4277560000000  0.5628810000000  0.5573420000000 1.0
C      1  0.4824220000000  0.4518290000000  0.5205790000000 1.0
C      1  0.4129660000000  0.4900950000000  0.4447090000000 1.0
C      1  0.4145640000000  0.4721000000000  0.4991760000000 1.0
C      1  0.4338140000000  0.4404320000000  0.4591030000000 1.0
C      1  0.4779970000000  0.5814570000000  0.5557480000000 1.0
C      1  0.5222680000000  0.4049480000000  0.5452350000000 1.0
C      1  0.6046010000000  0.4825690000000  0.5225500000000 1.0
C      1  0.4789510000000  0.5135170000000  0.5494350000000 1.0
C      1  0.4704200000000  0.5344300000000  0.5110190000000 1.0
C      1  0.4663110000000  0.6002860000000  0.5347760000000 1.0
C      1  0.5379980000000  0.5495040000000  0.5748450000000 1.0
C      1  0.4514790000000  0.5663300000000  0.4338070000000 1.0
C      1  0.4998860000000  0.5553430000000  0.4085070000000 1.0
C      1  0.5909340000000  0.5314820000000  0.5372490000000 1.0
C      1  0.5312530000000  0.5844790000000  0.5424740000000 1.0
C      1  0.4986150000000  0.4463110000000  0.4956200000000 1.0
C      1  0.5299170000000  0.6022770000000  0.5189200000000 1.0
C      1  0.5719990000000  0.5857460000000  0.4912750000000 1.0
C      1  0.5059010000000  0.6169600000000  0.5080020000000 1.0
C      1  0.5255730000000  0.4263160000000  0.4288230000000 1.0
C      1  0.5233160000000  0.4841330000000  0.4490310000000 1.0
C      1  0.4336170000000  0.4861080000000  0.5753180000000 1.0
C      1  0.4051820000000  0.4954450000000  0.5454720000000 1.0
C      1  0.5283320000000  0.4887800000000  0.5785440000000 1.0
C      1  0.4608220000000  0.4941960000000  0.5810950000000 1.0
C      1  0.5230410000000  0.4476940000000  0.5118660000000 1.0
C      1  0.5471120000000  0.4809100000000  0.4036900000000 1.0
C      1  0.4258520000000  0.4307200000000  0.4860880000000 1.0
C      1  0.4317200000000  0.5434710000000  0.4295410000000 1.0
C      1  0.5213940000000  0.4049770000000  0.4487310000000 1.0
C      1  0.5598050000000  0.5047880000000  0.4138790000000 1.0
C      1  0.4949020000000  0.5733320000000  0.4554730000000 1.0
C      1  0.4171720000000  0.4451840000000  0.5104280000000 1.0
C      1  0.4706220000000  0.5524470000000  0.4147410000000 1.0
C      1  0.5286890000000  0.5472380000000  0.5035050000000 1.0
C      1  0.4980110000000  0.5263950000000  0.5661490000000 1.0
C      1  0.5634980000000  0.4352910000000  0.5564760000000 1.0
C      1  0.4487800000000  0.5180360000000  0.5164890000000 1.0
C      1  0.5740790000000  0.4831800000000  0.5854760000000 1.0
C      1  0.4653150000000  0.5599000000000  0.4991130000000 1.0
C      1  0.5072490000000  0.5012580000000  0.5049500000000 1.0
C      1  0.5054380000000  0.4432120000000  0.5368350000000 1.0
C      1  0.5259990000000  0.4637390000000  0.5936890000000 1.0
C      1  0.4716360000000  0.4756970000000  0.4035580000000 1.0
C      1  0.4965430000000  0.3933280000000  0.4625530000000 1.0
C      1  0.4540080000000  0.3954480000000  0.5128190000000 1.0
C      1  0.5954180000000  0.5230250000000  0.4659300000000 1.0
C      1  0.5187080000000  0.4818000000000  0.3959750000000 1.0
C      1  0.4940530000000  0.5347340000000  0.5919580000000 1.0
C      1  0.4243610000000  0.5409980000000  0.5762870000000 1.0
C      1  0.5974930000000  0.4953620000000  0.4576320000000 1.0
C      1  0.4687160000000  0.4745170000000  0.5305740000000 1.0
C      1  0.5473350000000  0.5318970000000  0.4157740000000 1.0
C      1  0.4914780000000  0.6094090000000  0.4827410000000 1.0
C      1  0.4787160000000  0.5035320000000  0.3985830000000 1.0
C      1  0.5111900000000  0.3864110000000  0.4853290000000 1.0
C      1  0.4933140000000  0.4795630000000  0.4619630000000 1.0
C      1  0.4949260000000  0.4300650000000  0.5913290000000 1.0
C      1  0.5520270000000  0.4504770000000  0.5092550000000 1.0
C      1  0.5122100000000  0.5611090000000  0.4345000000000 1.0
C      1  0.4614300000000  0.4899590000000  0.5073430000000 1.0
C      1  0.5385590000000  0.4238810000000  0.5639340000000 1.0
C      1  0.5080120000000  0.5768870000000  0.5606450000000 1.0
C      1  0.4199180000000  0.5597000000000  0.5288470000000 1.0
C      1  0.4556370000000  0.5672810000000  0.5679520000000 1.0
C      1  0.4909230000000  0.6108600000000  0.5302090000000 1.0
C      1  0.5493000000000  0.4985360000000  0.5292640000000 1.0
C      1  0.4728720000000  0.5234620000000  0.4194970000000 1.0
C      1  0.4286350000000  0.5147940000000  0.4344250000000 1.0
C      1  0.5264140000000  0.5394760000000  0.4764170000000 1.0
C      1  0.5783970000000  0.4603170000000  0.5639730000000 1.0
C      1  0.5441880000000  0.4039570000000  0.4660420000000 1.0
C      1  0.4944240000000  0.4161920000000  0.5411150000000 1.0
C      1  0.4545870000000  0.5851780000000  0.4564940000000 1.0
C      1  0.4662690000000  0.4108170000000  0.5341220000000 1.0
C      1  0.5006450000000  0.4391510000000  0.4206930000000 1.0
C      1  0.4764390000000  0.5259030000000  0.4681430000000 1.0
C      1  0.5484630000000  0.4812390000000  0.5999470000000 1.0
C      1  0.5235520000000  0.5317650000000  0.5530590000000 1.0
C      1  0.4542850000000  0.3892420000000  0.4852640000000 1.0
C      1  0.4330650000000  0.4039220000000  0.4950950000000 1.0
C      1  0.4859740000000  0.4985240000000  0.4861370000000 1.0
C      1  0.5145500000000  0.5421040000000  0.5265120000000 1.0
C      1  0.5594470000000  0.5732170000000  0.5411680000000 1.0
C      1  0.4831700000000  0.4374750000000  0.4447610000000 1.0
C      1  0.4909050000000  0.5206210000000  0.4431560000000 1.0
C      1  0.5145900000000  0.5358600000000  0.4500250000000 1.0
C      1  0.4678180000000  0.4002380000000  0.4632260000000 1.0
C      1  0.5632280000000  0.4235030000000  0.4574090000000 1.0
C      1  0.5807320000000  0.5059660000000  0.4923650000000 1.0
C      1  0.4473670000000  0.4903080000000  0.4660750000000 1.0
C      1  0.5831940000000  0.4235850000000  0.5053570000000 1.0
C      1  0.6098240000000  0.5093330000000  0.5377780000000 1.0
C      1  0.4668300000000  0.4798080000000  0.4487660000000 1.0
C      1  0.5614090000000  0.4631450000000  0.4220850000000 1.0
C      1  0.5712250000000  0.4882350000000  0.4367760000000 1.0
C      1  0.4505400000000  0.5976060000000  0.5082660000000 1.0
C      1  0.5653980000000  0.5387210000000  0.5789900000000 1.0
C      1  0.5709720000000  0.5189090000000  0.5178510000000 1.0
C      1  0.4940140000000  0.5237880000000  0.5213940000000 1.0
C      1  0.5624740000000  0.5764780000000  0.4630780000000 1.0
C      1  0.4200780000000  0.4713910000000  0.5532590000000 1.0
C      1  0.5566520000000  0.5466440000000  0.4353910000000 1.0
C      1  0.5190380000000  0.5337900000000  0.4028090000000 1.0
C      1  0.4384090000000  0.5716900000000  0.5089920000000 1.0
C      1  0.4230000000000  0.5364350000000  0.4738420000000 1.0
C      1  0.4505840000000  0.5173660000000  0.5447620000000 1.0
C      1  0.5073150000000  0.5085490000000  0.3934070000000 1.0
C      1  0.5670160000000  0.4305870000000  0.5267170000000 1.0
C      1  0.5538360000000  0.5032530000000  0.4811320000000 1.0
C      1  0.5096990000000  0.5969390000000  0.4645230000000 1.0
C      1  0.4447340000000  0.5188680000000  0.4599940000000 1.0
C      1  0.5124030000000  0.5591460000000  0.5841860000000 1.0
C      1  0.4029710000000  0.5370590000000  0.5194900000000 1.0
C      1  0.4749100000000  0.4863660000000  0.5562150000000 1.0
C      1  0.5726230000000  0.5696360000000  0.5154870000000 1.0
C      1  0.5755330000000  0.5519240000000  0.5541640000000 1.0
C      1  0.5913700000000  0.4712620000000  0.5434400000000 1.0
C      1  0.4942170000000  0.4517090000000  0.4674890000000 1.0
C      1  0.5482830000000  0.4893080000000  0.4559380000000 1.0
C      1  0.5311690000000  0.3960540000000  0.5201380000000 1.0
C      1  0.5350570000000  0.4952950000000  0.5048560000000 1.0
C      1  0.5727460000000  0.4596170000000  0.4893800000000 1.0
C      1  0.3926250000000  0.4913350000000  0.4968550000000 1.0
C      1  0.5822470000000  0.4334790000000  0.4786170000000 1.0
C      1  0.4795360000000  0.5554850000000  0.4737510000000 1.0
C      1  0.4707020000000  0.4264760000000  0.5945150000000 1.0
C      1  0.4540370000000  0.4678260000000  0.4264340000000 1.0
C      1  0.3924820000000  0.4951890000000  0.4664120000000 1.0
C      1  0.5341160000000  0.5017190000000  0.5533020000000 1.0
C      1  0.4678910000000  0.5214200000000  0.5925270000000 1.0
C      1  0.5226310000000  0.4353740000000  0.5857340000000 1.0
C      1  0.4260150000000  0.5131170000000  0.5618000000000 1.0
C      1  0.5520720000000  0.4382970000000  0.4342490000000 1.0
C      1  0.5377840000000  0.3886690000000  0.4938140000000 1.0
C      1  0.4458950000000  0.4271070000000  0.5492500000000 1.0
END
