TITL C-3909774-5894-11 46.4694370429932 125000 -28213.8968807925 0 0 191 (C1) n - 1
REM
REM in /home/nfs/bkarasulu/CARBON/AIRSS/Generating-Clusters/ReaxFF-fromJPCA2015/Units_Real/with-SteepDescent/Only-C1/SD-CG/Try1-3A/FIRE-CG
REM
REM
REM
REM
REM
REM ./C.cell (11c1c37f851c82e70ff6c80c92926a4b)
REM
REM compiler GCC version 9.2.1 20190827 (Red Hat 9.2.1-1)
REM options -cpp -mtune=generic -march=x86-64 -g -O0 -fpre-include=/usr/include/finclude/math-vector-fortran.h
REM seed 256461758 -603412777 -1941465851 -1836147031 1514118356 -1167800514 -992726468 -1883286054 -289199098 -794232012 -415056230 -438378861 1399573594 -1704335866 -773976479 858147018 1446431 1179034912 1779371567 -1816114181 -1038227997 1741263851 1613332301 -500361508 1738365646 131272388 1375266814 1213197251 568259171 1148265071 -1083384124 -1912762824 86421391
REM
CELL 1.54180   50.00000   50.00000   50.00000   90.00000   90.00000   90.00000
LATT -1
SFAC C  
C      1  0.4092660000000  0.5382920000000  0.4578910000000 1.0
C      1  0.4374910000000  0.4622690000000  0.5617300000000 1.0
C      1  0.5179210000000  0.3821570000000  0.4953990000000 1.0
C      1  0.4175230000000  0.5549100000000  0.5059290000000 1.0
C      1  0.4712120000000  0.3763240000000  0.5212520000000 1.0
C      1  0.5142350000000  0.5344890000000  0.5622470000000 1.0
C      1  0.4544400000000  0.4506430000000  0.5163850000000 1.0
C      1  0.5037410000000  0.5074760000000  0.4870310000000 1.0
C      1  0.4031150000000  0.4848010000000  0.4661910000000 1.0
C      1  0.3879320000000  0.4832510000000  0.4908800000000 1.0
C      1  0.4687180000000  0.5739420000000  0.4637710000000 1.0
C      1  0.4275410000000  0.5203140000000  0.5391550000000 1.0
C      1  0.4708400000000  0.4741960000000  0.4507870000000 1.0
C      1  0.6030490000000  0.5131220000000  0.4896940000000 1.0
C      1  0.5367510000000  0.5270270000000  0.6106120000000 1.0
C      1  0.5239090000000  0.6103810000000  0.4688210000000 1.0
C      1  0.4660260000000  0.4617520000000  0.5570990000000 1.0
C      1  0.5912760000000  0.5618460000000  0.5184570000000 1.0
C      1  0.4263530000000  0.5316940000000  0.4349420000000 1.0
C      1  0.5654580000000  0.4441030000000  0.5735980000000 1.0
C      1  0.5255320000000  0.5303910000000  0.4019570000000 1.0
C      1  0.5063770000000  0.5383370000000  0.4255120000000 1.0
C      1  0.5103220000000  0.4661670000000  0.5498540000000 1.0
C      1  0.5534540000000  0.4531960000000  0.4746200000000 1.0
C      1  0.5270080000000  0.5816400000000  0.4388820000000 1.0
C      1  0.5564390000000  0.4865620000000  0.4236780000000 1.0
C      1  0.4725130000000  0.4789570000000  0.4792970000000 1.0
C      1  0.6151250000000  0.4857830000000  0.4835580000000 1.0
C      1  0.4960240000000  0.5642650000000  0.4146170000000 1.0
C      1  0.4759190000000  0.4032130000000  0.4575130000000 1.0
C      1  0.4151580000000  0.5246110000000  0.5082470000000 1.0
C      1  0.5213980000000  0.5518940000000  0.6108250000000 1.0
C      1  0.4871760000000  0.4570800000000  0.4352490000000 1.0
C      1  0.4675910000000  0.6041650000000  0.5381540000000 1.0
C      1  0.4413490000000  0.4402070000000  0.4710340000000 1.0
C      1  0.5284700000000  0.5233760000000  0.4895980000000 1.0
C      1  0.5303940000000  0.5962350000000  0.5117110000000 1.0
C      1  0.5803060000000  0.5787390000000  0.4967510000000 1.0
C      1  0.5061080000000  0.5811770000000  0.5484640000000 1.0
C      1  0.5050500000000  0.5488560000000  0.5089990000000 1.0
C      1  0.3879640000000  0.4560860000000  0.5047920000000 1.0
C      1  0.5406810000000  0.4654550000000  0.3840530000000 1.0
C      1  0.4930960000000  0.5122620000000  0.4291110000000 1.0
C      1  0.5347200000000  0.3968980000000  0.5146170000000 1.0
C      1  0.4037000000000  0.4361320000000  0.4962140000000 1.0
C      1  0.5736400000000  0.5099110000000  0.5371950000000 1.0
C      1  0.4188870000000  0.5633620000000  0.4778520000000 1.0
C      1  0.4965460000000  0.4673730000000  0.4924190000000 1.0
C      1  0.3927720000000  0.5030700000000  0.5117490000000 1.0
C      1  0.4579070000000  0.4111640000000  0.4283660000000 1.0
C      1  0.4928080000000  0.6186720000000  0.4953370000000 1.0
C      1  0.4600670000000  0.5024460000000  0.5618160000000 1.0
C      1  0.5801130000000  0.4485560000000  0.5488210000000 1.0
C      1  0.4472600000000  0.4874660000000  0.4930940000000 1.0
C      1  0.4564320000000  0.4535710000000  0.3952830000000 1.0
C      1  0.5459960000000  0.5833320000000  0.5238990000000 1.0
C      1  0.5462840000000  0.5548060000000  0.5282310000000 1.0
C      1  0.5733610000000  0.5085960000000  0.5836340000000 1.0
C      1  0.4763090000000  0.4367170000000  0.4136870000000 1.0
C      1  0.4741710000000  0.4760750000000  0.6023720000000 1.0
C      1  0.4773910000000  0.5082250000000  0.4019380000000 1.0
C      1  0.5400970000000  0.4331050000000  0.5642530000000 1.0
C      1  0.5757180000000  0.5495660000000  0.4552230000000 1.0
C      1  0.4920400000000  0.5589230000000  0.4685860000000 1.0
C      1  0.4478490000000  0.5243220000000  0.6009700000000 1.0
C      1  0.4767710000000  0.4244720000000  0.5721840000000 1.0
C      1  0.5663560000000  0.5387810000000  0.4287630000000 1.0
C      1  0.4861390000000  0.4763410000000  0.5415280000000 1.0
C      1  0.4895370000000  0.3737770000000  0.4980370000000 1.0
C      1  0.4661350000000  0.6133930000000  0.5091460000000 1.0
C      1  0.5686890000000  0.4611030000000  0.4299740000000 1.0
C      1  0.4913990000000  0.5522000000000  0.6102860000000 1.0
C      1  0.4685220000000  0.3842500000000  0.4803920000000 1.0
C      1  0.5183370000000  0.4168790000000  0.5315660000000 1.0
C      1  0.4812780000000  0.5147900000000  0.5775780000000 1.0
C      1  0.5570070000000  0.4826700000000  0.3991120000000 1.0
C      1  0.5506490000000  0.4632650000000  0.5913680000000 1.0
C      1  0.5031830000000  0.4799660000000  0.6091970000000 1.0
C      1  0.4671570000000  0.5329640000000  0.3913440000000 1.0
C      1  0.5183690000000  0.5047730000000  0.6038460000000 1.0
C      1  0.6096830000000  0.4807550000000  0.5257430000000 1.0
C      1  0.4309610000000  0.5921010000000  0.4743000000000 1.0
C      1  0.4349550000000  0.5631060000000  0.5324880000000 1.0
C      1  0.5451150000000  0.5926270000000  0.4596500000000 1.0
C      1  0.4959760000000  0.4096070000000  0.5554980000000 1.0
C      1  0.5156020000000  0.5093440000000  0.3836760000000 1.0
C      1  0.5524720000000  0.4044900000000  0.4757100000000 1.0
C      1  0.4744570000000  0.6161110000000  0.4549000000000 1.0
C      1  0.4817660000000  0.4975380000000  0.5208860000000 1.0
C      1  0.5325670000000  0.5715010000000  0.5928880000000 1.0
C      1  0.4546890000000  0.4091550000000  0.5581520000000 1.0
C      1  0.5918850000000  0.5268780000000  0.4660360000000 1.0
C      1  0.5918660000000  0.5043600000000  0.4475790000000 1.0
C      1  0.5214960000000  0.4767540000000  0.5057600000000 1.0
C      1  0.4982340000000  0.6258560000000  0.4669470000000 1.0
C      1  0.4464150000000  0.5104350000000  0.4398930000000 1.0
C      1  0.4534740000000  0.5978620000000  0.4531840000000 1.0
C      1  0.4820440000000  0.5738850000000  0.5943990000000 1.0
C      1  0.5522170000000  0.4901720000000  0.5465260000000 1.0
C      1  0.4460580000000  0.6029280000000  0.4938630000000 1.0
C      1  0.4417500000000  0.5459300000000  0.5801280000000 1.0
C      1  0.4073260000000  0.4633690000000  0.5282310000000 1.0
C      1  0.5159210000000  0.4483760000000  0.5727400000000 1.0
C      1  0.4281120000000  0.5432460000000  0.5550960000000 1.0
C      1  0.4754560000000  0.3905030000000  0.5472190000000 1.0
C      1  0.5415890000000  0.4247930000000  0.4338730000000 1.0
C      1  0.5993210000000  0.4795920000000  0.4606460000000 1.0
C      1  0.4476480000000  0.5515910000000  0.4328230000000 1.0
C      1  0.5834340000000  0.4535140000000  0.4699840000000 1.0
C      1  0.4961040000000  0.4247370000000  0.5114070000000 1.0
C      1  0.4764280000000  0.5272720000000  0.6048500000000 1.0
C      1  0.5466810000000  0.4927720000000  0.4685690000000 1.0
C      1  0.4480070000000  0.5546110000000  0.4632900000000 1.0
C      1  0.4381800000000  0.5140110000000  0.4932280000000 1.0
C      1  0.4130720000000  0.5048200000000  0.5570580000000 1.0
C      1  0.5963620000000  0.4724380000000  0.5509500000000 1.0
C      1  0.4565680000000  0.5350640000000  0.4894640000000 1.0
C      1  0.5162310000000  0.5551410000000  0.4518060000000 1.0
C      1  0.4501450000000  0.4947860000000  0.6010340000000 1.0
C      1  0.5422960000000  0.5159890000000  0.4528300000000 1.0
C      1  0.4957260000000  0.5252110000000  0.5244620000000 1.0
C      1  0.4936710000000  0.4386870000000  0.4851450000000 1.0
C      1  0.3973780000000  0.4910020000000  0.5371040000000 1.0
C      1  0.5071930000000  0.5958220000000  0.5019340000000 1.0
C      1  0.5720430000000  0.5444130000000  0.5361280000000 1.0
C      1  0.5253050000000  0.3927870000000  0.4696110000000 1.0
C      1  0.4722450000000  0.4526890000000  0.5840050000000 1.0
C      1  0.5734330000000  0.5100150000000  0.4252560000000 1.0
C      1  0.4519110000000  0.5829680000000  0.5506070000000 1.0
C      1  0.5523720000000  0.4888570000000  0.5752670000000 1.0
C      1  0.4948960000000  0.5706380000000  0.4945050000000 1.0
C      1  0.4572660000000  0.5705910000000  0.5761660000000 1.0
C      1  0.5221050000000  0.5009750000000  0.4372800000000 1.0
C      1  0.5349070000000  0.4459400000000  0.4536270000000 1.0
C      1  0.5788250000000  0.4389480000000  0.4445370000000 1.0
C      1  0.4682280000000  0.5549390000000  0.4111000000000 1.0
C      1  0.4359450000000  0.4679520000000  0.5116340000000 1.0
C      1  0.4202240000000  0.4483090000000  0.4297220000000 1.0
C      1  0.5253190000000  0.5711320000000  0.4116040000000 1.0
C      1  0.5054470000000  0.4000600000000  0.4492820000000 1.0
C      1  0.4337040000000  0.4893940000000  0.5736750000000 1.0
C      1  0.5904850000000  0.5005760000000  0.5614500000000 1.0
C      1  0.5161050000000  0.4124540000000  0.4252840000000 1.0
C      1  0.4950790000000  0.6041960000000  0.5388520000000 1.0
C      1  0.5599140000000  0.5331020000000  0.5935760000000 1.0
C      1  0.4944870000000  0.5552560000000  0.5546240000000 1.0
C      1  0.4571320000000  0.5044770000000  0.5336120000000 1.0
C      1  0.4442020000000  0.4816370000000  0.4380530000000 1.0
C      1  0.5163970000000  0.4877970000000  0.4638980000000 1.0
C      1  0.6126440000000  0.4626740000000  0.5030330000000 1.0
C      1  0.4763070000000  0.5427640000000  0.5363410000000 1.0
C      1  0.4361650000000  0.4653140000000  0.4114550000000 1.0
C      1  0.4206480000000  0.4440380000000  0.5479460000000 1.0
C      1  0.5094490000000  0.5098480000000  0.5768170000000 1.0
C      1  0.5764130000000  0.5642400000000  0.5586370000000 1.0
C      1  0.5465070000000  0.4757320000000  0.4913370000000 1.0
C      1  0.4728300000000  0.4347230000000  0.5199930000000 1.0
C      1  0.4327300000000  0.4185460000000  0.5402910000000 1.0
C      1  0.4249500000000  0.4626520000000  0.4555820000000 1.0
C      1  0.4689100000000  0.4310670000000  0.4696910000000 1.0
C      1  0.5074020000000  0.5878590000000  0.5891020000000 1.0
C      1  0.4984230000000  0.6042050000000  0.5658910000000 1.0
C      1  0.5914060000000  0.4435870000000  0.4993860000000 1.0
C      1  0.5147950000000  0.4506650000000  0.3877950000000 1.0
C      1  0.5634410000000  0.4145700000000  0.4503230000000 1.0
C      1  0.4821230000000  0.5263220000000  0.4749200000000 1.0
C      1  0.5034190000000  0.4290330000000  0.4040790000000 1.0
C      1  0.5463360000000  0.5491200000000  0.4096080000000 1.0
C      1  0.5680110000000  0.5736490000000  0.4704000000000 1.0
C      1  0.5737480000000  0.4322930000000  0.5193450000000 1.0
C      1  0.4033660000000  0.5119800000000  0.4635550000000 1.0
C      1  0.5580710000000  0.5602300000000  0.5815480000000 1.0
C      1  0.4290240000000  0.4204400000000  0.4286650000000 1.0
C      1  0.5163480000000  0.4799400000000  0.3919860000000 1.0
C      1  0.5094930000000  0.4599600000000  0.4524000000000 1.0
C      1  0.5355030000000  0.5390960000000  0.4670540000000 1.0
C      1  0.5224690000000  0.5236750000000  0.5368880000000 1.0
C      1  0.4573230000000  0.5504140000000  0.5167870000000 1.0
C      1  0.5955440000000  0.5048900000000  0.5162440000000 1.0
C      1  0.5325060000000  0.4698450000000  0.5323440000000 1.0
C      1  0.4497410000000  0.3867420000000  0.5036970000000 1.0
C      1  0.5221610000000  0.4599640000000  0.5988820000000 1.0
C      1  0.5873860000000  0.5831000000000  0.5380960000000 1.0
C      1  0.4880040000000  0.5166370000000  0.3767850000000 1.0
C      1  0.4237750000000  0.4211460000000  0.4864960000000 1.0
C      1  0.5302510000000  0.5384360000000  0.5139850000000 1.0
C      1  0.5413780000000  0.4375050000000  0.5352010000000 1.0
C      1  0.5699030000000  0.5973550000000  0.5180150000000 1.0
C      1  0.5584110000000  0.4097550000000  0.5042950000000 1.0
C      1  0.4312270000000  0.4077140000000  0.5126050000000 1.0
C      1  0.4731080000000  0.5158700000000  0.4489750000000 1.0
END
