TITL C-3909787-7025-36 59.6613413939407 125000 -16559.9883432707 0 0 113 (C1) n - 1
REM
REM in /home/nfs/bkarasulu/CARBON/AIRSS/Generating-Clusters/ReaxFF-fromJPCA2015/Units_Real/with-SteepDescent/Only-C1/SD-CG/Try1-3A/FIRE-CG
REM
REM
REM
REM
REM
REM ./C.cell (11c1c37f851c82e70ff6c80c92926a4b)
REM
REM compiler GCC version 9.2.1 20190827 (Red Hat 9.2.1-1)
REM options -cpp -mtune=generic -march=x86-64 -g -O0 -fpre-include=/usr/include/finclude/math-vector-fortran.h
REM seed 1620112496 -1671253168 -150755497 -1873044245 1954663956 30493928 591091510 846074290 -2025984942 -2030045788 -911239163 1714539798 179853488 1409154333 84463231 677423220 -1261332126 840377993 -1127428646 -650688411 -157299939 -286103757 -1733449712 1773437824 -640737044 124032943 209591608 -747932592 -2105318028 -2030544745 -553477713 -159526045 -1090411857
REM
CELL 1.54180   50.00000   50.00000   50.00000   90.00000   90.00000   90.00000
LATT -1
SFAC C  
C      1  0.5356480000000  0.5901430000000  0.5061570000000 1.0
C      1  0.4848550000000  0.4904850000000  0.5061620000000 1.0
C      1  0.4588710000000  0.4533950000000  0.4322360000000 1.0
C      1  0.4664870000000  0.4962820000000  0.4118510000000 1.0
C      1  0.5239450000000  0.4634850000000  0.5681520000000 1.0
C      1  0.4687110000000  0.5379620000000  0.5736190000000 1.0
C      1  0.4959980000000  0.5486270000000  0.5765270000000 1.0
C      1  0.4773440000000  0.5777830000000  0.4635510000000 1.0
C      1  0.5846740000000  0.4794860000000  0.5470090000000 1.0
C      1  0.4862790000000  0.4129170000000  0.5332110000000 1.0
C      1  0.4287500000000  0.5572780000000  0.5085940000000 1.0
C      1  0.4257980000000  0.4787190000000  0.4483780000000 1.0
C      1  0.4336950000000  0.4570770000000  0.5020320000000 1.0
C      1  0.4110170000000  0.5224560000000  0.4754040000000 1.0
C      1  0.5942220000000  0.4740110000000  0.5195340000000 1.0
C      1  0.4837750000000  0.5707050000000  0.5075320000000 1.0
C      1  0.5130010000000  0.4851810000000  0.4725370000000 1.0
C      1  0.4457550000000  0.5293970000000  0.4514190000000 1.0
C      1  0.5620130000000  0.5852240000000  0.4944050000000 1.0
C      1  0.4367960000000  0.4504070000000  0.4544220000000 1.0
C      1  0.4883860000000  0.4013380000000  0.4675130000000 1.0
C      1  0.5806710000000  0.5345740000000  0.5465100000000 1.0
C      1  0.5057050000000  0.4740390000000  0.4980990000000 1.0
C      1  0.4876890000000  0.4605390000000  0.4364910000000 1.0
C      1  0.4494700000000  0.4610760000000  0.4786230000000 1.0
C      1  0.5228790000000  0.5172000000000  0.5272950000000 1.0
C      1  0.5285920000000  0.5102080000000  0.5930520000000 1.0
C      1  0.5252280000000  0.5782420000000  0.4541880000000 1.0
C      1  0.4318790000000  0.4409850000000  0.5403800000000 1.0
C      1  0.5804040000000  0.4810730000000  0.4932290000000 1.0
C      1  0.5508060000000  0.4781810000000  0.5041350000000 1.0
C      1  0.5213920000000  0.5025060000000  0.4250220000000 1.0
C      1  0.4350670000000  0.5646250000000  0.4830010000000 1.0
C      1  0.5780140000000  0.4548480000000  0.5325150000000 1.0
C      1  0.4445510000000  0.5513330000000  0.5333650000000 1.0
C      1  0.5093300000000  0.5666120000000  0.5549620000000 1.0
C      1  0.5223590000000  0.4266040000000  0.4449490000000 1.0
C      1  0.5158670000000  0.5545510000000  0.4399500000000 1.0
C      1  0.4601210000000  0.5743190000000  0.4869470000000 1.0
C      1  0.4673900000000  0.4840690000000  0.4759430000000 1.0
C      1  0.4893320000000  0.4778740000000  0.4578230000000 1.0
C      1  0.4883200000000  0.5411110000000  0.5025280000000 1.0
C      1  0.4747110000000  0.5237490000000  0.4108440000000 1.0
C      1  0.4644230000000  0.5128000000000  0.5572030000000 1.0
C      1  0.5817560000000  0.5592540000000  0.4991970000000 1.0
C      1  0.5711830000000  0.4571320000000  0.4709250000000 1.0
C      1  0.4494160000000  0.4125840000000  0.4642630000000 1.0
C      1  0.5361440000000  0.5586250000000  0.5460610000000 1.0
C      1  0.4564870000000  0.4544830000000  0.5208750000000 1.0
C      1  0.5519880000000  0.5848270000000  0.4659680000000 1.0
C      1  0.5172000000000  0.4798640000000  0.5466160000000 1.0
C      1  0.4657250000000  0.5408050000000  0.4331230000000 1.0
C      1  0.4178790000000  0.5290920000000  0.5036980000000 1.0
C      1  0.4981240000000  0.4109340000000  0.4436810000000 1.0
C      1  0.5287790000000  0.4354430000000  0.5232270000000 1.0
C      1  0.4866150000000  0.5586980000000  0.4430300000000 1.0
C      1  0.4239080000000  0.4188400000000  0.4659420000000 1.0
C      1  0.5037910000000  0.4032560000000  0.5126490000000 1.0
C      1  0.5132550000000  0.4871070000000  0.5991030000000 1.0
C      1  0.5335790000000  0.4749370000000  0.4314190000000 1.0
C      1  0.5066280000000  0.5897400000000  0.4984940000000 1.0
C      1  0.4148710000000  0.4931780000000  0.4711820000000 1.0
C      1  0.5358700000000  0.4904710000000  0.5267880000000 1.0
C      1  0.5733600000000  0.5056530000000  0.5561880000000 1.0
C      1  0.4697400000000  0.4624140000000  0.5678720000000 1.0
C      1  0.5564560000000  0.4358970000000  0.4831940000000 1.0
C      1  0.5418620000000  0.5439250000000  0.4920770000000 1.0
C      1  0.5113400000000  0.4591170000000  0.5932190000000 1.0
C      1  0.4809990000000  0.5290000000000  0.4777840000000 1.0
C      1  0.5061620000000  0.5256790000000  0.5880250000000 1.0
C      1  0.5373490000000  0.5425090000000  0.5218100000000 1.0
C      1  0.5611910000000  0.5080780000000  0.4640320000000 1.0
C      1  0.4551750000000  0.5249100000000  0.5300340000000 1.0
C      1  0.4252530000000  0.5451540000000  0.4632320000000 1.0
C      1  0.4370960000000  0.5026280000000  0.5693640000000 1.0
C      1  0.5559790000000  0.4698610000000  0.4499730000000 1.0
C      1  0.4959290000000  0.5030400000000  0.4109150000000 1.0
C      1  0.4690060000000  0.5782010000000  0.5537620000000 1.0
C      1  0.5431140000000  0.4858790000000  0.4725600000000 1.0
C      1  0.4834940000000  0.4838110000000  0.5525950000000 1.0
C      1  0.5159680000000  0.4521830000000  0.4313320000000 1.0
C      1  0.5257850000000  0.4207400000000  0.5496810000000 1.0
C      1  0.5333700000000  0.4223830000000  0.4717780000000 1.0
C      1  0.5790320000000  0.5430850000000  0.4537840000000 1.0
C      1  0.5030020000000  0.5898360000000  0.4694910000000 1.0
C      1  0.4965650000000  0.5176470000000  0.5157430000000 1.0
C      1  0.5841630000000  0.5086300000000  0.4804280000000 1.0
C      1  0.5532570000000  0.5171060000000  0.5730080000000 1.0
C      1  0.5838530000000  0.5448120000000  0.5207070000000 1.0
C      1  0.5549740000000  0.4468030000000  0.5129440000000 1.0
C      1  0.5590270000000  0.5254870000000  0.4416180000000 1.0
C      1  0.4979590000000  0.4209090000000  0.5604320000000 1.0
C      1  0.4737140000000  0.4222060000000  0.4537520000000 1.0
C      1  0.5578010000000  0.5567200000000  0.4668450000000 1.0
C      1  0.4153770000000  0.4794380000000  0.4986640000000 1.0
C      1  0.4891180000000  0.4433880000000  0.5781570000000 1.0
C      1  0.5313410000000  0.5292560000000  0.4328200000000 1.0
C      1  0.4400570000000  0.4592490000000  0.5608810000000 1.0
C      1  0.4714070000000  0.4783640000000  0.5268220000000 1.0
C      1  0.4219850000000  0.4845780000000  0.5528850000000 1.0
C      1  0.5568460000000  0.5440240000000  0.5621330000000 1.0
C      1  0.5119860000000  0.4050570000000  0.4853840000000 1.0
C      1  0.4506460000000  0.5587890000000  0.5621070000000 1.0
C      1  0.4799430000000  0.4364890000000  0.5168140000000 1.0
C      1  0.5237920000000  0.5303390000000  0.4809440000000 1.0
C      1  0.4119980000000  0.4925370000000  0.5250660000000 1.0
C      1  0.5053120000000  0.5164450000000  0.4695590000000 1.0
C      1  0.4912750000000  0.5815660000000  0.5371440000000 1.0
C      1  0.5907890000000  0.5373530000000  0.4806860000000 1.0
C      1  0.5053140000000  0.4475110000000  0.5090820000000 1.0
C      1  0.4433490000000  0.5152200000000  0.5053960000000 1.0
C      1  0.4471440000000  0.4797280000000  0.4272800000000 1.0
C      1  0.4569260000000  0.5136220000000  0.4764600000000 1.0
END
