TITL C-3909650-4365-7 43.3569398238406 125000 -24046.0097649714 0 0 160 (C1) n - 1
REM
REM in /home/nfs/bkarasulu/CARBON/AIRSS/Generating-Clusters/ReaxFF-fromJPCA2015/Units_Real/with-SteepDescent/Only-C1/SD-CG/Try1-3A/FIRE-CG
REM
REM
REM
REM
REM
REM ./C.cell (11c1c37f851c82e70ff6c80c92926a4b)
REM
REM compiler GCC version 9.2.1 20190827 (Red Hat 9.2.1-1)
REM options -cpp -mtune=generic -march=x86-64 -g -O0 -fpre-include=/usr/include/finclude/math-vector-fortran.h
REM seed -594669918 2080941792 839223950 -1921801577 512228229 -1879274425 316685808 -130205062 1543521865 996081671 -1750846892 -89017473 -1326879498 -1942410968 -1483402671 -1624782506 -1219658928 1063180095 -633577052 1220823429 695315590 631564936 -384277870 -47899042 -1124705156 1117673443 753085960 -1349590854 1150666600 1630538142 -1244390970 2096654896 1846840233
REM
CELL 1.54180   50.00000   50.00000   50.00000   90.00000   90.00000   90.00000
LATT -1
SFAC C  
C      1  0.4289290000000  0.4942080000000  0.5680000000000 1.0
C      1  0.4537550000000  0.3949070000000  0.5141630000000 1.0
C      1  0.5679150000000  0.4941040000000  0.4195830000000 1.0
C      1  0.5423800000000  0.5040080000000  0.4064890000000 1.0
C      1  0.5471690000000  0.4933080000000  0.5305840000000 1.0
C      1  0.5891620000000  0.5048000000000  0.5495460000000 1.0
C      1  0.5071010000000  0.5094670000000  0.5054880000000 1.0
C      1  0.4567010000000  0.4508710000000  0.5913830000000 1.0
C      1  0.5037710000000  0.4940870000000  0.3754310000000 1.0
C      1  0.4648710000000  0.5319910000000  0.4704750000000 1.0
C      1  0.4926230000000  0.5470640000000  0.4704120000000 1.0
C      1  0.5408090000000  0.4020130000000  0.4883240000000 1.0
C      1  0.4678370000000  0.4235830000000  0.4121770000000 1.0
C      1  0.5840970000000  0.5484290000000  0.4679370000000 1.0
C      1  0.5061820000000  0.5610600000000  0.5750990000000 1.0
C      1  0.4432440000000  0.5320800000000  0.4108140000000 1.0
C      1  0.4813730000000  0.4825700000000  0.4764730000000 1.0
C      1  0.4326720000000  0.4643020000000  0.4799400000000 1.0
C      1  0.4622800000000  0.5250880000000  0.3890810000000 1.0
C      1  0.5287870000000  0.4420730000000  0.5839080000000 1.0
C      1  0.5711250000000  0.4924640000000  0.5684620000000 1.0
C      1  0.4541860000000  0.4442380000000  0.4782280000000 1.0
C      1  0.5229520000000  0.5521970000000  0.5186180000000 1.0
C      1  0.5562260000000  0.4247630000000  0.5286460000000 1.0
C      1  0.4666310000000  0.4862520000000  0.4547340000000 1.0
C      1  0.4574280000000  0.5802840000000  0.4392420000000 1.0
C      1  0.5181430000000  0.4967150000000  0.6076450000000 1.0
C      1  0.4726380000000  0.4249300000000  0.5921190000000 1.0
C      1  0.4907940000000  0.4237840000000  0.4502200000000 1.0
C      1  0.5510360000000  0.4611590000000  0.5890140000000 1.0
C      1  0.5134750000000  0.5050640000000  0.5800480000000 1.0
C      1  0.5850410000000  0.5117450000000  0.4334470000000 1.0
C      1  0.4808470000000  0.5913580000000  0.4556570000000 1.0
C      1  0.4369870000000  0.4439690000000  0.5708930000000 1.0
C      1  0.4383360000000  0.4618840000000  0.5295990000000 1.0
C      1  0.5617980000000  0.4167500000000  0.4993980000000 1.0
C      1  0.5197730000000  0.5258730000000  0.4835690000000 1.0
C      1  0.5266970000000  0.5973590000000  0.5306360000000 1.0
C      1  0.4782590000000  0.4759570000000  0.5424470000000 1.0
C      1  0.5953020000000  0.4912210000000  0.4508480000000 1.0
C      1  0.4844470000000  0.4899830000000  0.4129730000000 1.0
C      1  0.5724090000000  0.5332210000000  0.4459170000000 1.0
C      1  0.5121110000000  0.4553550000000  0.5632330000000 1.0
C      1  0.4644060000000  0.4998410000000  0.5366620000000 1.0
C      1  0.5346960000000  0.4722590000000  0.6116370000000 1.0
C      1  0.5768970000000  0.4719940000000  0.4373390000000 1.0
C      1  0.4981360000000  0.5956400000000  0.5338720000000 1.0
C      1  0.3927510000000  0.5189970000000  0.4693500000000 1.0
C      1  0.6098690000000  0.5434130000000  0.4767920000000 1.0
C      1  0.5725430000000  0.4462750000000  0.5411880000000 1.0
C      1  0.4453380000000  0.4199790000000  0.5551400000000 1.0
C      1  0.4340430000000  0.4139020000000  0.5292800000000 1.0
C      1  0.4695920000000  0.4768540000000  0.5883010000000 1.0
C      1  0.4348030000000  0.5479610000000  0.4706010000000 1.0
C      1  0.4933080000000  0.5547890000000  0.5164740000000 1.0
C      1  0.5176910000000  0.3946090000000  0.4805430000000 1.0
C      1  0.4621860000000  0.5751210000000  0.5680790000000 1.0
C      1  0.5352870000000  0.4614010000000  0.4529690000000 1.0
C      1  0.5135130000000  0.4376570000000  0.4055180000000 1.0
C      1  0.3995270000000  0.4579090000000  0.5156950000000 1.0
C      1  0.4709970000000  0.4397050000000  0.5021270000000 1.0
C      1  0.4211020000000  0.4834640000000  0.4334950000000 1.0
C      1  0.5454100000000  0.5109880000000  0.5763440000000 1.0
C      1  0.3954860000000  0.4911940000000  0.4796490000000 1.0
C      1  0.5089360000000  0.5497040000000  0.4015960000000 1.0
C      1  0.4064140000000  0.5210550000000  0.4450590000000 1.0
C      1  0.5732950000000  0.4375130000000  0.4792140000000 1.0
C      1  0.5999010000000  0.4894840000000  0.5275420000000 1.0
C      1  0.5425200000000  0.5149320000000  0.5485970000000 1.0
C      1  0.4273390000000  0.4672690000000  0.5569750000000 1.0
C      1  0.5242110000000  0.6010230000000  0.4785920000000 1.0
C      1  0.5185070000000  0.4102510000000  0.5398660000000 1.0
C      1  0.4732730000000  0.5127600000000  0.4503820000000 1.0
C      1  0.4804520000000  0.5246370000000  0.5399260000000 1.0
C      1  0.5387970000000  0.5424900000000  0.4960740000000 1.0
C      1  0.4607520000000  0.5240460000000  0.4979640000000 1.0
C      1  0.4959740000000  0.5329890000000  0.5889010000000 1.0
C      1  0.4618350000000  0.5843100000000  0.4996460000000 1.0
C      1  0.5696530000000  0.5458230000000  0.5629050000000 1.0
C      1  0.4398180000000  0.4649390000000  0.4213330000000 1.0
C      1  0.5189150000000  0.4463840000000  0.4892300000000 1.0
C      1  0.4763270000000  0.4990500000000  0.3857350000000 1.0
C      1  0.4031160000000  0.5102480000000  0.5248350000000 1.0
C      1  0.5483970000000  0.5539950000000  0.4170680000000 1.0
C      1  0.5344390000000  0.5647990000000  0.5739410000000 1.0
C      1  0.5669430000000  0.5522810000000  0.4945730000000 1.0
C      1  0.5288240000000  0.4838220000000  0.3882950000000 1.0
C      1  0.5511560000000  0.5411230000000  0.5819040000000 1.0
C      1  0.5925370000000  0.4597360000000  0.5247000000000 1.0
C      1  0.4835790000000  0.6019270000000  0.5084430000000 1.0
C      1  0.5192390000000  0.4457390000000  0.6127640000000 1.0
C      1  0.5869890000000  0.5354410000000  0.5443510000000 1.0
C      1  0.4357530000000  0.4780710000000  0.5055170000000 1.0
C      1  0.5442960000000  0.5357110000000  0.4392220000000 1.0
C      1  0.4135300000000  0.4767790000000  0.4618440000000 1.0
C      1  0.4091180000000  0.5396650000000  0.4830710000000 1.0
C      1  0.5398710000000  0.5972250000000  0.5039290000000 1.0
C      1  0.4947680000000  0.5106800000000  0.4307700000000 1.0
C      1  0.5607430000000  0.4916380000000  0.4835730000000 1.0
C      1  0.4715280000000  0.5387310000000  0.5190300000000 1.0
C      1  0.4280870000000  0.5409820000000  0.5537720000000 1.0
C      1  0.4392780000000  0.5794090000000  0.5196490000000 1.0
C      1  0.4121240000000  0.4316440000000  0.5192040000000 1.0
C      1  0.5244200000000  0.5337610000000  0.5407220000000 1.0
C      1  0.5403970000000  0.5093500000000  0.4735380000000 1.0
C      1  0.4505820000000  0.5832310000000  0.5445040000000 1.0
C      1  0.5101630000000  0.5709550000000  0.4220110000000 1.0
C      1  0.4936860000000  0.6030410000000  0.4801880000000 1.0
C      1  0.4711500000000  0.4117850000000  0.5655630000000 1.0
C      1  0.5882730000000  0.5482960000000  0.5176120000000 1.0
C      1  0.4954480000000  0.5673370000000  0.4481530000000 1.0
C      1  0.4468030000000  0.4361620000000  0.4271830000000 1.0
C      1  0.4083460000000  0.5360710000000  0.5121800000000 1.0
C      1  0.5641350000000  0.5772940000000  0.5331880000000 1.0
C      1  0.5061610000000  0.5160490000000  0.5331000000000 1.0
C      1  0.4223630000000  0.5127560000000  0.4247280000000 1.0
C      1  0.4832350000000  0.3967690000000  0.5220970000000 1.0
C      1  0.5147530000000  0.4416960000000  0.4620480000000 1.0
C      1  0.4531670000000  0.5005210000000  0.5846080000000 1.0
C      1  0.4626280000000  0.4336560000000  0.4530480000000 1.0
C      1  0.5527190000000  0.4845930000000  0.5102260000000 1.0
C      1  0.5249930000000  0.5104460000000  0.4337220000000 1.0
C      1  0.3951280000000  0.4863470000000  0.5087720000000 1.0
C      1  0.4905080000000  0.5794280000000  0.5591030000000 1.0
C      1  0.5439610000000  0.5832650000000  0.5511010000000 1.0
C      1  0.5681130000000  0.4641170000000  0.5651230000000 1.0
C      1  0.4952720000000  0.4848520000000  0.4984700000000 1.0
C      1  0.5233450000000  0.4560740000000  0.3967870000000 1.0
C      1  0.4590930000000  0.5559260000000  0.4171810000000 1.0
C      1  0.5344020000000  0.5355280000000  0.3993900000000 1.0
C      1  0.5068260000000  0.5238860000000  0.6164580000000 1.0
C      1  0.5863950000000  0.4499830000000  0.4994580000000 1.0
C      1  0.4791170000000  0.5484000000000  0.3968580000000 1.0
C      1  0.5177580000000  0.4535860000000  0.5358860000000 1.0
C      1  0.5902400000000  0.4936620000000  0.4795070000000 1.0
C      1  0.5370380000000  0.5810240000000  0.4282300000000 1.0
C      1  0.4498800000000  0.5476150000000  0.5726370000000 1.0
C      1  0.4940490000000  0.4359150000000  0.6062300000000 1.0
C      1  0.4389660000000  0.5678880000000  0.4556200000000 1.0
C      1  0.5648610000000  0.5818780000000  0.5053650000000 1.0
C      1  0.4834560000000  0.5649190000000  0.4919370000000 1.0
C      1  0.4665070000000  0.4531270000000  0.5281460000000 1.0
C      1  0.5091140000000  0.4620170000000  0.5099610000000 1.0
C      1  0.5630000000000  0.4526340000000  0.4542710000000 1.0
C      1  0.4164230000000  0.5141580000000  0.5509380000000 1.0
C      1  0.4498480000000  0.5017200000000  0.5110460000000 1.0
C      1  0.4654070000000  0.5272400000000  0.5849970000000 1.0
C      1  0.6054610000000  0.5029590000000  0.5026250000000 1.0
C      1  0.4603020000000  0.3890150000000  0.4872410000000 1.0
C      1  0.5337960000000  0.5918630000000  0.4538000000000 1.0
C      1  0.4667410000000  0.4727520000000  0.4288570000000 1.0
C      1  0.5294920000000  0.4305940000000  0.5238880000000 1.0
C      1  0.4234240000000  0.5550350000000  0.5287450000000 1.0
C      1  0.4944180000000  0.4194620000000  0.4195970000000 1.0
C      1  0.6093760000000  0.5332570000000  0.5032560000000 1.0
C      1  0.4891490000000  0.4166350000000  0.5002330000000 1.0
C      1  0.4934160000000  0.4007820000000  0.5493020000000 1.0
C      1  0.4899730000000  0.4001620000000  0.4745210000000 1.0
C      1  0.4939780000000  0.4785000000000  0.5693410000000 1.0
C      1  0.5312230000000  0.4912310000000  0.4547520000000 1.0
END
