TITL C-3909651-5577-29 1.76649081845319 125000 -15083.5879941667 0 0 98 (C1) n - 1
REM
REM in /home/nfs/bkarasulu/CARBON/AIRSS/Generating-Clusters/ReaxFF-fromJPCA2015/Units_Real/with-SteepDescent/Only-C1/SD-CG/Try1-3A/FIRE-CG
REM
REM
REM
REM
REM
REM ./C.cell (11c1c37f851c82e70ff6c80c92926a4b)
REM
REM compiler GCC version 9.2.1 20190827 (Red Hat 9.2.1-1)
REM options -cpp -mtune=generic -march=x86-64 -g -O0 -fpre-include=/usr/include/finclude/math-vector-fortran.h
REM seed -1622150132 -835397498 463376136 -1063337330 1700458045 273723877 748534204 -1110443567 457777277 1247558865 1512556711 -1369650803 -468606186 593607666 1105854197 819334425 384140178 -1116357011 544929856 -2043815104 921849157 44201653 1464252617 1741389169 -1043921002 -1451240089 831051509 2083131985 -1470828897 -252198244 1336931863 21905512 82853625
REM
CELL 1.54180   50.00000   50.00000   50.00000   90.00000   90.00000   90.00000
LATT -1
SFAC C  
C      1  0.5349170000000  0.4255780000000  0.5061130000000 1.0
C      1  0.4628350000000  0.4655230000000  0.4254330000000 1.0
C      1  0.5514890000000  0.5213170000000  0.5761660000000 1.0
C      1  0.4449020000000  0.5505470000000  0.5301930000000 1.0
C      1  0.4616480000000  0.5452560000000  0.5549020000000 1.0
C      1  0.4989490000000  0.5484090000000  0.4186400000000 1.0
C      1  0.4696130000000  0.4296780000000  0.5567490000000 1.0
C      1  0.5431530000000  0.5357700000000  0.4731080000000 1.0
C      1  0.4922600000000  0.4376880000000  0.5168820000000 1.0
C      1  0.4574260000000  0.5216720000000  0.5709090000000 1.0
C      1  0.4473660000000  0.4751060000000  0.5818060000000 1.0
C      1  0.4873570000000  0.5587500000000  0.5578740000000 1.0
C      1  0.4781750000000  0.5088400000000  0.5864000000000 1.0
C      1  0.5681210000000  0.4496810000000  0.5615710000000 1.0
C      1  0.5612570000000  0.5481090000000  0.5271220000000 1.0
C      1  0.5391260000000  0.5353870000000  0.5120270000000 1.0
C      1  0.5055010000000  0.5143590000000  0.5735140000000 1.0
C      1  0.5548170000000  0.4937710000000  0.5431890000000 1.0
C      1  0.5079280000000  0.5007150000000  0.5429660000000 1.0
C      1  0.4792690000000  0.5831570000000  0.5135000000000 1.0
C      1  0.5378230000000  0.4703890000000  0.4275830000000 1.0
C      1  0.4140890000000  0.5176810000000  0.4827510000000 1.0
C      1  0.5717470000000  0.5137750000000  0.5558200000000 1.0
C      1  0.4860080000000  0.4724870000000  0.4120370000000 1.0
C      1  0.5460630000000  0.5633490000000  0.5476520000000 1.0
C      1  0.5176890000000  0.4998640000000  0.4936750000000 1.0
C      1  0.5240970000000  0.4190510000000  0.4792520000000 1.0
C      1  0.5046660000000  0.5041600000000  0.4473740000000 1.0
C      1  0.4860250000000  0.4829620000000  0.4565870000000 1.0
C      1  0.4455500000000  0.4380000000000  0.4650160000000 1.0
C      1  0.5139850000000  0.5780390000000  0.4551710000000 1.0
C      1  0.4798320000000  0.5169420000000  0.4354820000000 1.0
C      1  0.4939890000000  0.5923780000000  0.4894810000000 1.0
C      1  0.5443430000000  0.5429810000000  0.4448290000000 1.0
C      1  0.5365600000000  0.4361300000000  0.4577280000000 1.0
C      1  0.4306740000000  0.4457350000000  0.4885980000000 1.0
C      1  0.4917020000000  0.4574860000000  0.4703770000000 1.0
C      1  0.5444510000000  0.4530430000000  0.5026760000000 1.0
C      1  0.5149070000000  0.5182270000000  0.4721170000000 1.0
C      1  0.4807490000000  0.5019680000000  0.4103340000000 1.0
C      1  0.4089940000000  0.5124890000000  0.5118870000000 1.0
C      1  0.5719760000000  0.5061260000000  0.4544520000000 1.0
C      1  0.4656120000000  0.4312610000000  0.5273750000000 1.0
C      1  0.5319620000000  0.5002710000000  0.4252290000000 1.0
C      1  0.5252580000000  0.5609780000000  0.5070570000000 1.0
C      1  0.4857150000000  0.4875940000000  0.5252990000000 1.0
C      1  0.5223790000000  0.4717600000000  0.5000580000000 1.0
C      1  0.5788680000000  0.4834470000000  0.4929780000000 1.0
C      1  0.5707110000000  0.4789210000000  0.4647320000000 1.0
C      1  0.5116920000000  0.4588260000000  0.4228470000000 1.0
C      1  0.5199670000000  0.4321830000000  0.5565620000000 1.0
C      1  0.4349570000000  0.4844760000000  0.4509260000000 1.0
C      1  0.5546440000000  0.5175700000000  0.4343350000000 1.0
C      1  0.4624810000000  0.5191130000000  0.4752980000000 1.0
C      1  0.4570770000000  0.4871160000000  0.5353850000000 1.0
C      1  0.4413020000000  0.4439590000000  0.5154620000000 1.0
C      1  0.5713550000000  0.4688000000000  0.5387940000000 1.0
C      1  0.4861270000000  0.5869470000000  0.4612610000000 1.0
C      1  0.4268350000000  0.5314350000000  0.5213140000000 1.0
C      1  0.5201160000000  0.5797480000000  0.4844120000000 1.0
C      1  0.4416980000000  0.4567550000000  0.4418820000000 1.0
C      1  0.5795030000000  0.5112560000000  0.5031760000000 1.0
C      1  0.4557600000000  0.5675830000000  0.5076220000000 1.0
C      1  0.4135180000000  0.4912980000000  0.4696580000000 1.0
C      1  0.4998680000000  0.5233830000000  0.4003900000000 1.0
C      1  0.5322860000000  0.5096200000000  0.5305010000000 1.0
C      1  0.4599990000000  0.4939070000000  0.4630320000000 1.0
C      1  0.4488770000000  0.5609350000000  0.4798300000000 1.0
C      1  0.5250050000000  0.5104490000000  0.3955520000000 1.0
C      1  0.5242470000000  0.5758120000000  0.5326450000000 1.0
C      1  0.4948460000000  0.4380410000000  0.5705170000000 1.0
C      1  0.4954710000000  0.5782780000000  0.5376460000000 1.0
C      1  0.5214500000000  0.5588340000000  0.4345820000000 1.0
C      1  0.5693660000000  0.5236260000000  0.4785300000000 1.0
C      1  0.5108430000000  0.4439360000000  0.4473760000000 1.0
C      1  0.4989420000000  0.4632090000000  0.5858850000000 1.0
C      1  0.4945010000000  0.5095440000000  0.5058430000000 1.0
C      1  0.4961130000000  0.4620340000000  0.5038150000000 1.0
C      1  0.5160180000000  0.4251950000000  0.5283350000000 1.0
C      1  0.5314590000000  0.5018380000000  0.5845560000000 1.0
C      1  0.5088310000000  0.5447420000000  0.5717540000000 1.0
C      1  0.5715160000000  0.4614530000000  0.5103790000000 1.0
C      1  0.4947560000000  0.4120550000000  0.4755730000000 1.0
C      1  0.4118840000000  0.4692900000000  0.4890660000000 1.0
C      1  0.5799020000000  0.5254550000000  0.5297310000000 1.0
C      1  0.4891680000000  0.5266420000000  0.4843580000000 1.0
C      1  0.4750410000000  0.4803670000000  0.5919520000000 1.0
C      1  0.4445710000000  0.4963290000000  0.5600700000000 1.0
C      1  0.4118020000000  0.4824880000000  0.5145050000000 1.0
C      1  0.4668620000000  0.5653580000000  0.4568220000000 1.0
C      1  0.4344800000000  0.4696540000000  0.5285390000000 1.0
C      1  0.5261510000000  0.4732700000000  0.5846290000000 1.0
C      1  0.5525010000000  0.4601770000000  0.4510230000000 1.0
C      1  0.4742490000000  0.4321090000000  0.4693450000000 1.0
C      1  0.4376560000000  0.5341670000000  0.4758370000000 1.0
C      1  0.4752810000000  0.5464310000000  0.4354140000000 1.0
C      1  0.5392080000000  0.4501480000000  0.5699470000000 1.0
C      1  0.5372820000000  0.5473570000000  0.5704180000000 1.0
END
