TITL C-3909779-8285-33 -1.50610869655252 125000 -14525.1655430258 0 0 98 (C1) n - 1
REM
REM in /home/nfs/bkarasulu/CARBON/AIRSS/Generating-Clusters/ReaxFF-fromJPCA2015/Units_Real/with-SteepDescent/Only-C1/SD-CG/Try1-3A/FIRE-CG
REM
REM
REM
REM
REM
REM ./C.cell (11c1c37f851c82e70ff6c80c92926a4b)
REM
REM compiler GCC version 9.2.1 20190827 (Red Hat 9.2.1-1)
REM options -cpp -mtune=generic -march=x86-64 -g -O0 -fpre-include=/usr/include/finclude/math-vector-fortran.h
REM seed -77844188 2016730873 -350531806 -715187794 2959637 -939805151 -2083142384 106974682 -1839767731 1506137009 -350496701 1183977011 2102631675 -12277744 -1668404771 -2041442303 -1083876641 225984815 -1805643414 -86357130 -1772519380 853947884 -1124813588 -1108205266 90120733 -1278186734 -1679327623 321565495 460029349 -1766316845 115720104 1668976515 -1717186245
REM
CELL 1.54180   50.00000   50.00000   50.00000   90.00000   90.00000   90.00000
LATT -1
SFAC C  
C      1  0.4500290000000  0.5216340000000  0.4335790000000 1.0
C      1  0.4394110000000  0.5468860000000  0.5338550000000 1.0
C      1  0.5012420000000  0.4413790000000  0.4485650000000 1.0
C      1  0.5330740000000  0.5780630000000  0.5304370000000 1.0
C      1  0.4946410000000  0.5765940000000  0.4344980000000 1.0
C      1  0.4377110000000  0.4808090000000  0.4590670000000 1.0
C      1  0.5333900000000  0.4242880000000  0.5296140000000 1.0
C      1  0.4836810000000  0.5674790000000  0.5372220000000 1.0
C      1  0.4212900000000  0.5692100000000  0.4854870000000 1.0
C      1  0.5616540000000  0.5104180000000  0.4455950000000 1.0
C      1  0.5591880000000  0.5425620000000  0.5812320000000 1.0
C      1  0.4721740000000  0.5206340000000  0.5581030000000 1.0
C      1  0.4817780000000  0.4358610000000  0.5336160000000 1.0
C      1  0.5681590000000  0.4622360000000  0.5274280000000 1.0
C      1  0.4890390000000  0.4923420000000  0.4682720000000 1.0
C      1  0.4703360000000  0.5132730000000  0.4793390000000 1.0
C      1  0.4068240000000  0.5429390000000  0.4903540000000 1.0
C      1  0.4588540000000  0.5857340000000  0.4808730000000 1.0
C      1  0.5961800000000  0.5139630000000  0.5102870000000 1.0
C      1  0.5123760000000  0.5873370000000  0.4970190000000 1.0
C      1  0.4466030000000  0.5475620000000  0.4461540000000 1.0
C      1  0.5330760000000  0.4139660000000  0.5008590000000 1.0
C      1  0.5098880000000  0.4765850000000  0.4800830000000 1.0
C      1  0.5069210000000  0.5386830000000  0.5138120000000 1.0
C      1  0.4849470000000  0.4606690000000  0.4353000000000 1.0
C      1  0.4459260000000  0.5088190000000  0.4604240000000 1.0
C      1  0.5737440000000  0.4846080000000  0.5497140000000 1.0
C      1  0.4935120000000  0.4208900000000  0.5692960000000 1.0
C      1  0.4453560000000  0.4548920000000  0.4967860000000 1.0
C      1  0.4712570000000  0.5054780000000  0.5091730000000 1.0
C      1  0.4515630000000  0.5184880000000  0.5335810000000 1.0
C      1  0.5469330000000  0.4606980000000  0.4486810000000 1.0
C      1  0.4582400000000  0.4451910000000  0.4714650000000 1.0
C      1  0.5320300000000  0.5359050000000  0.4112640000000 1.0
C      1  0.4922540000000  0.4595670000000  0.5212210000000 1.0
C      1  0.4982460000000  0.5785620000000  0.4061500000000 1.0
C      1  0.4580410000000  0.4608640000000  0.4481550000000 1.0
C      1  0.4668240000000  0.4704880000000  0.5638460000000 1.0
C      1  0.4426360000000  0.4298450000000  0.5159760000000 1.0
C      1  0.4244280000000  0.4719390000000  0.4836320000000 1.0
C      1  0.4325240000000  0.4962460000000  0.5426150000000 1.0
C      1  0.5542560000000  0.5445450000000  0.5244040000000 1.0
C      1  0.5099940000000  0.3949490000000  0.4952400000000 1.0
C      1  0.4841620000000  0.5551730000000  0.5105220000000 1.0
C      1  0.4716420000000  0.5046170000000  0.4227980000000 1.0
C      1  0.5488060000000  0.5016480000000  0.4991200000000 1.0
C      1  0.4922980000000  0.5330270000000  0.4636120000000 1.0
C      1  0.5289330000000  0.5506690000000  0.5278650000000 1.0
C      1  0.5013200000000  0.4534460000000  0.4941950000000 1.0
C      1  0.5681480000000  0.5530300000000  0.5007410000000 1.0
C      1  0.5436430000000  0.5118670000000  0.4222610000000 1.0
C      1  0.4662770000000  0.4765820000000  0.5160320000000 1.0
C      1  0.4067210000000  0.4880680000000  0.5002590000000 1.0
C      1  0.4795390000000  0.4956640000000  0.5714600000000 1.0
C      1  0.4203930000000  0.4566900000000  0.5388230000000 1.0
C      1  0.4393200000000  0.4364470000000  0.5440330000000 1.0
C      1  0.5275070000000  0.4816900000000  0.5690630000000 1.0
C      1  0.5238790000000  0.5014880000000  0.5333240000000 1.0
C      1  0.5111100000000  0.5295410000000  0.5731660000000 1.0
C      1  0.5774450000000  0.4681490000000  0.4758080000000 1.0
C      1  0.5201330000000  0.4729860000000  0.5396790000000 1.0
C      1  0.5535180000000  0.4941080000000  0.5677690000000 1.0
C      1  0.4534750000000  0.4786020000000  0.5412990000000 1.0
C      1  0.4054520000000  0.5152300000000  0.4950890000000 1.0
C      1  0.5838560000000  0.4389170000000  0.5115970000000 1.0
C      1  0.5516680000000  0.5563240000000  0.4767650000000 1.0
C      1  0.4901830000000  0.5423740000000  0.5581860000000 1.0
C      1  0.5852290000000  0.5324950000000  0.4886980000000 1.0
C      1  0.5431100000000  0.5241580000000  0.5743650000000 1.0
C      1  0.5042440000000  0.5109390000000  0.5134000000000 1.0
C      1  0.5061210000000  0.5107960000000  0.4538130000000 1.0
C      1  0.5409180000000  0.4517560000000  0.5338860000000 1.0
C      1  0.5264860000000  0.5700950000000  0.4780500000000 1.0
C      1  0.4408990000000  0.5706150000000  0.4619150000000 1.0
C      1  0.5662820000000  0.5310670000000  0.4653200000000 1.0
C      1  0.4921770000000  0.4861300000000  0.4191100000000 1.0
C      1  0.4680570000000  0.4158630000000  0.5158380000000 1.0
C      1  0.5306030000000  0.4390790000000  0.4538040000000 1.0
C      1  0.5811410000000  0.5077990000000  0.5345640000000 1.0
C      1  0.4868730000000  0.4338290000000  0.4750430000000 1.0
C      1  0.5729810000000  0.4387470000000  0.4849080000000 1.0
C      1  0.4104710000000  0.4817310000000  0.5298920000000 1.0
C      1  0.4409110000000  0.5820590000000  0.5030220000000 1.0
C      1  0.4834520000000  0.4071780000000  0.4925880000000 1.0
C      1  0.5004250000000  0.5614110000000  0.4609150000000 1.0
C      1  0.4853100000000  0.5749190000000  0.4877660000000 1.0
C      1  0.5143570000000  0.4193730000000  0.5508580000000 1.0
C      1  0.5069340000000  0.5868000000000  0.5266810000000 1.0
C      1  0.4520140000000  0.5721960000000  0.5298560000000 1.0
C      1  0.5171680000000  0.5005040000000  0.4280880000000 1.0
C      1  0.5219060000000  0.5000900000000  0.4911100000000 1.0
C      1  0.5505760000000  0.5155710000000  0.5260760000000 1.0
C      1  0.5662250000000  0.4791610000000  0.4996810000000 1.0
C      1  0.5071000000000  0.5010660000000  0.5794160000000 1.0
C      1  0.5450030000000  0.4284860000000  0.4788060000000 1.0
C      1  0.5660940000000  0.4805420000000  0.4509570000000 1.0
C      1  0.4680220000000  0.4415320000000  0.5579660000000 1.0
C      1  0.5192510000000  0.5545970000000  0.4078670000000 1.0
END
