TITL C-3909648-4458-2 9.22368069852545e-09 125000 -748.995871650152 0 0 6 (Cs) n - 1
REM
REM in /home/nfs/bkarasulu/CARBON/AIRSS/Generating-Clusters/ReaxFF-fromJPCA2015/Units_Real/with-SteepDescent/Only-C1/SD-CG/Try1-3A/FIRE-CG
REM
REM
REM
REM
REM
REM ./C.cell (11c1c37f851c82e70ff6c80c92926a4b)
REM
REM compiler GCC version 9.2.1 20190827 (Red Hat 9.2.1-1)
REM options -cpp -mtune=generic -march=x86-64 -g -O0 -fpre-include=/usr/include/finclude/math-vector-fortran.h
REM seed -111061866 -1991044450 342630121 -104599773 613192899 -267701211 -299445094 1460796658 930779407 842675123 -1885551090 1624858477 -721694221 253765994 -957628435 -1334642836 -512645658 -1758896480 568733610 806348065 515263296 -1336651652 -1613295446 549052271 -791938910 -194534260 -65757801 -1632723760 643820867 135982770 1326698344 158779811 -1318430414
REM
CELL 1.54180   50.00000   50.00000   50.00000   90.00000   90.00000   90.00000
LATT -1
SFAC C  
C      1  0.5007930000000  0.5001110000000  0.4720590000000 1.0
C      1  0.4804930000000  0.5085900000000  0.4830170000000 1.0
C      1  0.5191290000000  0.4916170000000  0.5141590000000 1.0
C      1  0.4996160000000  0.4996250000000  0.5335280000000 1.0
C      1  0.4823160000000  0.5074120000000  0.5079290000000 1.0
C      1  0.5176530000000  0.4926460000000  0.4893080000000 1.0
END
