TITL C-3909777-8277-1 -0.937536470394973 125000 -10577.3429179148 0 0 71 (C1) n - 1
REM
REM in /home/nfs/bkarasulu/CARBON/AIRSS/Generating-Clusters/ReaxFF-fromJPCA2015/Units_Real/with-SteepDescent/Only-C1/SD-CG/Try1-3A/FIRE-CG
REM
REM
REM
REM
REM
REM ./C.cell (11c1c37f851c82e70ff6c80c92926a4b)
REM
REM compiler GCC version 9.2.1 20190827 (Red Hat 9.2.1-1)
REM options -cpp -mtune=generic -march=x86-64 -g -O0 -fpre-include=/usr/include/finclude/math-vector-fortran.h
REM seed -1670373065 2086313088 -1899677628 2024118180 165657239 -7382309 187315697 -331082050 1675794697 -1241969647 248164339 837573842 -515149499 1134017022 1164472420 628934769 1923955739 8821819 876463133 419982423 1094803436 -622894755 1887498763 109692216 -1683120495 1430066034 1580943900 1896048359 -805586998 1891591797 2088560508 -797174501 -1503686588
REM
CELL 1.54180   50.00000   50.00000   50.00000   90.00000   90.00000   90.00000
LATT -1
SFAC C  
C      1  0.4722050000000  0.4951380000000  0.5504050000000 1.0
C      1  0.4806000000000  0.4666660000000  0.4967020000000 1.0
C      1  0.5338330000000  0.5382520000000  0.5851260000000 1.0
C      1  0.5416180000000  0.5375020000000  0.4525900000000 1.0
C      1  0.5421160000000  0.4521730000000  0.4694990000000 1.0
C      1  0.5256950000000  0.5600510000000  0.4932950000000 1.0
C      1  0.5323910000000  0.4886810000000  0.4387680000000 1.0
C      1  0.4259050000000  0.5287360000000  0.5345920000000 1.0
C      1  0.4356080000000  0.4599840000000  0.5505570000000 1.0
C      1  0.4236590000000  0.4982100000000  0.5369750000000 1.0
C      1  0.4948010000000  0.5088270000000  0.4163860000000 1.0
C      1  0.4890780000000  0.5517730000000  0.5545630000000 1.0
C      1  0.5058470000000  0.4574670000000  0.5461940000000 1.0
C      1  0.4653360000000  0.4244110000000  0.5191430000000 1.0
C      1  0.5575480000000  0.5555340000000  0.5296030000000 1.0
C      1  0.4307130000000  0.5032290000000  0.4684000000000 1.0
C      1  0.4332270000000  0.4978300000000  0.4405010000000 1.0
C      1  0.5046910000000  0.5701810000000  0.5342170000000 1.0
C      1  0.4793670000000  0.5040150000000  0.4600390000000 1.0
C      1  0.4813480000000  0.5548510000000  0.4434370000000 1.0
C      1  0.5153570000000  0.4399090000000  0.4665740000000 1.0
C      1  0.4537640000000  0.4629970000000  0.4825650000000 1.0
C      1  0.5218340000000  0.5108570000000  0.5091150000000 1.0
C      1  0.4893690000000  0.4791050000000  0.5319100000000 1.0
C      1  0.4622770000000  0.5216210000000  0.4998320000000 1.0
C      1  0.4939810000000  0.4873220000000  0.4796630000000 1.0
C      1  0.5469620000000  0.5175810000000  0.5659770000000 1.0
C      1  0.5462010000000  0.5576040000000  0.4714500000000 1.0
C      1  0.5106340000000  0.4720690000000  0.4274150000000 1.0
C      1  0.4754220000000  0.4370340000000  0.4413540000000 1.0
C      1  0.4930190000000  0.4232400000000  0.5115360000000 1.0
C      1  0.5361320000000  0.4622750000000  0.4960040000000 1.0
C      1  0.5100980000000  0.5354290000000  0.4982420000000 1.0
C      1  0.4958330000000  0.4416310000000  0.4890050000000 1.0
C      1  0.5515940000000  0.4769970000000  0.4571070000000 1.0
C      1  0.4577130000000  0.4574220000000  0.4539780000000 1.0
C      1  0.4931810000000  0.5793640000000  0.5097700000000 1.0
C      1  0.4507480000000  0.5392830000000  0.5442410000000 1.0
C      1  0.5105920000000  0.5465060000000  0.5695680000000 1.0
C      1  0.4953190000000  0.5249210000000  0.4400540000000 1.0
C      1  0.5042050000000  0.4456600000000  0.4399110000000 1.0
C      1  0.5535700000000  0.4577110000000  0.5414490000000 1.0
C      1  0.4362990000000  0.5267670000000  0.5085750000000 1.0
C      1  0.5279750000000  0.5182450000000  0.4380130000000 1.0
C      1  0.5132700000000  0.4342950000000  0.5304640000000 1.0
C      1  0.4848340000000  0.4829600000000  0.4175020000000 1.0
C      1  0.5316570000000  0.5675120000000  0.5213720000000 1.0
C      1  0.4727320000000  0.5258040000000  0.5522700000000 1.0
C      1  0.4225440000000  0.4503570000000  0.5280290000000 1.0
C      1  0.5279390000000  0.4967910000000  0.5579600000000 1.0
C      1  0.5732410000000  0.5188140000000  0.4724080000000 1.0
C      1  0.5705310000000  0.4921110000000  0.4749150000000 1.0
C      1  0.5769930000000  0.5465810000000  0.5090430000000 1.0
C      1  0.5664630000000  0.4755840000000  0.5244190000000 1.0
C      1  0.5389110000000  0.4440400000000  0.5196340000000 1.0
C      1  0.4662730000000  0.5537070000000  0.4668060000000 1.0
C      1  0.5302450000000  0.4677320000000  0.5578810000000 1.0
C      1  0.4822660000000  0.5404270000000  0.5042520000000 1.0
C      1  0.5766080000000  0.4937760000000  0.5068450000000 1.0
C      1  0.4443150000000  0.4866110000000  0.5557420000000 1.0
C      1  0.4738500000000  0.5666880000000  0.4931430000000 1.0
C      1  0.5625940000000  0.5300670000000  0.5448620000000 1.0
C      1  0.4626230000000  0.4844450000000  0.4398900000000 1.0
C      1  0.4559210000000  0.5227210000000  0.4730060000000 1.0
C      1  0.4205300000000  0.4783070000000  0.5156040000000 1.0
C      1  0.4311350000000  0.4803640000000  0.4882490000000 1.0
C      1  0.5103030000000  0.5007490000000  0.5343210000000 1.0
C      1  0.5787510000000  0.5201460000000  0.5216510000000 1.0
C      1  0.4437700000000  0.4300970000000  0.5252040000000 1.0
C      1  0.5730340000000  0.5464310000000  0.4791090000000 1.0
C      1  0.5209980000000  0.4878220000000  0.4911220000000 1.0
END
