TITL C-3909789-4856-23 -0.826080324782718 125000 -4024.42623942975 0 0 29 (C1) n - 1
REM
REM in /home/nfs/bkarasulu/CARBON/AIRSS/Generating-Clusters/ReaxFF-fromJPCA2015/Units_Real/with-SteepDescent/Only-C1/SD-CG/Try1-3A/FIRE-CG
REM
REM
REM
REM
REM
REM ./C.cell (11c1c37f851c82e70ff6c80c92926a4b)
REM
REM compiler GCC version 9.2.1 20190827 (Red Hat 9.2.1-1)
REM options -cpp -mtune=generic -march=x86-64 -g -O0 -fpre-include=/usr/include/finclude/math-vector-fortran.h
REM seed -1099008701 1332324358 1723896954 1131566354 2035240179 -35385865 436261327 585979667 -895345545 -457463259 922973480 1465504535 1370641146 -296582992 619341712 -2144606114 1342057805 -1767268095 -1200101654 -855341130 1422364149 -1749917419 880057767 -1570697357 664718337 -1945205891 1130717278 769287415 481116038 -724108785 128807343 597527094 456258365
REM
CELL 1.54180   50.00000   50.00000   50.00000   90.00000   90.00000   90.00000
LATT -1
SFAC C  
C      1  0.4856010000000  0.4683670000000  0.4880440000000 1.0
C      1  0.5680540000000  0.5031520000000  0.4848420000000 1.0
C      1  0.4717490000000  0.5349750000000  0.4599420000000 1.0
C      1  0.5284280000000  0.5317100000000  0.5013630000000 1.0
C      1  0.5293370000000  0.4795080000000  0.4579540000000 1.0
C      1  0.5043450000000  0.4883210000000  0.4693600000000 1.0
C      1  0.4888100000000  0.5132390000000  0.4505470000000 1.0
C      1  0.4852410000000  0.5171750000000  0.4994330000000 1.0
C      1  0.5572980000000  0.4783990000000  0.4705960000000 1.0
C      1  0.4377720000000  0.5158330000000  0.5178740000000 1.0
C      1  0.4787220000000  0.5051150000000  0.5470030000000 1.0
C      1  0.5536450000000  0.4654420000000  0.4956570000000 1.0
C      1  0.4565710000000  0.4950290000000  0.5277960000000 1.0
C      1  0.4904530000000  0.5227730000000  0.4267640000000 1.0
C      1  0.4616870000000  0.5478080000000  0.4827700000000 1.0
C      1  0.4627800000000  0.4788080000000  0.5027570000000 1.0
C      1  0.5079110000000  0.5446400000000  0.5192420000000 1.0
C      1  0.5170160000000  0.4471200000000  0.5262740000000 1.0
C      1  0.5520290000000  0.5147590000000  0.5077190000000 1.0
C      1  0.4893900000000  0.4802330000000  0.5504220000000 1.0
C      1  0.5402580000000  0.4653790000000  0.5203440000000 1.0
C      1  0.4435970000000  0.5245150000000  0.4895050000000 1.0
C      1  0.4995410000000  0.4463010000000  0.5025930000000 1.0
C      1  0.4808050000000  0.5450520000000  0.5056960000000 1.0
C      1  0.5125300000000  0.5068260000000  0.4970500000000 1.0
C      1  0.4966820000000  0.5286380000000  0.5414250000000 1.0
C      1  0.5021150000000  0.4541060000000  0.5524000000000 1.0
C      1  0.4635470000000  0.5025900000000  0.4862150000000 1.0
C      1  0.5340840000000  0.4941860000000  0.5184130000000 1.0
END
