TITL C-3909653-6271-13 18.6182154419086 125000 -19096.9783739765 0 0 130 (C1) n - 1
REM
REM in /home/nfs/bkarasulu/CARBON/AIRSS/Generating-Clusters/ReaxFF-fromJPCA2015/Units_Real/with-SteepDescent/Only-C1/SD-CG/Try1-3A/FIRE-CG
REM
REM
REM
REM
REM
REM ./C.cell (11c1c37f851c82e70ff6c80c92926a4b)
REM
REM compiler GCC version 9.2.1 20190827 (Red Hat 9.2.1-1)
REM options -cpp -mtune=generic -march=x86-64 -g -O0 -fpre-include=/usr/include/finclude/math-vector-fortran.h
REM seed -975745609 1667819619 -2129606467 -920704416 1448081999 525968921 -1104485641 303027556 -673677242 -48824749 -1253474954 1079973502 -1439208380 1216002547 -793513180 -1584413160 477224634 -1754725038 -1328381982 1065839427 2087841574 -2134454435 -369716386 1489250189 -1742761787 886889375 1061350659 -2047201813 -1212156211 -2024036491 601419495 -1054001108 -478406622
REM
CELL 1.54180   50.00000   50.00000   50.00000   90.00000   90.00000   90.00000
LATT -1
SFAC C  
C      1  0.5380250000000  0.5664050000000  0.4786400000000 1.0
C      1  0.5108860000000  0.5251490000000  0.4644610000000 1.0
C      1  0.4669010000000  0.4967140000000  0.4966720000000 1.0
C      1  0.5191550000000  0.4870940000000  0.6045780000000 1.0
C      1  0.5416210000000  0.5849770000000  0.5300560000000 1.0
C      1  0.4821450000000  0.5476420000000  0.5655600000000 1.0
C      1  0.4639590000000  0.4436820000000  0.4437100000000 1.0
C      1  0.5270620000000  0.5286950000000  0.5076060000000 1.0
C      1  0.4419010000000  0.5550380000000  0.4381390000000 1.0
C      1  0.4596220000000  0.5907760000000  0.5289700000000 1.0
C      1  0.4826200000000  0.5404090000000  0.4075830000000 1.0
C      1  0.5530300000000  0.4905830000000  0.4890680000000 1.0
C      1  0.5358550000000  0.4582550000000  0.5431420000000 1.0
C      1  0.5142820000000  0.4649090000000  0.4676660000000 1.0
C      1  0.4833530000000  0.4961590000000  0.5603370000000 1.0
C      1  0.4878310000000  0.5656130000000  0.4468390000000 1.0
C      1  0.5683540000000  0.5243470000000  0.4557170000000 1.0
C      1  0.4636030000000  0.5167050000000  0.4534220000000 1.0
C      1  0.5442050000000  0.5120050000000  0.3956900000000 1.0
C      1  0.5520460000000  0.4794650000000  0.4355020000000 1.0
C      1  0.4914140000000  0.4106590000000  0.4943590000000 1.0
C      1  0.4886580000000  0.4286910000000  0.4383280000000 1.0
C      1  0.4343970000000  0.5026690000000  0.5817400000000 1.0
C      1  0.4937260000000  0.4566920000000  0.5124130000000 1.0
C      1  0.5226000000000  0.4641010000000  0.5860940000000 1.0
C      1  0.4735460000000  0.4171830000000  0.5177440000000 1.0
C      1  0.5126770000000  0.4918440000000  0.4743750000000 1.0
C      1  0.4785720000000  0.5327090000000  0.5213750000000 1.0
C      1  0.5330200000000  0.4149260000000  0.5237480000000 1.0
C      1  0.4992930000000  0.4922910000000  0.4325780000000 1.0
C      1  0.4716820000000  0.4678660000000  0.4934810000000 1.0
C      1  0.4823930000000  0.5425270000000  0.4660210000000 1.0
C      1  0.5138740000000  0.4442770000000  0.4416650000000 1.0
C      1  0.4257740000000  0.4277830000000  0.4985360000000 1.0
C      1  0.5743330000000  0.5202790000000  0.5622780000000 1.0
C      1  0.4545540000000  0.4610520000000  0.4198130000000 1.0
C      1  0.4899710000000  0.4345450000000  0.5343940000000 1.0
C      1  0.5772770000000  0.4649080000000  0.4394350000000 1.0
C      1  0.4182770000000  0.4673470000000  0.5229110000000 1.0
C      1  0.4749150000000  0.4131880000000  0.4737540000000 1.0
C      1  0.5552350000000  0.4511230000000  0.4322770000000 1.0
C      1  0.5631070000000  0.5617850000000  0.5236640000000 1.0
C      1  0.4650770000000  0.5590350000000  0.4841650000000 1.0
C      1  0.4927600000000  0.5513090000000  0.5379090000000 1.0
C      1  0.5295590000000  0.5798850000000  0.5555890000000 1.0
C      1  0.4403720000000  0.5608400000000  0.4681520000000 1.0
C      1  0.4728170000000  0.5126150000000  0.4050260000000 1.0
C      1  0.5401950000000  0.5528080000000  0.5042710000000 1.0
C      1  0.5608150000000  0.4098280000000  0.5290570000000 1.0
C      1  0.5970360000000  0.4893020000000  0.5242400000000 1.0
C      1  0.5182030000000  0.4493220000000  0.4922140000000 1.0
C      1  0.5172480000000  0.4308270000000  0.5452400000000 1.0
C      1  0.4286110000000  0.4292240000000  0.4691610000000 1.0
C      1  0.5401790000000  0.4312490000000  0.4450550000000 1.0
C      1  0.4339120000000  0.5798830000000  0.5329700000000 1.0
C      1  0.5349910000000  0.5053050000000  0.5430580000000 1.0
C      1  0.5793340000000  0.4351350000000  0.5307510000000 1.0
C      1  0.6095470000000  0.4692380000000  0.5095530000000 1.0
C      1  0.5669970000000  0.4426250000000  0.4796980000000 1.0
C      1  0.4736550000000  0.5879550000000  0.5567590000000 1.0
C      1  0.5233040000000  0.5919780000000  0.4797160000000 1.0
C      1  0.5083360000000  0.4954040000000  0.5451320000000 1.0
C      1  0.5048860000000  0.5834040000000  0.4602420000000 1.0
C      1  0.4472800000000  0.4998770000000  0.5181580000000 1.0
C      1  0.5018780000000  0.5609200000000  0.5838770000000 1.0
C      1  0.5857940000000  0.5363990000000  0.4777640000000 1.0
C      1  0.4463010000000  0.4295620000000  0.5199710000000 1.0
C      1  0.5863950000000  0.4606140000000  0.4667500000000 1.0
C      1  0.4379580000000  0.4510780000000  0.5381330000000 1.0
C      1  0.5637860000000  0.5458870000000  0.5532030000000 1.0
C      1  0.5939590000000  0.5100160000000  0.4893810000000 1.0
C      1  0.4381410000000  0.4832680000000  0.4288520000000 1.0
C      1  0.5318090000000  0.4881760000000  0.4080230000000 1.0
C      1  0.4265740000000  0.5388280000000  0.4565470000000 1.0
C      1  0.4978170000000  0.5739380000000  0.5188900000000 1.0
C      1  0.5461950000000  0.4243680000000  0.4721350000000 1.0
C      1  0.5105920000000  0.4765160000000  0.5244430000000 1.0
C      1  0.5394870000000  0.5373850000000  0.4116730000000 1.0
C      1  0.5805710000000  0.5555020000000  0.4990570000000 1.0
C      1  0.4483320000000  0.4785330000000  0.5857870000000 1.0
C      1  0.4263500000000  0.5425240000000  0.5188250000000 1.0
C      1  0.4944060000000  0.5015310000000  0.6083390000000 1.0
C      1  0.4727740000000  0.5783440000000  0.5043620000000 1.0
C      1  0.4218710000000  0.4816190000000  0.4538900000000 1.0
C      1  0.5319230000000  0.5455410000000  0.4593200000000 1.0
C      1  0.4312960000000  0.5270520000000  0.5749750000000 1.0
C      1  0.5120420000000  0.5176460000000  0.4366610000000 1.0
C      1  0.4163880000000  0.5590230000000  0.5404470000000 1.0
C      1  0.4683080000000  0.5588080000000  0.4251560000000 1.0
C      1  0.4023880000000  0.5079560000000  0.4964190000000 1.0
C      1  0.4178070000000  0.4574160000000  0.4688580000000 1.0
C      1  0.4791470000000  0.4631290000000  0.4050110000000 1.0
C      1  0.4930420000000  0.4897940000000  0.4036700000000 1.0
C      1  0.5020690000000  0.5849410000000  0.5663550000000 1.0
C      1  0.5038740000000  0.4448350000000  0.5728540000000 1.0
C      1  0.5505320000000  0.4616060000000  0.4978800000000 1.0
C      1  0.5192320000000  0.5169100000000  0.6031330000000 1.0
C      1  0.5414990000000  0.5558670000000  0.5688440000000 1.0
C      1  0.4317440000000  0.5537990000000  0.5666570000000 1.0
C      1  0.4043410000000  0.5246190000000  0.5197790000000 1.0
C      1  0.6002060000000  0.4809430000000  0.4836000000000 1.0
C      1  0.4599130000000  0.4890890000000  0.5429860000000 1.0
C      1  0.5521350000000  0.4989440000000  0.5649480000000 1.0
C      1  0.4531920000000  0.4189270000000  0.4568550000000 1.0
C      1  0.5595450000000  0.4564230000000  0.5264810000000 1.0
C      1  0.5807090000000  0.5106590000000  0.5158550000000 1.0
C      1  0.4989380000000  0.5206300000000  0.5045710000000 1.0
C      1  0.5086740000000  0.4938680000000  0.5018870000000 1.0
C      1  0.4203670000000  0.5081840000000  0.4701260000000 1.0
C      1  0.4765870000000  0.4497910000000  0.5718010000000 1.0
C      1  0.4108370000000  0.4530500000000  0.4984640000000 1.0
C      1  0.5239280000000  0.5423200000000  0.5886600000000 1.0
C      1  0.5567220000000  0.4982970000000  0.4620470000000 1.0
C      1  0.4524060000000  0.5086100000000  0.4248310000000 1.0
C      1  0.4501230000000  0.5283190000000  0.5220790000000 1.0
C      1  0.5214590000000  0.5893520000000  0.5102260000000 1.0
C      1  0.4740840000000  0.4942420000000  0.5882870000000 1.0
C      1  0.4591200000000  0.5658420000000  0.5688190000000 1.0
C      1  0.5517640000000  0.5410500000000  0.4381760000000 1.0
C      1  0.4697540000000  0.4670790000000  0.4655030000000 1.0
C      1  0.6060240000000  0.4404640000000  0.5200880000000 1.0
C      1  0.4780110000000  0.4906200000000  0.4518780000000 1.0
C      1  0.4490510000000  0.5099520000000  0.4780910000000 1.0
C      1  0.5484940000000  0.5088300000000  0.5152450000000 1.0
C      1  0.4971940000000  0.4428950000000  0.4152360000000 1.0
C      1  0.5108460000000  0.5392390000000  0.4164150000000 1.0
C      1  0.4494540000000  0.4549350000000  0.5663630000000 1.0
C      1  0.5446760000000  0.4704170000000  0.5690200000000 1.0
C      1  0.5236470000000  0.4191570000000  0.4941280000000 1.0
C      1  0.4046510000000  0.4938110000000  0.5209610000000 1.0
END
