TITL C-3909787-7025-13 2.71611519240061 125000 -10362.2774030672 0 0 69 (C1) n - 1
REM
REM in /home/nfs/bkarasulu/CARBON/AIRSS/Generating-Clusters/ReaxFF-fromJPCA2015/Units_Real/with-SteepDescent/Only-C1/SD-CG/Try1-3A/FIRE-CG
REM
REM
REM
REM
REM
REM ./C.cell (11c1c37f851c82e70ff6c80c92926a4b)
REM
REM compiler GCC version 9.2.1 20190827 (Red Hat 9.2.1-1)
REM options -cpp -mtune=generic -march=x86-64 -g -O0 -fpre-include=/usr/include/finclude/math-vector-fortran.h
REM seed -1112674149 -613728514 966313235 358221771 59270838 -1740884656 -1779430699 -1977458242 673285920 2044025429 -722371871 -1394132240 -511817647 -302114038 3935476 1777077910 -1535153523 -1726797204 -1075025875 1976061728 560437139 -2123063931 -817617098 1539744752 256062652 -1376376812 -417131131 1691673148 -954798198 -1012630609 -194819381 -420956616 -551757141
REM
CELL 1.54180   50.00000   50.00000   50.00000   90.00000   90.00000   90.00000
LATT -1
SFAC C  
C      1  0.4715240000000  0.5309860000000  0.5707690000000 1.0
C      1  0.5105020000000  0.4532280000000  0.4638950000000 1.0
C      1  0.5071660000000  0.5611390000000  0.5513800000000 1.0
C      1  0.4879840000000  0.4899230000000  0.4210210000000 1.0
C      1  0.5242730000000  0.4236620000000  0.5074010000000 1.0
C      1  0.5086910000000  0.5723250000000  0.4983030000000 1.0
C      1  0.4744030000000  0.5276220000000  0.5246580000000 1.0
C      1  0.4101880000000  0.4831650000000  0.4884730000000 1.0
C      1  0.5128110000000  0.5018370000000  0.5121950000000 1.0
C      1  0.4765660000000  0.4221900000000  0.5055250000000 1.0
C      1  0.5337020000000  0.5291810000000  0.4481620000000 1.0
C      1  0.5411300000000  0.4525980000000  0.4680780000000 1.0
C      1  0.5175310000000  0.5162200000000  0.5708950000000 1.0
C      1  0.4813050000000  0.5473830000000  0.5523310000000 1.0
C      1  0.5283790000000  0.5419430000000  0.5656230000000 1.0
C      1  0.4795820000000  0.4847280000000  0.5783040000000 1.0
C      1  0.5283470000000  0.4990350000000  0.4146780000000 1.0
C      1  0.5331350000000  0.4748990000000  0.5622480000000 1.0
C      1  0.5084380000000  0.4886500000000  0.4071640000000 1.0
C      1  0.5676740000000  0.4964200000000  0.4467420000000 1.0
C      1  0.4962210000000  0.4293640000000  0.4689630000000 1.0
C      1  0.4855440000000  0.5704550000000  0.4797390000000 1.0
C      1  0.5143620000000  0.4354690000000  0.5320180000000 1.0
C      1  0.5806780000000  0.5137870000000  0.4668240000000 1.0
C      1  0.4846970000000  0.4345930000000  0.5312600000000 1.0
C      1  0.4627130000000  0.4511540000000  0.5396020000000 1.0
C      1  0.4951060000000  0.5191840000000  0.4757380000000 1.0
C      1  0.5253090000000  0.5567660000000  0.4540590000000 1.0
C      1  0.5446030000000  0.4412640000000  0.4959260000000 1.0
C      1  0.4421490000000  0.4479620000000  0.5176530000000 1.0
C      1  0.5550980000000  0.4736510000000  0.4577240000000 1.0
C      1  0.5482310000000  0.5126770000000  0.4287460000000 1.0
C      1  0.4724050000000  0.4980690000000  0.5210420000000 1.0
C      1  0.5340580000000  0.4562290000000  0.5390880000000 1.0
C      1  0.5220470000000  0.5109670000000  0.4688100000000 1.0
C      1  0.4376900000000  0.5112990000000  0.5376120000000 1.0
C      1  0.5339670000000  0.5642690000000  0.4812090000000 1.0
C      1  0.5522630000000  0.5325750000000  0.5543060000000 1.0
C      1  0.5752990000000  0.5081700000000  0.5141090000000 1.0
C      1  0.5770710000000  0.5282820000000  0.4921790000000 1.0
C      1  0.5523910000000  0.4602700000000  0.5160400000000 1.0
C      1  0.4901760000000  0.4683720000000  0.4794190000000 1.0
C      1  0.4675280000000  0.4949560000000  0.4388740000000 1.0
C      1  0.4440720000000  0.5199180000000  0.4714540000000 1.0
C      1  0.4490070000000  0.5666890000000  0.4515810000000 1.0
C      1  0.4423650000000  0.4952670000000  0.5607980000000 1.0
C      1  0.5592080000000  0.4865890000000  0.5038000000000 1.0
C      1  0.4559610000000  0.5645430000000  0.4811140000000 1.0
C      1  0.4549290000000  0.4378170000000  0.4930860000000 1.0
C      1  0.4976220000000  0.5258600000000  0.5035530000000 1.0
C      1  0.5085940000000  0.4909430000000  0.5744560000000 1.0
C      1  0.4729910000000  0.5507750000000  0.4433420000000 1.0
C      1  0.5569230000000  0.5508480000000  0.4911640000000 1.0
C      1  0.4253090000000  0.4652520000000  0.5046940000000 1.0
C      1  0.4609600000000  0.5077980000000  0.5819210000000 1.0
C      1  0.4707180000000  0.5214710000000  0.4559880000000 1.0
C      1  0.4411370000000  0.5407060000000  0.4914360000000 1.0
C      1  0.5344560000000  0.4990680000000  0.4928950000000 1.0
C      1  0.5539070000000  0.4910430000000  0.5539060000000 1.0
C      1  0.4969580000000  0.5644530000000  0.4536400000000 1.0
C      1  0.4909680000000  0.4814590000000  0.5074530000000 1.0
C      1  0.4323110000000  0.4943180000000  0.4685050000000 1.0
C      1  0.4607700000000  0.4712460000000  0.5605320000000 1.0
C      1  0.5011890000000  0.4130020000000  0.4916410000000 1.0
C      1  0.4507630000000  0.4766700000000  0.4547090000000 1.0
C      1  0.5700890000000  0.5127400000000  0.5439080000000 1.0
C      1  0.4647150000000  0.4558590000000  0.4710330000000 1.0
C      1  0.5079110000000  0.5666920000000  0.5250730000000 1.0
C      1  0.4432320000000  0.5320590000000  0.5195320000000 1.0
END
