TITL C-3909647-4341-26 24.6599389989823 125000 -23205.1957446797 0 0 158 (C1) n - 1
REM
REM in /home/nfs/bkarasulu/CARBON/AIRSS/Generating-Clusters/ReaxFF-fromJPCA2015/Units_Real/with-SteepDescent/Only-C1/SD-CG/Try1-3A/FIRE-CG
REM
REM
REM
REM
REM
REM ./C.cell (11c1c37f851c82e70ff6c80c92926a4b)
REM
REM compiler GCC version 9.2.1 20190827 (Red Hat 9.2.1-1)
REM options -cpp -mtune=generic -march=x86-64 -g -O0 -fpre-include=/usr/include/finclude/math-vector-fortran.h
REM seed -1099121856 -1716784365 -1112530738 -1541528461 760854338 -1765418697 -713721447 -576646316 -1703567134 1969389715 867990064 -1481303726 1238228088 -2047843334 1579397717 -535211725 -1435699970 1660028767 -1650241323 -1635792104 302950817 -1209274796 126551849 1578947272 73268604 -1857790449 -1301920074 1518083775 -759289291 1553400890 -492711292 -56732660 -1254788816
REM
CELL 1.54180   50.00000   50.00000   50.00000   90.00000   90.00000   90.00000
LATT -1
SFAC C  
C      1  0.5883240000000  0.4549820000000  0.5393740000000 1.0
C      1  0.5638890000000  0.4664150000000  0.4265390000000 1.0
C      1  0.4549630000000  0.4356850000000  0.5702800000000 1.0
C      1  0.5352730000000  0.4142410000000  0.4402900000000 1.0
C      1  0.5334750000000  0.5024920000000  0.4194000000000 1.0
C      1  0.5484890000000  0.4949530000000  0.4615890000000 1.0
C      1  0.4568300000000  0.5265420000000  0.4477410000000 1.0
C      1  0.5162050000000  0.4993350000000  0.4858460000000 1.0
C      1  0.5324250000000  0.4563780000000  0.5177620000000 1.0
C      1  0.5578220000000  0.5320230000000  0.5650120000000 1.0
C      1  0.5101170000000  0.5324160000000  0.6094300000000 1.0
C      1  0.5461400000000  0.5900340000000  0.4968340000000 1.0
C      1  0.5210770000000  0.5964120000000  0.5144450000000 1.0
C      1  0.5226220000000  0.4629970000000  0.3953300000000 1.0
C      1  0.5746650000000  0.4561390000000  0.5658830000000 1.0
C      1  0.4751290000000  0.5178110000000  0.5166080000000 1.0
C      1  0.4622650000000  0.4079010000000  0.5227840000000 1.0
C      1  0.5763660000000  0.5937690000000  0.5527880000000 1.0
C      1  0.5777880000000  0.4608540000000  0.4938880000000 1.0
C      1  0.5046390000000  0.5908250000000  0.5639660000000 1.0
C      1  0.5504370000000  0.3938690000000  0.4373880000000 1.0
C      1  0.4362430000000  0.5596600000000  0.5282530000000 1.0
C      1  0.4909830000000  0.5090160000000  0.6116990000000 1.0
C      1  0.5237890000000  0.4919540000000  0.4462550000000 1.0
C      1  0.4857690000000  0.4917870000000  0.5182490000000 1.0
C      1  0.5752710000000  0.4416760000000  0.5170730000000 1.0
C      1  0.4000100000000  0.4663650000000  0.5307660000000 1.0
C      1  0.4015040000000  0.4532570000000  0.5044240000000 1.0
C      1  0.5502950000000  0.5462570000000  0.5405060000000 1.0
C      1  0.5558860000000  0.4194350000000  0.5214880000000 1.0
C      1  0.4459830000000  0.5449470000000  0.4285450000000 1.0
C      1  0.5372870000000  0.4423880000000  0.4914190000000 1.0
C      1  0.5914710000000  0.5035590000000  0.5460960000000 1.0
C      1  0.4445800000000  0.5131780000000  0.5175790000000 1.0
C      1  0.6033790000000  0.4796730000000  0.5343400000000 1.0
C      1  0.4366540000000  0.4408590000000  0.4357410000000 1.0
C      1  0.4681190000000  0.5142580000000  0.4013140000000 1.0
C      1  0.5019590000000  0.4513020000000  0.4630840000000 1.0
C      1  0.5398510000000  0.5751600000000  0.4304330000000 1.0
C      1  0.4176710000000  0.5088180000000  0.4679630000000 1.0
C      1  0.5050570000000  0.5578510000000  0.4151690000000 1.0
C      1  0.4486760000000  0.4163150000000  0.4980360000000 1.0
C      1  0.4300950000000  0.4995380000000  0.5659010000000 1.0
C      1  0.4432970000000  0.4592680000000  0.5085400000000 1.0
C      1  0.3923810000000  0.4704440000000  0.4832380000000 1.0
C      1  0.5052010000000  0.5921530000000  0.4479180000000 1.0
C      1  0.4074550000000  0.5204560000000  0.5370070000000 1.0
C      1  0.4605480000000  0.5619420000000  0.5700880000000 1.0
C      1  0.4891120000000  0.4266040000000  0.4235770000000 1.0
C      1  0.5153120000000  0.5533250000000  0.4754860000000 1.0
C      1  0.5168620000000  0.4600560000000  0.4401630000000 1.0
C      1  0.4722640000000  0.4531080000000  0.4991300000000 1.0
C      1  0.4728760000000  0.4476650000000  0.4680180000000 1.0
C      1  0.5456470000000  0.4783540000000  0.4072360000000 1.0
C      1  0.5555560000000  0.5655970000000  0.4774600000000 1.0
C      1  0.5150130000000  0.4613750000000  0.6005890000000 1.0
C      1  0.4218570000000  0.5277150000000  0.5619170000000 1.0
C      1  0.5350870000000  0.5536780000000  0.4130750000000 1.0
C      1  0.5042390000000  0.4516110000000  0.4150070000000 1.0
C      1  0.5206230000000  0.4091300000000  0.5586050000000 1.0
C      1  0.5401930000000  0.5333840000000  0.5837160000000 1.0
C      1  0.5446390000000  0.4616900000000  0.5944570000000 1.0
C      1  0.5551530000000  0.5011470000000  0.5104610000000 1.0
C      1  0.4973760000000  0.4291250000000  0.5601210000000 1.0
C      1  0.4972840000000  0.5372960000000  0.4346160000000 1.0
C      1  0.4009740000000  0.4630710000000  0.4548560000000 1.0
C      1  0.4899410000000  0.4369810000000  0.5157270000000 1.0
C      1  0.4368310000000  0.5528540000000  0.5564890000000 1.0
C      1  0.4202410000000  0.4423440000000  0.4608970000000 1.0
C      1  0.5545870000000  0.4407610000000  0.4658280000000 1.0
C      1  0.5477830000000  0.5879640000000  0.4544370000000 1.0
C      1  0.4784120000000  0.5749370000000  0.4944730000000 1.0
C      1  0.4755860000000  0.5853250000000  0.5582360000000 1.0
C      1  0.4619870000000  0.4310530000000  0.4294710000000 1.0
C      1  0.4927780000000  0.5558620000000  0.6040230000000 1.0
C      1  0.5029910000000  0.4850570000000  0.6063500000000 1.0
C      1  0.4868050000000  0.4753920000000  0.4957970000000 1.0
C      1  0.4911730000000  0.4075130000000  0.5166750000000 1.0
C      1  0.4778600000000  0.5151680000000  0.4300120000000 1.0
C      1  0.6103750000000  0.5127580000000  0.5044100000000 1.0
C      1  0.4656150000000  0.4620560000000  0.5806590000000 1.0
C      1  0.5844470000000  0.5171890000000  0.5209010000000 1.0
C      1  0.5526890000000  0.5790280000000  0.5438730000000 1.0
C      1  0.4411390000000  0.5217070000000  0.4103090000000 1.0
C      1  0.4657280000000  0.5381030000000  0.4732730000000 1.0
C      1  0.4690090000000  0.5431540000000  0.5906540000000 1.0
C      1  0.4609900000000  0.5800260000000  0.4643270000000 1.0
C      1  0.5191260000000  0.5420910000000  0.5206070000000 1.0
C      1  0.6174780000000  0.4858970000000  0.5093830000000 1.0
C      1  0.5551250000000  0.5238380000000  0.4525300000000 1.0
C      1  0.5403210000000  0.5405920000000  0.4771040000000 1.0
C      1  0.4104230000000  0.4918430000000  0.5428480000000 1.0
C      1  0.5360650000000  0.4141540000000  0.5001390000000 1.0
C      1  0.5840390000000  0.5282470000000  0.4615430000000 1.0
C      1  0.5237200000000  0.5988520000000  0.4648280000000 1.0
C      1  0.4431570000000  0.4942450000000  0.4706510000000 1.0
C      1  0.5106110000000  0.4918910000000  0.5583490000000 1.0
C      1  0.4287810000000  0.4939210000000  0.4201400000000 1.0
C      1  0.4252870000000  0.5347960000000  0.5162560000000 1.0
C      1  0.5254620000000  0.5933470000000  0.5418990000000 1.0
C      1  0.5605650000000  0.4312740000000  0.5729920000000 1.0
C      1  0.4353050000000  0.4898790000000  0.5013830000000 1.0
C      1  0.4061190000000  0.4950910000000  0.4905360000000 1.0
C      1  0.5434820000000  0.4796790000000  0.5278140000000 1.0
C      1  0.5749050000000  0.5434440000000  0.5253200000000 1.0
C      1  0.5847280000000  0.5619250000000  0.5057740000000 1.0
C      1  0.4541170000000  0.4912050000000  0.5803550000000 1.0
C      1  0.5024760000000  0.5185430000000  0.5597370000000 1.0
C      1  0.5167260000000  0.5318730000000  0.5825380000000 1.0
C      1  0.4920240000000  0.5975630000000  0.5089370000000 1.0
C      1  0.5678430000000  0.5845110000000  0.5146000000000 1.0
C      1  0.3883120000000  0.5513440000000  0.4637060000000 1.0
C      1  0.5477550000000  0.4137000000000  0.5499270000000 1.0
C      1  0.4944530000000  0.4764220000000  0.5409260000000 1.0
C      1  0.4463070000000  0.4705640000000  0.4283470000000 1.0
C      1  0.4382610000000  0.4534760000000  0.5364930000000 1.0
C      1  0.5099910000000  0.4011990000000  0.4950580000000 1.0
C      1  0.3726430000000  0.5418120000000  0.4789690000000 1.0
C      1  0.4136250000000  0.4524370000000  0.5501060000000 1.0
C      1  0.5569530000000  0.4826340000000  0.5727280000000 1.0
C      1  0.5727880000000  0.5082050000000  0.5667800000000 1.0
C      1  0.5810250000000  0.4535330000000  0.4656330000000 1.0
C      1  0.5043590000000  0.4136380000000  0.4455740000000 1.0
C      1  0.5827630000000  0.5527430000000  0.4777130000000 1.0
C      1  0.5329310000000  0.5205340000000  0.4999780000000 1.0
C      1  0.5448630000000  0.4467710000000  0.4401770000000 1.0
C      1  0.5460920000000  0.5279900000000  0.4231900000000 1.0
C      1  0.4930620000000  0.4056270000000  0.4711560000000 1.0
C      1  0.4891250000000  0.5791140000000  0.4282270000000 1.0
C      1  0.4916640000000  0.4504900000000  0.5836140000000 1.0
C      1  0.6143280000000  0.4972180000000  0.4806960000000 1.0
C      1  0.4247830000000  0.4381290000000  0.4909540000000 1.0
C      1  0.4721520000000  0.5952280000000  0.5308830000000 1.0
C      1  0.5603360000000  0.4842900000000  0.4863480000000 1.0
C      1  0.5067500000000  0.4505440000000  0.5332270000000 1.0
C      1  0.5840100000000  0.4754900000000  0.4458060000000 1.0
C      1  0.4967930000000  0.5071560000000  0.4661000000000 1.0
C      1  0.5032700000000  0.5749920000000  0.5866000000000 1.0
C      1  0.4665080000000  0.4182070000000  0.4756600000000 1.0
C      1  0.4134730000000  0.5385580000000  0.4679810000000 1.0
C      1  0.4620940000000  0.5699410000000  0.4368080000000 1.0
C      1  0.4084330000000  0.4826590000000  0.4349190000000 1.0
C      1  0.4559360000000  0.4732870000000  0.4555420000000 1.0
C      1  0.4557700000000  0.5770890000000  0.5157950000000 1.0
C      1  0.5953000000000  0.5010790000000  0.4588220000000 1.0
C      1  0.5115670000000  0.4701460000000  0.4839730000000 1.0
C      1  0.4698970000000  0.4191550000000  0.5517480000000 1.0
C      1  0.4360170000000  0.5522360000000  0.4823850000000 1.0
C      1  0.4308770000000  0.4314650000000  0.5538220000000 1.0
C      1  0.4670500000000  0.5138460000000  0.5938690000000 1.0
C      1  0.4831980000000  0.4950710000000  0.3875800000000 1.0
C      1  0.4788000000000  0.5156040000000  0.4863790000000 1.0
C      1  0.5022200000000  0.5560790000000  0.4996840000000 1.0
C      1  0.5009690000000  0.4773610000000  0.3841940000000 1.0
C      1  0.4923930000000  0.5483700000000  0.4611450000000 1.0
C      1  0.5364610000000  0.4856470000000  0.5536250000000 1.0
C      1  0.4334350000000  0.5817840000000  0.4759130000000 1.0
C      1  0.4969350000000  0.5316830000000  0.5353650000000 1.0
END
