TITL C-3909649-7198-38 -11.0090571702908 125000 -14419.1417201772 0 0 98 (C1) n - 1
REM
REM in /home/nfs/bkarasulu/CARBON/AIRSS/Generating-Clusters/ReaxFF-fromJPCA2015/Units_Real/with-SteepDescent/Only-C1/SD-CG/Try1-3A/FIRE-CG
REM
REM
REM
REM
REM
REM ./C.cell (11c1c37f851c82e70ff6c80c92926a4b)
REM
REM compiler GCC version 9.2.1 20190827 (Red Hat 9.2.1-1)
REM options -cpp -mtune=generic -march=x86-64 -g -O0 -fpre-include=/usr/include/finclude/math-vector-fortran.h
REM seed 668683330 423265771 -822196302 -435330786 -148178818 -1981986894 2118447232 -1005566235 -1133412362 1856348436 -1121749110 2078817392 -1203422777 -951894550 -1527540165 -1452558811 -231110171 -1711743871 -1619889534 1684465304 1138070576 -441214276 -1348989494 -2047535594 -895342391 353065490 -29510555 -736104723 -1630222439 -1291206984 1575480852 -770139741 704396477
REM
CELL 1.54180   50.00000   50.00000   50.00000   90.00000   90.00000   90.00000
LATT -1
SFAC C  
C      1  0.5055090000000  0.5740870000000  0.4364330000000 1.0
C      1  0.4789750000000  0.5661190000000  0.4776530000000 1.0
C      1  0.4387440000000  0.4561670000000  0.4795390000000 1.0
C      1  0.4547630000000  0.5765400000000  0.5298620000000 1.0
C      1  0.4821980000000  0.5599960000000  0.5056120000000 1.0
C      1  0.5672470000000  0.5466460000000  0.4791040000000 1.0
C      1  0.5101270000000  0.4742160000000  0.5286660000000 1.0
C      1  0.5480010000000  0.4231040000000  0.4962720000000 1.0
C      1  0.4821040000000  0.5402110000000  0.4392810000000 1.0
C      1  0.4251520000000  0.4908060000000  0.5288750000000 1.0
C      1  0.5374330000000  0.4553930000000  0.5650840000000 1.0
C      1  0.5333770000000  0.5260310000000  0.5690190000000 1.0
C      1  0.5656830000000  0.4432070000000  0.4819980000000 1.0
C      1  0.4417720000000  0.5109500000000  0.4319160000000 1.0
C      1  0.4328930000000  0.4832440000000  0.4978630000000 1.0
C      1  0.3983380000000  0.5180240000000  0.4639510000000 1.0
C      1  0.5035930000000  0.5502100000000  0.4212640000000 1.0
C      1  0.5847060000000  0.5223070000000  0.5433680000000 1.0
C      1  0.4632400000000  0.5378110000000  0.5139360000000 1.0
C      1  0.5446490000000  0.5129120000000  0.5199860000000 1.0
C      1  0.4982330000000  0.4974090000000  0.4280130000000 1.0
C      1  0.4905800000000  0.5382510000000  0.4663090000000 1.0
C      1  0.4536900000000  0.4901570000000  0.4178420000000 1.0
C      1  0.5575860000000  0.5700090000000  0.4638680000000 1.0
C      1  0.5322510000000  0.4459540000000  0.4425390000000 1.0
C      1  0.5286930000000  0.5342830000000  0.4186680000000 1.0
C      1  0.5021610000000  0.5829500000000  0.4625570000000 1.0
C      1  0.5071260000000  0.5360390000000  0.5634500000000 1.0
C      1  0.4830630000000  0.4878210000000  0.6051820000000 1.0
C      1  0.5072570000000  0.4625880000000  0.5718850000000 1.0
C      1  0.4914730000000  0.5063060000000  0.6221330000000 1.0
C      1  0.5523920000000  0.5561100000000  0.5297520000000 1.0
C      1  0.5089140000000  0.4700670000000  0.4823890000000 1.0
C      1  0.5602100000000  0.4872680000000  0.4640560000000 1.0
C      1  0.4636390000000  0.4354720000000  0.5158430000000 1.0
C      1  0.4240540000000  0.4969550000000  0.4529060000000 1.0
C      1  0.5547170000000  0.5314220000000  0.5462000000000 1.0
C      1  0.4329430000000  0.5400590000000  0.5108810000000 1.0
C      1  0.5936890000000  0.5336830000000  0.5186340000000 1.0
C      1  0.4384960000000  0.5491400000000  0.4616100000000 1.0
C      1  0.5092740000000  0.5571190000000  0.5087550000000 1.0
C      1  0.5695830000000  0.4670750000000  0.5332770000000 1.0
C      1  0.5982200000000  0.5050330000000  0.5246620000000 1.0
C      1  0.5284180000000  0.4109480000000  0.4782490000000 1.0
C      1  0.5456350000000  0.5214340000000  0.4367690000000 1.0
C      1  0.4607230000000  0.4870720000000  0.5075680000000 1.0
C      1  0.4573010000000  0.4346970000000  0.4849060000000 1.0
C      1  0.4753240000000  0.5115190000000  0.5152270000000 1.0
C      1  0.5046650000000  0.4517740000000  0.4322680000000 1.0
C      1  0.5242910000000  0.4191380000000  0.4501870000000 1.0
C      1  0.5013320000000  0.4864580000000  0.5519090000000 1.0
C      1  0.5371640000000  0.5208330000000  0.4928180000000 1.0
C      1  0.5054800000000  0.4452950000000  0.4952110000000 1.0
C      1  0.5525830000000  0.4434570000000  0.5434320000000 1.0
C      1  0.4782020000000  0.4997480000000  0.4155170000000 1.0
C      1  0.4330850000000  0.4673950000000  0.4540930000000 1.0
C      1  0.4805490000000  0.4478540000000  0.5617030000000 1.0
C      1  0.5383660000000  0.4296200000000  0.5227120000000 1.0
C      1  0.5278640000000  0.5719620000000  0.4710360000000 1.0
C      1  0.4486170000000  0.5688230000000  0.4793360000000 1.0
C      1  0.5320680000000  0.5009900000000  0.5835920000000 1.0
C      1  0.5555000000000  0.5169680000000  0.4652710000000 1.0
C      1  0.4380890000000  0.4776020000000  0.5494510000000 1.0
C      1  0.4375840000000  0.5259100000000  0.5584970000000 1.0
C      1  0.5117550000000  0.4868750000000  0.5043230000000 1.0
C      1  0.4839410000000  0.4323280000000  0.5379790000000 1.0
C      1  0.5804090000000  0.4642870000000  0.4924470000000 1.0
C      1  0.4619770000000  0.5123200000000  0.5705440000000 1.0
C      1  0.5715710000000  0.5506800000000  0.5081890000000 1.0
C      1  0.4327050000000  0.5034640000000  0.4785720000000 1.0
C      1  0.4526530000000  0.5370490000000  0.4393460000000 1.0
C      1  0.4375780000000  0.5700570000000  0.5072000000000 1.0
C      1  0.5515730000000  0.4897790000000  0.5363830000000 1.0
C      1  0.5033890000000  0.5631200000000  0.5512570000000 1.0
C      1  0.5109340000000  0.4830060000000  0.5944370000000 1.0
C      1  0.4581430000000  0.4869980000000  0.5845870000000 1.0
C      1  0.4783100000000  0.4218210000000  0.4678450000000 1.0
C      1  0.4668890000000  0.4622310000000  0.5163180000000 1.0
C      1  0.4215960000000  0.5296510000000  0.4797620000000 1.0
C      1  0.5196170000000  0.5451780000000  0.4840220000000 1.0
C      1  0.4896420000000  0.5124030000000  0.5588110000000 1.0
C      1  0.5549310000000  0.4593630000000  0.4585010000000 1.0
C      1  0.4243400000000  0.5200820000000  0.5333140000000 1.0
C      1  0.4938930000000  0.4865630000000  0.4612210000000 1.0
C      1  0.5010680000000  0.4184410000000  0.4855590000000 1.0
C      1  0.5469410000000  0.4825140000000  0.5658450000000 1.0
C      1  0.4808950000000  0.4638280000000  0.4458740000000 1.0
C      1  0.5107260000000  0.4443700000000  0.5236630000000 1.0
C      1  0.4541440000000  0.4662370000000  0.4344230000000 1.0
C      1  0.4864730000000  0.5122230000000  0.4758570000000 1.0
C      1  0.5156060000000  0.4867240000000  0.4161120000000 1.0
C      1  0.5247150000000  0.5655140000000  0.5305090000000 1.0
C      1  0.5348600000000  0.5059690000000  0.4150580000000 1.0
C      1  0.4774220000000  0.5724800000000  0.5435710000000 1.0
C      1  0.4995410000000  0.5107090000000  0.5009420000000 1.0
C      1  0.5911290000000  0.4766550000000  0.5154170000000 1.0
C      1  0.4956040000000  0.4249650000000  0.4436840000000 1.0
C      1  0.4554430000000  0.4634720000000  0.5675810000000 1.0
END
