TITL C-3909649-7198-20 -2.45384877743134 125000 -20579.7136343503 0 0 138 (C1) n - 1
REM
REM in /home/nfs/bkarasulu/CARBON/AIRSS/Generating-Clusters/ReaxFF-fromJPCA2015/Units_Real/with-SteepDescent/Only-C1/SD-CG/Try1-3A/FIRE-CG
REM
REM
REM
REM
REM
REM ./C.cell (11c1c37f851c82e70ff6c80c92926a4b)
REM
REM compiler GCC version 9.2.1 20190827 (Red Hat 9.2.1-1)
REM options -cpp -mtune=generic -march=x86-64 -g -O0 -fpre-include=/usr/include/finclude/math-vector-fortran.h
REM seed -1899671487 -875705239 1359441522 -970400409 1431717991 -966883126 -1884778408 -486220438 -852573661 -480652211 1381026920 -365670994 1422862509 -831671639 -1639503576 -329905697 -1634128385 1210143381 -478400541 -820638612 -775634662 -912871689 1643543710 178113627 1121315748 -1066133215 1955397615 -1549507744 -2075966834 -2064169278 628470206 -350359467 410193443
REM
CELL 1.54180   50.00000   50.00000   50.00000   90.00000   90.00000   90.00000
LATT -1
SFAC C  
C      1  0.5059940000000  0.4680970000000  0.4764820000000 1.0
C      1  0.5489740000000  0.4790980000000  0.4971480000000 1.0
C      1  0.5461540000000  0.4369590000000  0.5603770000000 1.0
C      1  0.4025700000000  0.5150690000000  0.5227330000000 1.0
C      1  0.5994060000000  0.5219180000000  0.4811810000000 1.0
C      1  0.4520980000000  0.4841530000000  0.4105360000000 1.0
C      1  0.4965770000000  0.4115760000000  0.5286220000000 1.0
C      1  0.4507590000000  0.4475600000000  0.4800610000000 1.0
C      1  0.4269080000000  0.5298250000000  0.5653030000000 1.0
C      1  0.5033270000000  0.5409390000000  0.4597110000000 1.0
C      1  0.5211460000000  0.5327620000000  0.5274790000000 1.0
C      1  0.5317370000000  0.5795210000000  0.4415070000000 1.0
C      1  0.4996910000000  0.4493280000000  0.5991530000000 1.0
C      1  0.5012790000000  0.4664170000000  0.4005730000000 1.0
C      1  0.4888590000000  0.5117300000000  0.6027240000000 1.0
C      1  0.5214370000000  0.4446400000000  0.5846890000000 1.0
C      1  0.5561020000000  0.5792450000000  0.5310740000000 1.0
C      1  0.5671640000000  0.4281170000000  0.4944730000000 1.0
C      1  0.4228680000000  0.4945570000000  0.4456500000000 1.0
C      1  0.5930770000000  0.4354580000000  0.5435210000000 1.0
C      1  0.5284390000000  0.5806710000000  0.5421950000000 1.0
C      1  0.5621950000000  0.5237700000000  0.5784690000000 1.0
C      1  0.4580960000000  0.5329220000000  0.4248550000000 1.0
C      1  0.4977600000000  0.5574650000000  0.5759560000000 1.0
C      1  0.5564100000000  0.5397050000000  0.4401930000000 1.0
C      1  0.4807270000000  0.4223940000000  0.4913390000000 1.0
C      1  0.5832250000000  0.5379380000000  0.5267500000000 1.0
C      1  0.4372940000000  0.5705650000000  0.5324830000000 1.0
C      1  0.5076920000000  0.4528860000000  0.5608000000000 1.0
C      1  0.4959910000000  0.5916780000000  0.4569360000000 1.0
C      1  0.5673120000000  0.5550640000000  0.4619070000000 1.0
C      1  0.5330690000000  0.4265970000000  0.4657360000000 1.0
C      1  0.5825200000000  0.4442270000000  0.4712450000000 1.0
C      1  0.4961210000000  0.5212280000000  0.4784410000000 1.0
C      1  0.4663330000000  0.5270980000000  0.4516050000000 1.0
C      1  0.5590230000000  0.5838130000000  0.5027720000000 1.0
C      1  0.5778340000000  0.4756230000000  0.5665980000000 1.0
C      1  0.4731500000000  0.4893090000000  0.5882970000000 1.0
C      1  0.4418980000000  0.4612100000000  0.4254490000000 1.0
C      1  0.4697900000000  0.4567930000000  0.4609970000000 1.0
C      1  0.5058160000000  0.5483830000000  0.4136330000000 1.0
C      1  0.5301140000000  0.4835600000000  0.4762950000000 1.0
C      1  0.4786500000000  0.5229680000000  0.5502880000000 1.0
C      1  0.5777060000000  0.4476490000000  0.5662420000000 1.0
C      1  0.5110110000000  0.4837860000000  0.5228540000000 1.0
C      1  0.5908500000000  0.4931670000000  0.4847230000000 1.0
C      1  0.5237300000000  0.4098790000000  0.5181590000000 1.0
C      1  0.4728760000000  0.4581900000000  0.5387810000000 1.0
C      1  0.5828290000000  0.4745850000000  0.4629490000000 1.0
C      1  0.4458560000000  0.5252480000000  0.4727880000000 1.0
C      1  0.4514120000000  0.5365210000000  0.5817910000000 1.0
C      1  0.4041620000000  0.5509250000000  0.5012310000000 1.0
C      1  0.4218670000000  0.4347010000000  0.5194120000000 1.0
C      1  0.4828100000000  0.5346160000000  0.4062170000000 1.0
C      1  0.4800880000000  0.4166730000000  0.4427530000000 1.0
C      1  0.4837050000000  0.5863600000000  0.5170490000000 1.0
C      1  0.4196910000000  0.5526380000000  0.5481150000000 1.0
C      1  0.4738350000000  0.5749110000000  0.4922160000000 1.0
C      1  0.4936370000000  0.5314050000000  0.5275570000000 1.0
C      1  0.4798570000000  0.5377460000000  0.5909750000000 1.0
C      1  0.4841620000000  0.4695320000000  0.5144690000000 1.0
C      1  0.4766640000000  0.5828350000000  0.4358030000000 1.0
C      1  0.5331410000000  0.4659330000000  0.5167790000000 1.0
C      1  0.4203470000000  0.5078250000000  0.5454600000000 1.0
C      1  0.4733920000000  0.4604520000000  0.5960520000000 1.0
C      1  0.5456550000000  0.4642590000000  0.4287370000000 1.0
C      1  0.4689010000000  0.4438620000000  0.4328020000000 1.0
C      1  0.5310490000000  0.5876190000000  0.4941740000000 1.0
C      1  0.5917180000000  0.5226540000000  0.4537700000000 1.0
C      1  0.4046390000000  0.5221450000000  0.4933170000000 1.0
C      1  0.4619520000000  0.5462900000000  0.5565090000000 1.0
C      1  0.5369960000000  0.5311460000000  0.4910070000000 1.0
C      1  0.4222450000000  0.4645380000000  0.4456750000000 1.0
C      1  0.5404500000000  0.5139100000000  0.5397130000000 1.0
C      1  0.4941730000000  0.5094180000000  0.3968250000000 1.0
C      1  0.5424640000000  0.5033750000000  0.5884420000000 1.0
C      1  0.5244010000000  0.5946340000000  0.4629940000000 1.0
C      1  0.5911810000000  0.5434140000000  0.4996540000000 1.0
C      1  0.4571820000000  0.4257530000000  0.5588060000000 1.0
C      1  0.4869720000000  0.4342150000000  0.5496070000000 1.0
C      1  0.5927180000000  0.4226650000000  0.4629030000000 1.0
C      1  0.4664370000000  0.4121400000000  0.4674570000000 1.0
C      1  0.5350670000000  0.4164210000000  0.5430380000000 1.0
C      1  0.5070690000000  0.4971310000000  0.4387960000000 1.0
C      1  0.5289630000000  0.5303670000000  0.4491430000000 1.0
C      1  0.4218480000000  0.4642790000000  0.5211940000000 1.0
C      1  0.4534260000000  0.4697110000000  0.5573590000000 1.0
C      1  0.4966750000000  0.5658560000000  0.4750960000000 1.0
C      1  0.4464470000000  0.4210120000000  0.5320670000000 1.0
C      1  0.4460150000000  0.5756650000000  0.4839040000000 1.0
C      1  0.4144270000000  0.4401890000000  0.4642850000000 1.0
C      1  0.5770800000000  0.5032830000000  0.5635130000000 1.0
C      1  0.4552010000000  0.5168850000000  0.4991260000000 1.0
C      1  0.4701890000000  0.4112350000000  0.5166230000000 1.0
C      1  0.4196290000000  0.5135870000000  0.4692440000000 1.0
C      1  0.4386970000000  0.4229250000000  0.4683640000000 1.0
C      1  0.4793630000000  0.4850410000000  0.3967530000000 1.0
C      1  0.4271400000000  0.5694070000000  0.5052370000000 1.0
C      1  0.4833610000000  0.4987010000000  0.5629950000000 1.0
C      1  0.5126880000000  0.5900140000000  0.5196380000000 1.0
C      1  0.5519720000000  0.5485000000000  0.5668070000000 1.0
C      1  0.5311440000000  0.4973550000000  0.5617280000000 1.0
C      1  0.4925620000000  0.4449990000000  0.4157310000000 1.0
C      1  0.5398950000000  0.4188130000000  0.4911260000000 1.0
C      1  0.4537210000000  0.4479310000000  0.5773420000000 1.0
C      1  0.5738660000000  0.5100000000000  0.5319970000000 1.0
C      1  0.5691320000000  0.5568440000000  0.5443400000000 1.0
C      1  0.4803800000000  0.4811840000000  0.4712430000000 1.0
C      1  0.5670550000000  0.4818980000000  0.4402190000000 1.0
C      1  0.5314050000000  0.5005840000000  0.4523520000000 1.0
C      1  0.5733390000000  0.4919720000000  0.5075480000000 1.0
C      1  0.4928830000000  0.4489450000000  0.4939550000000 1.0
C      1  0.5079060000000  0.4823660000000  0.5538480000000 1.0
C      1  0.4609200000000  0.4876980000000  0.4978850000000 1.0
C      1  0.4815140000000  0.5283230000000  0.5023690000000 1.0
C      1  0.4402720000000  0.5055680000000  0.4249010000000 1.0
C      1  0.5249130000000  0.5616570000000  0.5648330000000 1.0
C      1  0.5766580000000  0.5662470000000  0.4860940000000 1.0
C      1  0.5727570000000  0.4397130000000  0.5214580000000 1.0
C      1  0.5277580000000  0.5606640000000  0.4215050000000 1.0
C      1  0.5287530000000  0.4751770000000  0.4082080000000 1.0
C      1  0.5227150000000  0.5554610000000  0.4956020000000 1.0
C      1  0.5065540000000  0.4271910000000  0.4339810000000 1.0
C      1  0.4639920000000  0.5819180000000  0.5385070000000 1.0
C      1  0.5327800000000  0.4391060000000  0.4414710000000 1.0
C      1  0.5162740000000  0.5077820000000  0.5985720000000 1.0
C      1  0.5508840000000  0.4539640000000  0.5350970000000 1.0
C      1  0.4388400000000  0.5727370000000  0.4543830000000 1.0
C      1  0.4541010000000  0.5645250000000  0.4309020000000 1.0
C      1  0.4382540000000  0.4683740000000  0.4966380000000 1.0
C      1  0.4757950000000  0.5718830000000  0.5631200000000 1.0
C      1  0.5270390000000  0.5093130000000  0.5151030000000 1.0
C      1  0.4850640000000  0.5050390000000  0.4560520000000 1.0
C      1  0.5728840000000  0.5111690000000  0.4368010000000 1.0
C      1  0.3985660000000  0.5434760000000  0.5292200000000 1.0
C      1  0.4283140000000  0.4803630000000  0.5452510000000 1.0
C      1  0.4094250000000  0.4367560000000  0.4929140000000 1.0
C      1  0.5180800000000  0.5023500000000  0.4135130000000 1.0
END
