TITL C-3909780-8184-16 31.03371000001 125000 -24505.0644467518 0 0 164 (C1) n - 1
REM
REM in /home/nfs/bkarasulu/CARBON/AIRSS/Generating-Clusters/ReaxFF-fromJPCA2015/Units_Real/with-SteepDescent/Only-C1/SD-CG/Try1-3A/FIRE-CG
REM
REM
REM
REM
REM
REM ./C.cell (11c1c37f851c82e70ff6c80c92926a4b)
REM
REM compiler GCC version 9.2.1 20190827 (Red Hat 9.2.1-1)
REM options -cpp -mtune=generic -march=x86-64 -g -O0 -fpre-include=/usr/include/finclude/math-vector-fortran.h
REM seed -235773615 -1945570369 152693354 -1758731397 -956728446 -1606510343 946224093 1449544330 89743956 -61283405 136300233 -729204879 1374703639 1372758665 1277778969 -23006510 685618417 1521147473 -681470171 162544303 -1417637297 1934239856 1098895836 -1214802400 1466479085 -761576346 1542804885 -1133254955 -301639805 35420118 185156076 -227571258 1393428869
REM
CELL 1.54180   50.00000   50.00000   50.00000   90.00000   90.00000   90.00000
LATT -1
SFAC C  
C      1  0.5411820000000  0.4742120000000  0.6115020000000 1.0
C      1  0.5314100000000  0.4331290000000  0.5124670000000 1.0
C      1  0.5596340000000  0.4967740000000  0.5358780000000 1.0
C      1  0.5631910000000  0.4003320000000  0.5157860000000 1.0
C      1  0.4158180000000  0.5348070000000  0.4578750000000 1.0
C      1  0.4926150000000  0.4034240000000  0.4533800000000 1.0
C      1  0.5326250000000  0.4481040000000  0.4145720000000 1.0
C      1  0.5081990000000  0.4564110000000  0.5505550000000 1.0
C      1  0.4988120000000  0.4728290000000  0.4984910000000 1.0
C      1  0.5305310000000  0.5698480000000  0.5268200000000 1.0
C      1  0.5147430000000  0.4085430000000  0.5713300000000 1.0
C      1  0.5292600000000  0.4468790000000  0.6075040000000 1.0
C      1  0.5882260000000  0.5468900000000  0.5154590000000 1.0
C      1  0.4390910000000  0.4326440000000  0.5513290000000 1.0
C      1  0.4815650000000  0.4519320000000  0.5716160000000 1.0
C      1  0.4510230000000  0.4791550000000  0.4694530000000 1.0
C      1  0.5547200000000  0.5381430000000  0.5680800000000 1.0
C      1  0.5718030000000  0.4704540000000  0.5367730000000 1.0
C      1  0.4058550000000  0.5082570000000  0.4504870000000 1.0
C      1  0.5502400000000  0.4392200000000  0.5633640000000 1.0
C      1  0.5460100000000  0.4958660000000  0.5930030000000 1.0
C      1  0.5739600000000  0.5850040000000  0.5119800000000 1.0
C      1  0.4505510000000  0.4915190000000  0.5862980000000 1.0
C      1  0.5016370000000  0.4867460000000  0.3880820000000 1.0
C      1  0.5695340000000  0.4896990000000  0.5773690000000 1.0
C      1  0.5677440000000  0.5808020000000  0.4715690000000 1.0
C      1  0.4672120000000  0.5064460000000  0.5365060000000 1.0
C      1  0.5302010000000  0.5041250000000  0.4984690000000 1.0
C      1  0.5415150000000  0.4450800000000  0.4429150000000 1.0
C      1  0.4937370000000  0.6017890000000  0.5334280000000 1.0
C      1  0.4394610000000  0.5493610000000  0.5536700000000 1.0
C      1  0.4978230000000  0.5199470000000  0.5334890000000 1.0
C      1  0.5125080000000  0.4770850000000  0.5368880000000 1.0
C      1  0.5170720000000  0.5549540000000  0.5040130000000 1.0
C      1  0.5619490000000  0.5370280000000  0.5064090000000 1.0
C      1  0.4832190000000  0.5607420000000  0.5829810000000 1.0
C      1  0.4729120000000  0.4946820000000  0.3896660000000 1.0
C      1  0.4867090000000  0.6120690000000  0.4675470000000 1.0
C      1  0.4444590000000  0.5783570000000  0.4875640000000 1.0
C      1  0.4464560000000  0.5063120000000  0.4815860000000 1.0
C      1  0.5518700000000  0.5250730000000  0.4366050000000 1.0
C      1  0.5835740000000  0.4422610000000  0.4651030000000 1.0
C      1  0.6027540000000  0.5034380000000  0.5380740000000 1.0
C      1  0.4749840000000  0.4051000000000  0.4788220000000 1.0
C      1  0.5179480000000  0.5086840000000  0.5846050000000 1.0
C      1  0.5885910000000  0.4559070000000  0.4920590000000 1.0
C      1  0.4160320000000  0.4487970000000  0.5001220000000 1.0
C      1  0.5787150000000  0.4479760000000  0.5178450000000 1.0
C      1  0.5856570000000  0.5588240000000  0.5426740000000 1.0
C      1  0.4503760000000  0.5200790000000  0.5919860000000 1.0
C      1  0.4241700000000  0.4710880000000  0.5253300000000 1.0
C      1  0.6077340000000  0.5311210000000  0.4994250000000 1.0
C      1  0.4649330000000  0.4263620000000  0.5638300000000 1.0
C      1  0.4371370000000  0.4167320000000  0.5262740000000 1.0
C      1  0.4420020000000  0.4099240000000  0.4765690000000 1.0
C      1  0.4969930000000  0.4612570000000  0.3971710000000 1.0
C      1  0.5812890000000  0.4590690000000  0.4422920000000 1.0
C      1  0.5124430000000  0.4704280000000  0.6121450000000 1.0
C      1  0.4255310000000  0.5699270000000  0.5341640000000 1.0
C      1  0.5175790000000  0.4044740000000  0.4609630000000 1.0
C      1  0.4696250000000  0.5680430000000  0.5570230000000 1.0
C      1  0.4634900000000  0.5824350000000  0.5104040000000 1.0
C      1  0.5163830000000  0.6063300000000  0.4689570000000 1.0
C      1  0.4576450000000  0.5657370000000  0.4195030000000 1.0
C      1  0.5684280000000  0.4631010000000  0.5649220000000 1.0
C      1  0.4424530000000  0.4196470000000  0.4509360000000 1.0
C      1  0.3975250000000  0.5122080000000  0.5419850000000 1.0
C      1  0.4829840000000  0.4458120000000  0.4542440000000 1.0
C      1  0.4352490000000  0.5738670000000  0.4358440000000 1.0
C      1  0.5207050000000  0.5553730000000  0.5516120000000 1.0
C      1  0.5267360000000  0.3982160000000  0.5473530000000 1.0
C      1  0.5222900000000  0.5491870000000  0.4167060000000 1.0
C      1  0.4162390000000  0.5510850000000  0.4339480000000 1.0
C      1  0.5563180000000  0.4941320000000  0.4523660000000 1.0
C      1  0.4872280000000  0.4074450000000  0.5589930000000 1.0
C      1  0.4472610000000  0.5240850000000  0.5416500000000 1.0
C      1  0.5438070000000  0.4111540000000  0.4997070000000 1.0
C      1  0.6029110000000  0.5327630000000  0.4451690000000 1.0
C      1  0.5323670000000  0.4296000000000  0.5844500000000 1.0
C      1  0.5564890000000  0.5109570000000  0.4981120000000 1.0
C      1  0.5300700000000  0.6064650000000  0.4946070000000 1.0
C      1  0.4324790000000  0.4566470000000  0.4747640000000 1.0
C      1  0.4273240000000  0.4823490000000  0.5713540000000 1.0
C      1  0.4528950000000  0.4295760000000  0.4273740000000 1.0
C      1  0.4711600000000  0.4715490000000  0.5063510000000 1.0
C      1  0.4829910000000  0.5731330000000  0.4359420000000 1.0
C      1  0.4751910000000  0.5358800000000  0.5964150000000 1.0
C      1  0.4530930000000  0.4865220000000  0.5223090000000 1.0
C      1  0.5604610000000  0.4260120000000  0.4556880000000 1.0
C      1  0.5155250000000  0.4999870000000  0.5231250000000 1.0
C      1  0.5799730000000  0.5306610000000  0.4266020000000 1.0
C      1  0.4634370000000  0.4444880000000  0.4981450000000 1.0
C      1  0.5306050000000  0.4399820000000  0.5405360000000 1.0
C      1  0.3967440000000  0.5296330000000  0.5175510000000 1.0
C      1  0.5355750000000  0.5593240000000  0.5760790000000 1.0
C      1  0.5136770000000  0.5172370000000  0.4780280000000 1.0
C      1  0.4511230000000  0.4749690000000  0.3945240000000 1.0
C      1  0.4842490000000  0.4257460000000  0.4321260000000 1.0
C      1  0.5138110000000  0.5745680000000  0.4256420000000 1.0
C      1  0.4274030000000  0.4786650000000  0.4112170000000 1.0
C      1  0.4187440000000  0.5037170000000  0.4243130000000 1.0
C      1  0.5436850000000  0.4751540000000  0.4094850000000 1.0
C      1  0.5113830000000  0.5570020000000  0.5928000000000 1.0
C      1  0.4674320000000  0.5971880000000  0.4514380000000 1.0
C      1  0.5272170000000  0.4970230000000  0.4005290000000 1.0
C      1  0.4433620000000  0.5328430000000  0.4697560000000 1.0
C      1  0.4502260000000  0.5418780000000  0.4045910000000 1.0
C      1  0.5150530000000  0.4663850000000  0.4753730000000 1.0
C      1  0.5684200000000  0.5498700000000  0.4791300000000 1.0
C      1  0.4692140000000  0.5979100000000  0.5482480000000 1.0
C      1  0.5186200000000  0.5259290000000  0.5537890000000 1.0
C      1  0.4269090000000  0.4595310000000  0.5526250000000 1.0
C      1  0.4803990000000  0.4401420000000  0.5985180000000 1.0
C      1  0.5502370000000  0.5759240000000  0.4484680000000 1.0
C      1  0.4879020000000  0.4935330000000  0.4383660000000 1.0
C      1  0.4412670000000  0.5881810000000  0.4613060000000 1.0
C      1  0.4765650000000  0.5183550000000  0.4307940000000 1.0
C      1  0.5045240000000  0.4391920000000  0.4107620000000 1.0
C      1  0.5040120000000  0.5301760000000  0.6014150000000 1.0
C      1  0.3978990000000  0.4923900000000  0.4737960000000 1.0
C      1  0.4244620000000  0.5309500000000  0.4144430000000 1.0
C      1  0.5448780000000  0.5473950000000  0.4577740000000 1.0
C      1  0.4133950000000  0.5080260000000  0.5666610000000 1.0
C      1  0.5674950000000  0.4792990000000  0.4277760000000 1.0
C      1  0.4048370000000  0.4642600000000  0.4759500000000 1.0
C      1  0.5624120000000  0.5745600000000  0.5345580000000 1.0
C      1  0.4772150000000  0.4330350000000  0.4774320000000 1.0
C      1  0.4428880000000  0.4531470000000  0.4126420000000 1.0
C      1  0.6078590000000  0.5030210000000  0.5089990000000 1.0
C      1  0.5833140000000  0.5392370000000  0.5649910000000 1.0
C      1  0.5270380000000  0.5927090000000  0.4443760000000 1.0
C      1  0.4834650000000  0.4019880000000  0.5100810000000 1.0
C      1  0.4084720000000  0.5576270000000  0.5139470000000 1.0
C      1  0.5713690000000  0.4984280000000  0.4780730000000 1.0
C      1  0.5969560000000  0.5390940000000  0.4739790000000 1.0
C      1  0.5895910000000  0.5102390000000  0.5632930000000 1.0
C      1  0.5475190000000  0.5219600000000  0.5426940000000 1.0
C      1  0.4216090000000  0.5694690000000  0.4926060000000 1.0
C      1  0.3946680000000  0.5055490000000  0.5004380000000 1.0
C      1  0.5938330000000  0.4846220000000  0.4899030000000 1.0
C      1  0.5132030000000  0.4484110000000  0.4969630000000 1.0
C      1  0.4990600000000  0.3963160000000  0.5337590000000 1.0
C      1  0.5326300000000  0.5240690000000  0.4116500000000 1.0
C      1  0.3995230000000  0.4888120000000  0.5243320000000 1.0
C      1  0.4759930000000  0.5629370000000  0.5275160000000 1.0
C      1  0.4649500000000  0.4224730000000  0.5180120000000 1.0
C      1  0.4762080000000  0.4784410000000  0.5850700000000 1.0
C      1  0.5368030000000  0.4706910000000  0.4570130000000 1.0
C      1  0.4263880000000  0.4203220000000  0.4994250000000 1.0
C      1  0.5160910000000  0.5491240000000  0.4743990000000 1.0
C      1  0.5178790000000  0.5994590000000  0.5206500000000 1.0
C      1  0.4689370000000  0.5361150000000  0.4538010000000 1.0
C      1  0.5002940000000  0.4877510000000  0.5938880000000 1.0
C      1  0.5758100000000  0.4210050000000  0.5286360000000 1.0
C      1  0.4896010000000  0.5550110000000  0.4594150000000 1.0
C      1  0.4278690000000  0.5310750000000  0.5770790000000 1.0
C      1  0.4943030000000  0.5437440000000  0.5171340000000 1.0
C      1  0.5436340000000  0.4060380000000  0.4702880000000 1.0
C      1  0.5555770000000  0.4037700000000  0.5426620000000 1.0
C      1  0.4454890000000  0.5910720000000  0.5309080000000 1.0
C      1  0.5591910000000  0.5994160000000  0.4920460000000 1.0
C      1  0.4732120000000  0.4728960000000  0.4514960000000 1.0
C      1  0.4706770000000  0.5209040000000  0.4029960000000 1.0
C      1  0.5008940000000  0.5025140000000  0.4602700000000 1.0
END
