TITL C-3909784-5023-24 19.1523540890202 125000 -16966.7976898514 0 0 113 (C1) n - 1
REM
REM in /home/nfs/bkarasulu/CARBON/AIRSS/Generating-Clusters/ReaxFF-fromJPCA2015/Units_Real/with-SteepDescent/Only-C1/SD-CG/Try1-3A/FIRE-CG
REM
REM
REM
REM
REM
REM ./C.cell (11c1c37f851c82e70ff6c80c92926a4b)
REM
REM compiler GCC version 9.2.1 20190827 (Red Hat 9.2.1-1)
REM options -cpp -mtune=generic -march=x86-64 -g -O0 -fpre-include=/usr/include/finclude/math-vector-fortran.h
REM seed 89593840 -1208172063 -385684030 -2125340965 2030418652 -1660965169 1172004520 -962835654 1227637982 1379423297 1251908834 -11719294 1154490871 -250922779 1536182973 -432008449 -1524200862 182398649 1839167132 885494 -824925276 1119716232 586693583 -1158760874 -299542209 -1233869803 806810665 1088804199 -1331487375 1147686594 -758918891 444949580 2038333932
REM
CELL 1.54180   50.00000   50.00000   50.00000   90.00000   90.00000   90.00000
LATT -1
SFAC C  
C      1  0.5426400000000  0.4931810000000  0.5848810000000 1.0
C      1  0.5578790000000  0.5198010000000  0.4973900000000 1.0
C      1  0.5423970000000  0.4409430000000  0.5423020000000 1.0
C      1  0.5654560000000  0.4552200000000  0.5569450000000 1.0
C      1  0.4353400000000  0.4643960000000  0.4600560000000 1.0
C      1  0.5220800000000  0.5059000000000  0.4625620000000 1.0
C      1  0.4555730000000  0.5088400000000  0.4851530000000 1.0
C      1  0.5080630000000  0.5193170000000  0.4415160000000 1.0
C      1  0.5032060000000  0.5738050000000  0.4871990000000 1.0
C      1  0.5529470000000  0.4326110000000  0.4504630000000 1.0
C      1  0.4635690000000  0.4966850000000  0.6081210000000 1.0
C      1  0.5067660000000  0.4581040000000  0.5196970000000 1.0
C      1  0.6144740000000  0.5139370000000  0.5180160000000 1.0
C      1  0.5358230000000  0.4675910000000  0.4227120000000 1.0
C      1  0.5020780000000  0.4044940000000  0.5239560000000 1.0
C      1  0.4654050000000  0.4284990000000  0.4810390000000 1.0
C      1  0.5515780000000  0.5557050000000  0.4672210000000 1.0
C      1  0.4531140000000  0.4464890000000  0.5014910000000 1.0
C      1  0.5228890000000  0.5445090000000  0.5201590000000 1.0
C      1  0.4770200000000  0.4177510000000  0.5316130000000 1.0
C      1  0.5052620000000  0.5064040000000  0.5511140000000 1.0
C      1  0.5809180000000  0.4766660000000  0.5061410000000 1.0
C      1  0.5632960000000  0.5060180000000  0.5470550000000 1.0
C      1  0.6220700000000  0.5356430000000  0.5267950000000 1.0
C      1  0.4835560000000  0.5816560000000  0.4639190000000 1.0
C      1  0.5703090000000  0.4776090000000  0.4580730000000 1.0
C      1  0.5181580000000  0.4848420000000  0.5701050000000 1.0
C      1  0.4214210000000  0.5440880000000  0.5341010000000 1.0
C      1  0.5008570000000  0.4519060000000  0.4572750000000 1.0
C      1  0.5381140000000  0.5227850000000  0.5879860000000 1.0
C      1  0.4493720000000  0.5422050000000  0.5452730000000 1.0
C      1  0.5269560000000  0.3994770000000  0.5094020000000 1.0
C      1  0.5574750000000  0.5127710000000  0.4262890000000 1.0
C      1  0.5094380000000  0.4851090000000  0.4777890000000 1.0
C      1  0.4986190000000  0.4440650000000  0.5651270000000 1.0
C      1  0.4816090000000  0.5218460000000  0.4487770000000 1.0
C      1  0.4603900000000  0.5149760000000  0.5399860000000 1.0
C      1  0.4495090000000  0.5531260000000  0.4716010000000 1.0
C      1  0.4863100000000  0.5418940000000  0.5915670000000 1.0
C      1  0.4614280000000  0.4845500000000  0.4640120000000 1.0
C      1  0.4721810000000  0.4835890000000  0.4149070000000 1.0
C      1  0.4229890000000  0.5015820000000  0.5628720000000 1.0
C      1  0.4485130000000  0.4380780000000  0.4564880000000 1.0
C      1  0.4506830000000  0.4711290000000  0.5154950000000 1.0
C      1  0.5519040000000  0.4146620000000  0.4986780000000 1.0
C      1  0.5227340000000  0.5376660000000  0.5491340000000 1.0
C      1  0.5132100000000  0.5656180000000  0.5567420000000 1.0
C      1  0.5489680000000  0.5277690000000  0.5610590000000 1.0
C      1  0.5493850000000  0.5407520000000  0.4201640000000 1.0
C      1  0.5646310000000  0.4991860000000  0.5175270000000 1.0
C      1  0.4310350000000  0.4726040000000  0.5564030000000 1.0
C      1  0.4164560000000  0.4774040000000  0.4745820000000 1.0
C      1  0.4726060000000  0.4372160000000  0.5545030000000 1.0
C      1  0.4637880000000  0.4987010000000  0.5142610000000 1.0
C      1  0.5356430000000  0.5714750000000  0.4854100000000 1.0
C      1  0.5269020000000  0.4227160000000  0.4397180000000 1.0
C      1  0.4631380000000  0.4460080000000  0.4342700000000 1.0
C      1  0.5719220000000  0.4327850000000  0.5687630000000 1.0
C      1  0.5616590000000  0.4337860000000  0.4782000000000 1.0
C      1  0.4716970000000  0.4797630000000  0.5799240000000 1.0
C      1  0.5093560000000  0.5271640000000  0.5042120000000 1.0
C      1  0.5102580000000  0.4825020000000  0.5063380000000 1.0
C      1  0.4417710000000  0.5444870000000  0.4321200000000 1.0
C      1  0.4566080000000  0.5808350000000  0.4751000000000 1.0
C      1  0.4655980000000  0.5002560000000  0.4383110000000 1.0
C      1  0.4882660000000  0.4731030000000  0.4669360000000 1.0
C      1  0.4301100000000  0.5630520000000  0.5155640000000 1.0
C      1  0.4962220000000  0.5868180000000  0.5150410000000 1.0
C      1  0.5368650000000  0.5694870000000  0.5138920000000 1.0
C      1  0.5375320000000  0.4944770000000  0.4151580000000 1.0
C      1  0.4965780000000  0.5030120000000  0.5207670000000 1.0
C      1  0.4825180000000  0.4558110000000  0.4173560000000 1.0
C      1  0.4118570000000  0.5157380000000  0.5390280000000 1.0
C      1  0.4882750000000  0.5705280000000  0.4380410000000 1.0
C      1  0.5691500000000  0.5069090000000  0.4524630000000 1.0
C      1  0.4387770000000  0.5153350000000  0.5814740000000 1.0
C      1  0.5435300000000  0.5619890000000  0.4398210000000 1.0
C      1  0.5150140000000  0.5641260000000  0.4289850000000 1.0
C      1  0.4696630000000  0.5826970000000  0.5253090000000 1.0
C      1  0.4777760000000  0.5036230000000  0.5598200000000 1.0
C      1  0.5727640000000  0.4612730000000  0.4816970000000 1.0
C      1  0.5118410000000  0.5126440000000  0.4139620000000 1.0
C      1  0.4280900000000  0.5165670000000  0.4769490000000 1.0
C      1  0.5215940000000  0.5417500000000  0.4105500000000 1.0
C      1  0.5178670000000  0.5825620000000  0.5333870000000 1.0
C      1  0.4652680000000  0.5557410000000  0.4209830000000 1.0
C      1  0.5108910000000  0.4495640000000  0.4302060000000 1.0
C      1  0.4601130000000  0.5238130000000  0.5989080000000 1.0
C      1  0.4280510000000  0.5396380000000  0.4569010000000 1.0
C      1  0.4550210000000  0.4585160000000  0.5643280000000 1.0
C      1  0.5582670000000  0.4587800000000  0.4387580000000 1.0
C      1  0.4081340000000  0.4957570000000  0.5191390000000 1.0
C      1  0.4698970000000  0.5319850000000  0.4063750000000 1.0
C      1  0.5176800000000  0.4533150000000  0.5456160000000 1.0
C      1  0.4596340000000  0.4211700000000  0.5087410000000 1.0
C      1  0.6037080000000  0.4922550000000  0.5096080000000 1.0
C      1  0.5308810000000  0.5201480000000  0.4863970000000 1.0
C      1  0.5141780000000  0.4381190000000  0.5013010000000 1.0
C      1  0.4941580000000  0.5457600000000  0.4922190000000 1.0
C      1  0.5639630000000  0.4855450000000  0.5667250000000 1.0
C      1  0.5114480000000  0.5324680000000  0.5912100000000 1.0
C      1  0.4823210000000  0.5074400000000  0.4005780000000 1.0
C      1  0.4992230000000  0.4296170000000  0.4759540000000 1.0
C      1  0.4986960000000  0.4670500000000  0.5824170000000 1.0
C      1  0.4243040000000  0.4726910000000  0.5281520000000 1.0
C      1  0.4874410000000  0.5627420000000  0.5699770000000 1.0
C      1  0.5117280000000  0.4062120000000  0.4570970000000 1.0
C      1  0.4738670000000  0.5337910000000  0.4746460000000 1.0
C      1  0.4479400000000  0.5813270000000  0.5041990000000 1.0
C      1  0.5675580000000  0.5294880000000  0.4715920000000 1.0
C      1  0.4070200000000  0.4993500000000  0.4890470000000 1.0
C      1  0.5410520000000  0.4371010000000  0.5131840000000 1.0
C      1  0.4662670000000  0.5659660000000  0.5494780000000 1.0
END
