TITL C-3909648-4458-6 -8.5332236901617 125000 -10002.3457625047 0 0 68 (C1) n - 1
REM
REM in /home/nfs/bkarasulu/CARBON/AIRSS/Generating-Clusters/ReaxFF-fromJPCA2015/Units_Real/with-SteepDescent/Only-C1/SD-CG/Try1-3A/FIRE-CG
REM
REM
REM
REM
REM
REM ./C.cell (11c1c37f851c82e70ff6c80c92926a4b)
REM
REM compiler GCC version 9.2.1 20190827 (Red Hat 9.2.1-1)
REM options -cpp -mtune=generic -march=x86-64 -g -O0 -fpre-include=/usr/include/finclude/math-vector-fortran.h
REM seed -56218390 1640942126 970793973 222533114 -305301849 -104579615 457887450 -2091047436 708256226 2146188450 -1188515837 -118051073 2037395524 801256381 1960579727 -1701577641 1514311103 1481850939 -267011299 -829220266 -680110420 879652497 -1047925556 -640319394 17945565 115405026 -930585236 285486676 -1601390560 -1788234476 -390108960 1211063249 -779973457
REM
CELL 1.54180   50.00000   50.00000   50.00000   90.00000   90.00000   90.00000
LATT -1
SFAC C  
C      1  0.4698340000000  0.4724490000000  0.5537400000000 1.0
C      1  0.4393560000000  0.5512260000000  0.5457220000000 1.0
C      1  0.5629220000000  0.4631190000000  0.5278610000000 1.0
C      1  0.4534710000000  0.4907110000000  0.4514190000000 1.0
C      1  0.4653390000000  0.5413080000000  0.4524480000000 1.0
C      1  0.4472070000000  0.5306190000000  0.4984560000000 1.0
C      1  0.4598900000000  0.5687730000000  0.5408450000000 1.0
C      1  0.4917200000000  0.4507380000000  0.4293560000000 1.0
C      1  0.5056380000000  0.5471330000000  0.4435390000000 1.0
C      1  0.5070120000000  0.5341630000000  0.5693980000000 1.0
C      1  0.4308740000000  0.5053310000000  0.4635260000000 1.0
C      1  0.4808600000000  0.5844300000000  0.5358330000000 1.0
C      1  0.4682510000000  0.4965190000000  0.4267160000000 1.0
C      1  0.4500760000000  0.5275120000000  0.5624590000000 1.0
C      1  0.5156120000000  0.4970710000000  0.4256240000000 1.0
C      1  0.5498060000000  0.4386300000000  0.4805330000000 1.0
C      1  0.5328980000000  0.4852150000000  0.4462150000000 1.0
C      1  0.5100700000000  0.5744330000000  0.5366540000000 1.0
C      1  0.4517750000000  0.5012990000000  0.4991680000000 1.0
C      1  0.4923000000000  0.4806530000000  0.4219740000000 1.0
C      1  0.5036820000000  0.5184960000000  0.5005370000000 1.0
C      1  0.5225200000000  0.4792260000000  0.4976120000000 1.0
C      1  0.5455860000000  0.5350910000000  0.5407920000000 1.0
C      1  0.5406730000000  0.5055800000000  0.5452750000000 1.0
C      1  0.5469680000000  0.4546580000000  0.5489350000000 1.0
C      1  0.4270200000000  0.4899660000000  0.4882380000000 1.0
C      1  0.4880290000000  0.5593910000000  0.4610550000000 1.0
C      1  0.4993570000000  0.5825580000000  0.5110750000000 1.0
C      1  0.4984200000000  0.4644450000000  0.5572840000000 1.0
C      1  0.4398390000000  0.5091730000000  0.5417270000000 1.0
C      1  0.4943440000000  0.4993590000000  0.5204440000000 1.0
C      1  0.5042580000000  0.5254210000000  0.4257760000000 1.0
C      1  0.4744840000000  0.4412600000000  0.4500570000000 1.0
C      1  0.5010620000000  0.5650610000000  0.4880660000000 1.0
C      1  0.4327920000000  0.5312460000000  0.5241350000000 1.0
C      1  0.5280810000000  0.4356520000000  0.4989790000000 1.0
C      1  0.5661940000000  0.5107690000000  0.4634090000000 1.0
C      1  0.4959300000000  0.5052080000000  0.4757390000000 1.0
C      1  0.4915900000000  0.4910110000000  0.5479310000000 1.0
C      1  0.4744230000000  0.5252730000000  0.4287710000000 1.0
C      1  0.4532080000000  0.4606650000000  0.5177580000000 1.0
C      1  0.4784060000000  0.5309310000000  0.5683510000000 1.0
C      1  0.5380020000000  0.4894700000000  0.5882300000000 1.0
C      1  0.5735150000000  0.4754510000000  0.5048660000000 1.0
C      1  0.5177580000000  0.4474400000000  0.5438710000000 1.0
C      1  0.4453040000000  0.4460280000000  0.4758270000000 1.0
C      1  0.4430890000000  0.5321750000000  0.4695000000000 1.0
C      1  0.5617820000000  0.5339450000000  0.5164940000000 1.0
C      1  0.5085360000000  0.4373200000000  0.5181950000000 1.0
C      1  0.4797640000000  0.4501990000000  0.5072320000000 1.0
C      1  0.5634790000000  0.5344110000000  0.4747350000000 1.0
C      1  0.4331850000000  0.4617340000000  0.4958170000000 1.0
C      1  0.5528220000000  0.4796570000000  0.5644750000000 1.0
C      1  0.4706300000000  0.4367560000000  0.4777650000000 1.0
C      1  0.4691620000000  0.4944170000000  0.4758070000000 1.0
C      1  0.5382270000000  0.4970790000000  0.5143310000000 1.0
C      1  0.5654580000000  0.4643910000000  0.4788910000000 1.0
C      1  0.5638600000000  0.5060350000000  0.5039850000000 1.0
C      1  0.5219240000000  0.5504290000000  0.5485060000000 1.0
C      1  0.5168130000000  0.4859180000000  0.4696510000000 1.0
C      1  0.5482320000000  0.5479710000000  0.4947570000000 1.0
C      1  0.5230600000000  0.5088870000000  0.5696220000000 1.0
C      1  0.5609690000000  0.4834950000000  0.4571490000000 1.0
C      1  0.4952310000000  0.4754160000000  0.5048530000000 1.0
C      1  0.5144750000000  0.4385480000000  0.4412100000000 1.0
C      1  0.5327960000000  0.4346100000000  0.4582580000000 1.0
C      1  0.4516010000000  0.4827150000000  0.5350810000000 1.0
C      1  0.5185510000000  0.5437350000000  0.4974540000000 1.0
END
