TITL C-3909779-8285-29 16.3652686870023 125000 -24925.9853407027 0 0 165 (C1) n - 1
REM
REM in /home/nfs/bkarasulu/CARBON/AIRSS/Generating-Clusters/ReaxFF-fromJPCA2015/Units_Real/with-SteepDescent/Only-C1/SD-CG/Try1-3A/FIRE-CG
REM
REM
REM
REM
REM
REM ./C.cell (11c1c37f851c82e70ff6c80c92926a4b)
REM
REM compiler GCC version 9.2.1 20190827 (Red Hat 9.2.1-1)
REM options -cpp -mtune=generic -march=x86-64 -g -O0 -fpre-include=/usr/include/finclude/math-vector-fortran.h
REM seed -1316392585 542407311 1354107089 -812074604 1660597454 1949060828 1944801396 -51267558 1983615252 -819799896 -441539231 2141089428 -710514892 236412426 193436567 -2054140875 493099781 -1427082172 1205049434 -1024039247 -261645978 -2006515634 1284537077 1645911951 2119582544 1714976922 -1912420904 1626765746 910101213 1396710487 150050785 199288272 -1351383023
REM
CELL 1.54180   50.00000   50.00000   50.00000   90.00000   90.00000   90.00000
LATT -1
SFAC C  
C      1  0.4971520000000  0.5029680000000  0.4758530000000 1.0
C      1  0.5966800000000  0.4568410000000  0.5303510000000 1.0
C      1  0.4497080000000  0.5905640000000  0.4610810000000 1.0
C      1  0.4484580000000  0.4167340000000  0.5245000000000 1.0
C      1  0.4969840000000  0.4085770000000  0.5304790000000 1.0
C      1  0.5580910000000  0.4805340000000  0.4102120000000 1.0
C      1  0.4857010000000  0.4598100000000  0.4442180000000 1.0
C      1  0.5129020000000  0.5471850000000  0.5065870000000 1.0
C      1  0.4745180000000  0.4091590000000  0.5116440000000 1.0
C      1  0.4096070000000  0.4459850000000  0.5015540000000 1.0
C      1  0.4971440000000  0.5946660000000  0.5366170000000 1.0
C      1  0.4415390000000  0.5207070000000  0.5878240000000 1.0
C      1  0.5504600000000  0.5957760000000  0.4783490000000 1.0
C      1  0.5211730000000  0.5885260000000  0.5508950000000 1.0
C      1  0.4784660000000  0.5156560000000  0.3993130000000 1.0
C      1  0.5260510000000  0.4204810000000  0.5697330000000 1.0
C      1  0.5231420000000  0.4593810000000  0.5977220000000 1.0
C      1  0.5243770000000  0.4449390000000  0.4438360000000 1.0
C      1  0.4869470000000  0.4599010000000  0.3961920000000 1.0
C      1  0.4970160000000  0.5140000000000  0.5912670000000 1.0
C      1  0.5710480000000  0.4742960000000  0.4919690000000 1.0
C      1  0.5925660000000  0.4951050000000  0.4492450000000 1.0
C      1  0.4685040000000  0.4619240000000  0.4905940000000 1.0
C      1  0.5659320000000  0.4878250000000  0.5885000000000 1.0
C      1  0.5485160000000  0.4817710000000  0.4709790000000 1.0
C      1  0.5253940000000  0.5221390000000  0.6010100000000 1.0
C      1  0.5259060000000  0.5452770000000  0.5456400000000 1.0
C      1  0.4978470000000  0.4593170000000  0.5337860000000 1.0
C      1  0.4287230000000  0.5818210000000  0.4796800000000 1.0
C      1  0.5202400000000  0.4831160000000  0.4796220000000 1.0
C      1  0.5799320000000  0.5277360000000  0.5656610000000 1.0
C      1  0.5411310000000  0.5882000000000  0.5306860000000 1.0
C      1  0.4850380000000  0.5373920000000  0.5115440000000 1.0
C      1  0.5197980000000  0.4120180000000  0.4887930000000 1.0
C      1  0.4701580000000  0.5075220000000  0.5480120000000 1.0
C      1  0.4544070000000  0.4930570000000  0.5950300000000 1.0
C      1  0.4209310000000  0.5187420000000  0.5704800000000 1.0
C      1  0.4744980000000  0.6056080000000  0.4657110000000 1.0
C      1  0.5305350000000  0.5614240000000  0.4627880000000 1.0
C      1  0.4825720000000  0.5591200000000  0.4709480000000 1.0
C      1  0.5077600000000  0.4751330000000  0.5565200000000 1.0
C      1  0.5170790000000  0.5190830000000  0.5437590000000 1.0
C      1  0.4302820000000  0.4246040000000  0.4531630000000 1.0
C      1  0.4719010000000  0.4946130000000  0.5182820000000 1.0
C      1  0.4092760000000  0.5312850000000  0.5243160000000 1.0
C      1  0.5799820000000  0.5452570000000  0.5426900000000 1.0
C      1  0.5940290000000  0.5229650000000  0.4567380000000 1.0
C      1  0.5173630000000  0.5158350000000  0.4504190000000 1.0
C      1  0.5084390000000  0.5068550000000  0.4003350000000 1.0
C      1  0.5464600000000  0.4216130000000  0.5489350000000 1.0
C      1  0.4341590000000  0.5912770000000  0.5077610000000 1.0
C      1  0.5948380000000  0.4800360000000  0.4750410000000 1.0
C      1  0.5515370000000  0.4940720000000  0.5359270000000 1.0
C      1  0.5968680000000  0.5446970000000  0.5193210000000 1.0
C      1  0.4006590000000  0.5061070000000  0.4732320000000 1.0
C      1  0.4657870000000  0.5351500000000  0.4135690000000 1.0
C      1  0.4612090000000  0.5343550000000  0.5345150000000 1.0
C      1  0.5128250000000  0.4169930000000  0.4469750000000 1.0
C      1  0.4850120000000  0.4105730000000  0.4562250000000 1.0
C      1  0.5700720000000  0.5664580000000  0.4548390000000 1.0
C      1  0.4701120000000  0.4086940000000  0.4821600000000 1.0
C      1  0.5130080000000  0.4958560000000  0.4273870000000 1.0
C      1  0.3911820000000  0.5090470000000  0.5258150000000 1.0
C      1  0.4520840000000  0.5611780000000  0.5460040000000 1.0
C      1  0.5327140000000  0.4029550000000  0.4631260000000 1.0
C      1  0.4668580000000  0.5694750000000  0.4470970000000 1.0
C      1  0.3919310000000  0.4939660000000  0.5017020000000 1.0
C      1  0.5353790000000  0.5992140000000  0.5041500000000 1.0
C      1  0.4011120000000  0.5046790000000  0.5570020000000 1.0
C      1  0.5179070000000  0.5569080000000  0.4172100000000 1.0
C      1  0.4287340000000  0.5717120000000  0.5283110000000 1.0
C      1  0.5837460000000  0.5255420000000  0.4841110000000 1.0
C      1  0.5539600000000  0.5314490000000  0.4873580000000 1.0
C      1  0.5401760000000  0.4720790000000  0.5516260000000 1.0
C      1  0.4391200000000  0.4561750000000  0.4180820000000 1.0
C      1  0.4738140000000  0.4201160000000  0.4309880000000 1.0
C      1  0.5172540000000  0.5629020000000  0.5694230000000 1.0
C      1  0.4912300000000  0.5575780000000  0.5774250000000 1.0
C      1  0.5717900000000  0.4353910000000  0.4487590000000 1.0
C      1  0.5470890000000  0.4476980000000  0.5336230000000 1.0
C      1  0.5067580000000  0.6039280000000  0.5091020000000 1.0
C      1  0.4500890000000  0.4301900000000  0.5489930000000 1.0
C      1  0.5332660000000  0.5332730000000  0.4084230000000 1.0
C      1  0.5489430000000  0.4038490000000  0.5266430000000 1.0
C      1  0.4991620000000  0.5046960000000  0.5596320000000 1.0
C      1  0.4612330000000  0.6009670000000  0.5144720000000 1.0
C      1  0.5500490000000  0.4545920000000  0.4534200000000 1.0
C      1  0.5184710000000  0.4532770000000  0.5150490000000 1.0
C      1  0.4416200000000  0.4151560000000  0.4789710000000 1.0
C      1  0.5366850000000  0.5889180000000  0.4524150000000 1.0
C      1  0.4352830000000  0.4768110000000  0.5335890000000 1.0
C      1  0.4123230000000  0.5579610000000  0.4821930000000 1.0
C      1  0.4179750000000  0.4704100000000  0.4345670000000 1.0
C      1  0.5511250000000  0.5575740000000  0.5332450000000 1.0
C      1  0.4447220000000  0.4782510000000  0.4839970000000 1.0
C      1  0.5534120000000  0.5100280000000  0.6021090000000 1.0
C      1  0.5690480000000  0.4099960000000  0.4836860000000 1.0
C      1  0.4397610000000  0.4728360000000  0.5783930000000 1.0
C      1  0.5746090000000  0.4969060000000  0.4252140000000 1.0
C      1  0.4095800000000  0.5333550000000  0.4648190000000 1.0
C      1  0.4456790000000  0.4300370000000  0.4294150000000 1.0
C      1  0.5703690000000  0.4172300000000  0.5102770000000 1.0
C      1  0.4584370000000  0.4678790000000  0.3993700000000 1.0
C      1  0.4970260000000  0.4641600000000  0.5857630000000 1.0
C      1  0.4314910000000  0.5291800000000  0.4452900000000 1.0
C      1  0.4876480000000  0.5927190000000  0.4420790000000 1.0
C      1  0.4203730000000  0.4621610000000  0.4794530000000 1.0
C      1  0.4766470000000  0.4665570000000  0.5177410000000 1.0
C      1  0.4427390000000  0.4923950000000  0.5098890000000 1.0
C      1  0.5093760000000  0.4784430000000  0.3890370000000 1.0
C      1  0.5636320000000  0.5353790000000  0.5895390000000 1.0
C      1  0.4383530000000  0.5230980000000  0.5151280000000 1.0
C      1  0.4885810000000  0.4515420000000  0.4729860000000 1.0
C      1  0.4618420000000  0.4941690000000  0.4113900000000 1.0
C      1  0.5495460000000  0.4623840000000  0.5822160000000 1.0
C      1  0.4731310000000  0.4845110000000  0.4377410000000 1.0
C      1  0.5778770000000  0.5425840000000  0.4413580000000 1.0
C      1  0.4107180000000  0.4940320000000  0.4503140000000 1.0
C      1  0.4283040000000  0.4231220000000  0.5035810000000 1.0
C      1  0.5764890000000  0.5818110000000  0.4780410000000 1.0
C      1  0.5215530000000  0.4802850000000  0.5074620000000 1.0
C      1  0.4494190000000  0.5478800000000  0.4306890000000 1.0
C      1  0.4820370000000  0.4892620000000  0.5977400000000 1.0
C      1  0.4727340000000  0.5014100000000  0.4602210000000 1.0
C      1  0.5086200000000  0.5608360000000  0.4815880000000 1.0
C      1  0.4676890000000  0.5495700000000  0.4914410000000 1.0
C      1  0.3939150000000  0.4677840000000  0.5147010000000 1.0
C      1  0.4782390000000  0.5418010000000  0.5880060000000 1.0
C      1  0.4459670000000  0.5326480000000  0.4886450000000 1.0
C      1  0.5318490000000  0.5256080000000  0.5040240000000 1.0
C      1  0.5573190000000  0.5222220000000  0.4316230000000 1.0
C      1  0.5365390000000  0.5464090000000  0.5911670000000 1.0
C      1  0.4825020000000  0.4380600000000  0.5743870000000 1.0
C      1  0.5141210000000  0.5853340000000  0.4332990000000 1.0
C      1  0.4142590000000  0.4490400000000  0.4541070000000 1.0
C      1  0.5460460000000  0.5127110000000  0.4583520000000 1.0
C      1  0.4541910000000  0.4430520000000  0.5719290000000 1.0
C      1  0.4989980000000  0.4198190000000  0.5586540000000 1.0
C      1  0.5215550000000  0.4010060000000  0.5163790000000 1.0
C      1  0.5719540000000  0.4477150000000  0.5148600000000 1.0
C      1  0.5294890000000  0.5046260000000  0.5220520000000 1.0
C      1  0.4821560000000  0.6076810000000  0.4941020000000 1.0
C      1  0.6133510000000  0.4693810000000  0.5111440000000 1.0
C      1  0.4474250000000  0.5141220000000  0.4662670000000 1.0
C      1  0.4530470000000  0.5451760000000  0.5771300000000 1.0
C      1  0.5093720000000  0.4390480000000  0.4893150000000 1.0
C      1  0.5852470000000  0.5671200000000  0.5036260000000 1.0
C      1  0.6142580000000  0.4916770000000  0.4944130000000 1.0
C      1  0.4094170000000  0.4642070000000  0.5400630000000 1.0
C      1  0.5355950000000  0.4678400000000  0.3992760000000 1.0
C      1  0.5750180000000  0.4925520000000  0.5191410000000 1.0
C      1  0.5982280000000  0.5152520000000  0.5074910000000 1.0
C      1  0.5908340000000  0.4827840000000  0.5431790000000 1.0
C      1  0.5152600000000  0.5457280000000  0.4437390000000 1.0
C      1  0.4875010000000  0.5107600000000  0.5016240000000 1.0
C      1  0.5211560000000  0.4677840000000  0.4259990000000 1.0
C      1  0.5588860000000  0.5555400000000  0.5044610000000 1.0
C      1  0.5358230000000  0.4378320000000  0.5897770000000 1.0
C      1  0.4099490000000  0.4783110000000  0.5657330000000 1.0
C      1  0.4505170000000  0.4863060000000  0.5542470000000 1.0
C      1  0.4689690000000  0.5859070000000  0.5380060000000 1.0
C      1  0.5830040000000  0.4978160000000  0.5674900000000 1.0
C      1  0.4889880000000  0.4435780000000  0.4206120000000 1.0
C      1  0.4083630000000  0.5576810000000  0.5119520000000 1.0
C      1  0.5617390000000  0.4070950000000  0.4575150000000 1.0
END
