TITL C-3909652-3393-12 21.5350252557362 125000 -20317.4068642503 0 0 137 (C1) n - 1
REM
REM in /home/nfs/bkarasulu/CARBON/AIRSS/Generating-Clusters/ReaxFF-fromJPCA2015/Units_Real/with-SteepDescent/Only-C1/SD-CG/Try1-3A/FIRE-CG
REM
REM
REM
REM
REM
REM ./C.cell (11c1c37f851c82e70ff6c80c92926a4b)
REM
REM compiler GCC version 9.2.1 20190827 (Red Hat 9.2.1-1)
REM options -cpp -mtune=generic -march=x86-64 -g -O0 -fpre-include=/usr/include/finclude/math-vector-fortran.h
REM seed 279528392 -959411054 1318021783 825416395 -1231754490 -1340701893 1662518498 -1749136364 -1330877806 -821104838 1696337821 13757672 -1012265087 -1602893649 70743348 -1742121639 1484685991 -1743392752 -214956060 1788892851 1243106573 -272279681 -1278916813 -1036108557 -1353719580 -1860986166 -830842589 1804401666 -846306834 -601887638 1730780787 -1955538764 -1170576582
REM
CELL 1.54180   50.00000   50.00000   50.00000   90.00000   90.00000   90.00000
LATT -1
SFAC C  
C      1  0.4741910000000  0.4455360000000  0.3955750000000 1.0
C      1  0.5479790000000  0.4626450000000  0.5503600000000 1.0
C      1  0.4893210000000  0.5581350000000  0.4815310000000 1.0
C      1  0.4560430000000  0.4666370000000  0.4863370000000 1.0
C      1  0.4552220000000  0.4774890000000  0.5132470000000 1.0
C      1  0.5493520000000  0.4370530000000  0.4417890000000 1.0
C      1  0.4503020000000  0.4980010000000  0.5638190000000 1.0
C      1  0.4138280000000  0.4679910000000  0.4692410000000 1.0
C      1  0.4788430000000  0.5268050000000  0.4456410000000 1.0
C      1  0.5092850000000  0.5401680000000  0.4702210000000 1.0
C      1  0.5869240000000  0.5013390000000  0.5467440000000 1.0
C      1  0.4277860000000  0.5782640000000  0.4824290000000 1.0
C      1  0.5923080000000  0.5482850000000  0.5243840000000 1.0
C      1  0.4807120000000  0.5448090000000  0.5058360000000 1.0
C      1  0.4604920000000  0.5246480000000  0.4971540000000 1.0
C      1  0.4415660000000  0.5202660000000  0.5814390000000 1.0
C      1  0.5470440000000  0.5187510000000  0.4838230000000 1.0
C      1  0.5340900000000  0.4067510000000  0.4717430000000 1.0
C      1  0.4690060000000  0.5611180000000  0.5636080000000 1.0
C      1  0.5299620000000  0.5094750000000  0.5876650000000 1.0
C      1  0.4340970000000  0.5289050000000  0.5428620000000 1.0
C      1  0.5180270000000  0.5365040000000  0.5842320000000 1.0
C      1  0.5207390000000  0.5591010000000  0.5244380000000 1.0
C      1  0.4710350000000  0.5045180000000  0.5446850000000 1.0
C      1  0.4711380000000  0.5049630000000  0.4276150000000 1.0
C      1  0.5606050000000  0.5279610000000  0.4329800000000 1.0
C      1  0.5799960000000  0.5681940000000  0.5048460000000 1.0
C      1  0.5238070000000  0.5976990000000  0.5369800000000 1.0
C      1  0.4201760000000  0.5492200000000  0.4771040000000 1.0
C      1  0.5415220000000  0.4893150000000  0.3966500000000 1.0
C      1  0.5421260000000  0.5213260000000  0.5353640000000 1.0
C      1  0.5660660000000  0.4832570000000  0.4600830000000 1.0
C      1  0.4729410000000  0.5019370000000  0.5123820000000 1.0
C      1  0.4585840000000  0.4376600000000  0.4860130000000 1.0
C      1  0.5546020000000  0.5070880000000  0.5132610000000 1.0
C      1  0.5728510000000  0.4263000000000  0.4899340000000 1.0
C      1  0.4990020000000  0.4967390000000  0.4989560000000 1.0
C      1  0.5193310000000  0.4874420000000  0.4647210000000 1.0
C      1  0.4981140000000  0.4665970000000  0.4615250000000 1.0
C      1  0.5558800000000  0.4206990000000  0.5141490000000 1.0
C      1  0.4778190000000  0.4038090000000  0.5340640000000 1.0
C      1  0.4726820000000  0.5995130000000  0.4602820000000 1.0
C      1  0.4799840000000  0.5985260000000  0.5088220000000 1.0
C      1  0.5119520000000  0.4073120000000  0.4513370000000 1.0
C      1  0.4102070000000  0.4629020000000  0.4981760000000 1.0
C      1  0.4784070000000  0.4671410000000  0.3882590000000 1.0
C      1  0.5588610000000  0.4202170000000  0.4643580000000 1.0
C      1  0.4352640000000  0.4835690000000  0.4752560000000 1.0
C      1  0.5071780000000  0.4011160000000  0.5337980000000 1.0
C      1  0.4583240000000  0.4025670000000  0.4632130000000 1.0
C      1  0.4711740000000  0.4582390000000  0.5588230000000 1.0
C      1  0.4425270000000  0.5567550000000  0.5504940000000 1.0
C      1  0.4661350000000  0.4749330000000  0.6044060000000 1.0
C      1  0.4278980000000  0.5392140000000  0.5666090000000 1.0
C      1  0.4351670000000  0.4260280000000  0.4728460000000 1.0
C      1  0.4737950000000  0.5018410000000  0.6130070000000 1.0
C      1  0.4941280000000  0.5897960000000  0.4826570000000 1.0
C      1  0.5427500000000  0.4756340000000  0.4728290000000 1.0
C      1  0.4979990000000  0.4491760000000  0.4371110000000 1.0
C      1  0.4482660000000  0.5900290000000  0.4677760000000 1.0
C      1  0.5615020000000  0.5899840000000  0.4978890000000 1.0
C      1  0.4474040000000  0.4594400000000  0.4353850000000 1.0
C      1  0.5206480000000  0.4310090000000  0.4362210000000 1.0
C      1  0.5359010000000  0.5538860000000  0.5706530000000 1.0
C      1  0.5259640000000  0.4609900000000  0.5714680000000 1.0
C      1  0.5494470000000  0.5659610000000  0.4578610000000 1.0
C      1  0.4351840000000  0.5306250000000  0.4604740000000 1.0
C      1  0.4856810000000  0.4942130000000  0.3916530000000 1.0
C      1  0.4484890000000  0.4892520000000  0.4347350000000 1.0
C      1  0.4902860000000  0.4462590000000  0.5139340000000 1.0
C      1  0.4844490000000  0.4039750000000  0.4572010000000 1.0
C      1  0.4822600000000  0.4335330000000  0.5698870000000 1.0
C      1  0.4661510000000  0.5246330000000  0.5969960000000 1.0
C      1  0.5834960000000  0.4974490000000  0.5177760000000 1.0
C      1  0.5137360000000  0.4908660000000  0.5220890000000 1.0
C      1  0.4718500000000  0.5680010000000  0.4133430000000 1.0
C      1  0.4218540000000  0.4842860000000  0.5171880000000 1.0
C      1  0.4524490000000  0.4719150000000  0.5778250000000 1.0
C      1  0.5491570000000  0.4327920000000  0.5400070000000 1.0
C      1  0.5628530000000  0.4631010000000  0.4372990000000 1.0
C      1  0.5077190000000  0.4053740000000  0.5047470000000 1.0
C      1  0.4998060000000  0.5413280000000  0.5262770000000 1.0
C      1  0.4176360000000  0.4346440000000  0.5003860000000 1.0
C      1  0.4359280000000  0.4253420000000  0.5500520000000 1.0
C      1  0.4902880000000  0.5500070000000  0.4307320000000 1.0
C      1  0.5257540000000  0.4189580000000  0.5495390000000 1.0
C      1  0.5310960000000  0.5559330000000  0.5016940000000 1.0
C      1  0.4714160000000  0.4448490000000  0.4243050000000 1.0
C      1  0.4817940000000  0.5800540000000  0.5513320000000 1.0
C      1  0.5849140000000  0.5311040000000  0.5462770000000 1.0
C      1  0.4307550000000  0.5192730000000  0.5155080000000 1.0
C      1  0.4633680000000  0.4156430000000  0.5563220000000 1.0
C      1  0.4201280000000  0.5445260000000  0.5056950000000 1.0
C      1  0.5368240000000  0.6018030000000  0.5109820000000 1.0
C      1  0.5460400000000  0.5531040000000  0.4326060000000 1.0
C      1  0.5930800000000  0.5231940000000  0.4751300000000 1.0
C      1  0.4670270000000  0.5042190000000  0.4023570000000 1.0
C      1  0.5451360000000  0.4606140000000  0.4963220000000 1.0
C      1  0.5146430000000  0.5041260000000  0.3926160000000 1.0
C      1  0.5146850000000  0.5122150000000  0.4792000000000 1.0
C      1  0.5374730000000  0.5467070000000  0.4783220000000 1.0
C      1  0.5953760000000  0.5454770000000  0.4947270000000 1.0
C      1  0.5672650000000  0.4844270000000  0.5614520000000 1.0
C      1  0.4795020000000  0.4180580000000  0.5069220000000 1.0
C      1  0.5567100000000  0.5324050000000  0.5578150000000 1.0
C      1  0.5184010000000  0.5500280000000  0.4197260000000 1.0
C      1  0.4711560000000  0.4609930000000  0.5308890000000 1.0
C      1  0.5229300000000  0.6002030000000  0.4850530000000 1.0
C      1  0.4918310000000  0.5171230000000  0.5577370000000 1.0
C      1  0.5563890000000  0.5062320000000  0.5762120000000 1.0
C      1  0.4962570000000  0.4562580000000  0.4879720000000 1.0
C      1  0.4713990000000  0.5883910000000  0.4342920000000 1.0
C      1  0.4315660000000  0.5019460000000  0.4548940000000 1.0
C      1  0.4283060000000  0.4477070000000  0.4529120000000 1.0
C      1  0.5117240000000  0.4357240000000  0.5691630000000 1.0
C      1  0.5989400000000  0.4959930000000  0.4796300000000 1.0
C      1  0.5663620000000  0.5132740000000  0.4612070000000 1.0
C      1  0.4867470000000  0.5377210000000  0.5793770000000 1.0
C      1  0.5158980000000  0.5270350000000  0.4059390000000 1.0
C      1  0.5598030000000  0.5098040000000  0.4100220000000 1.0
C      1  0.4147380000000  0.4737830000000  0.5432310000000 1.0
C      1  0.5945190000000  0.4765560000000  0.4999050000000 1.0
C      1  0.5168890000000  0.4826850000000  0.5885520000000 1.0
C      1  0.4943130000000  0.4807240000000  0.6074590000000 1.0
C      1  0.5137540000000  0.5170980000000  0.5370480000000 1.0
C      1  0.4271500000000  0.4285600000000  0.5249300000000 1.0
C      1  0.4333720000000  0.5720940000000  0.5131250000000 1.0
C      1  0.5476080000000  0.5914370000000  0.4714360000000 1.0
C      1  0.4224930000000  0.4519880000000  0.5625980000000 1.0
C      1  0.5329130000000  0.5729620000000  0.5489170000000 1.0
C      1  0.5743290000000  0.4544140000000  0.4963610000000 1.0
C      1  0.5488170000000  0.4699380000000  0.4149910000000 1.0
C      1  0.4931420000000  0.5999170000000  0.5355760000000 1.0
C      1  0.4575360000000  0.5856480000000  0.5177540000000 1.0
C      1  0.4620850000000  0.5313920000000  0.4684850000000 1.0
C      1  0.5390360000000  0.4772000000000  0.5207980000000 1.0
C      1  0.5310550000000  0.4217100000000  0.4971220000000 1.0
END
