TITL C-3909783-8770-15 6.66185326287582 125000 -20172.3005604372 0 0 136 (C1) n - 1
REM
REM in /home/nfs/bkarasulu/CARBON/AIRSS/Generating-Clusters/ReaxFF-fromJPCA2015/Units_Real/with-SteepDescent/Only-C1/SD-CG/Try1-3A/FIRE-CG
REM
REM
REM
REM
REM
REM ./C.cell (11c1c37f851c82e70ff6c80c92926a4b)
REM
REM compiler GCC version 9.2.1 20190827 (Red Hat 9.2.1-1)
REM options -cpp -mtune=generic -march=x86-64 -g -O0 -fpre-include=/usr/include/finclude/math-vector-fortran.h
REM seed 1579744308 -1987411130 -493478674 -140625969 525853435 1674259188 -835058984 -815448876 -1722109973 -1225147556 575441119 1023339564 1275409260 -1717359735 -56020638 -535012281 218219653 -1057314357 1603367757 -294137428 1863218863 631976686 -999742648 -829799406 -389301508 -251154749 -2037688756 -1888481484 -1221788198 -846769010 1227733760 -1671932548 1659562540
REM
CELL 1.54180   50.00000   50.00000   50.00000   90.00000   90.00000   90.00000
LATT -1
SFAC C  
C      1  0.4886650000000  0.4408660000000  0.4567740000000 1.0
C      1  0.4582560000000  0.4588590000000  0.5727090000000 1.0
C      1  0.5239340000000  0.5180900000000  0.4631260000000 1.0
C      1  0.5097800000000  0.4212690000000  0.4518130000000 1.0
C      1  0.4054320000000  0.4710090000000  0.5203740000000 1.0
C      1  0.3938540000000  0.4841660000000  0.4964390000000 1.0
C      1  0.5023430000000  0.4145410000000  0.5579760000000 1.0
C      1  0.5534010000000  0.5628180000000  0.4407720000000 1.0
C      1  0.5451550000000  0.4285730000000  0.5299300000000 1.0
C      1  0.5193560000000  0.5140150000000  0.3988680000000 1.0
C      1  0.4270920000000  0.4305830000000  0.4981270000000 1.0
C      1  0.6038370000000  0.4736320000000  0.4886620000000 1.0
C      1  0.4317670000000  0.4983320000000  0.5052650000000 1.0
C      1  0.4846150000000  0.5123290000000  0.5160670000000 1.0
C      1  0.4714080000000  0.5548360000000  0.5526120000000 1.0
C      1  0.4097400000000  0.5094830000000  0.4929370000000 1.0
C      1  0.4841140000000  0.4176240000000  0.4387930000000 1.0
C      1  0.4729710000000  0.5548750000000  0.4232100000000 1.0
C      1  0.4922960000000  0.5342390000000  0.4994190000000 1.0
C      1  0.5612800000000  0.5064160000000  0.5257190000000 1.0
C      1  0.3960670000000  0.4638220000000  0.4753390000000 1.0
C      1  0.5048200000000  0.5402040000000  0.4005510000000 1.0
C      1  0.4133590000000  0.4847960000000  0.5423910000000 1.0
C      1  0.5064910000000  0.4942650000000  0.5172320000000 1.0
C      1  0.4235080000000  0.5563010000000  0.4784400000000 1.0
C      1  0.5221840000000  0.5956880000000  0.4956100000000 1.0
C      1  0.4954940000000  0.5378600000000  0.5462630000000 1.0
C      1  0.4463160000000  0.5594220000000  0.5119980000000 1.0
C      1  0.5450960000000  0.5157330000000  0.4116820000000 1.0
C      1  0.5665400000000  0.4962290000000  0.4747100000000 1.0
C      1  0.4935040000000  0.4844410000000  0.5921780000000 1.0
C      1  0.5572980000000  0.4250740000000  0.5034090000000 1.0
C      1  0.4593680000000  0.5264300000000  0.4728220000000 1.0
C      1  0.4446510000000  0.4407840000000  0.5539090000000 1.0
C      1  0.4720890000000  0.5080880000000  0.4031840000000 1.0
C      1  0.4890330000000  0.4580090000000  0.5771590000000 1.0
C      1  0.4605720000000  0.5743280000000  0.5331960000000 1.0
C      1  0.4395390000000  0.5777500000000  0.4902860000000 1.0
C      1  0.5079120000000  0.4342050000000  0.5802920000000 1.0
C      1  0.4268810000000  0.5295370000000  0.5540130000000 1.0
C      1  0.5451810000000  0.5772710000000  0.5120810000000 1.0
C      1  0.5353730000000  0.5204990000000  0.5973760000000 1.0
C      1  0.5502280000000  0.4921390000000  0.5722650000000 1.0
C      1  0.4670020000000  0.5889740000000  0.4888980000000 1.0
C      1  0.5693070000000  0.5120470000000  0.5646160000000 1.0
C      1  0.5964920000000  0.4950800000000  0.4738710000000 1.0
C      1  0.4717240000000  0.4487020000000  0.4797260000000 1.0
C      1  0.4676480000000  0.5337460000000  0.5887720000000 1.0
C      1  0.5612350000000  0.5791430000000  0.4862850000000 1.0
C      1  0.5081600000000  0.5399480000000  0.4522540000000 1.0
C      1  0.4753170000000  0.4117420000000  0.5516590000000 1.0
C      1  0.4512760000000  0.4556380000000  0.5296560000000 1.0
C      1  0.4499000000000  0.5107000000000  0.4192220000000 1.0
C      1  0.5520380000000  0.4769670000000  0.4908360000000 1.0
C      1  0.4106140000000  0.5392150000000  0.4997320000000 1.0
C      1  0.5365560000000  0.5455760000000  0.5808420000000 1.0
C      1  0.5125330000000  0.4603510000000  0.4541540000000 1.0
C      1  0.5086320000000  0.5446860000000  0.5202220000000 1.0
C      1  0.4502950000000  0.4861460000000  0.5724010000000 1.0
C      1  0.4256820000000  0.4957360000000  0.4503050000000 1.0
C      1  0.5002760000000  0.4124920000000  0.5060520000000 1.0
C      1  0.5104720000000  0.5281890000000  0.6106520000000 1.0
C      1  0.5115190000000  0.5870310000000  0.4709790000000 1.0
C      1  0.5128530000000  0.5607580000000  0.5785430000000 1.0
C      1  0.4452490000000  0.4116760000000  0.5111390000000 1.0
C      1  0.5043700000000  0.4981280000000  0.4709600000000 1.0
C      1  0.5235310000000  0.4973620000000  0.5585240000000 1.0
C      1  0.5158630000000  0.4778830000000  0.5384850000000 1.0
C      1  0.4742760000000  0.5041900000000  0.5802390000000 1.0
C      1  0.4313810000000  0.5210980000000  0.4371320000000 1.0
C      1  0.4405660000000  0.4408420000000  0.4282320000000 1.0
C      1  0.4523520000000  0.4915330000000  0.4643310000000 1.0
C      1  0.6037750000000  0.5207480000000  0.4549920000000 1.0
C      1  0.4151990000000  0.5384740000000  0.5288740000000 1.0
C      1  0.5796690000000  0.5222270000000  0.5113530000000 1.0
C      1  0.4618640000000  0.4590640000000  0.4251970000000 1.0
C      1  0.5997750000000  0.5574850000000  0.5084370000000 1.0
C      1  0.5121250000000  0.4692750000000  0.4142470000000 1.0
C      1  0.5152630000000  0.4250650000000  0.5323650000000 1.0
C      1  0.5604910000000  0.4951940000000  0.4293210000000 1.0
C      1  0.5357220000000  0.5489050000000  0.5121520000000 1.0
C      1  0.5686340000000  0.4503480000000  0.4589170000000 1.0
C      1  0.5180180000000  0.5803720000000  0.5544600000000 1.0
C      1  0.4755440000000  0.5376670000000  0.4000970000000 1.0
C      1  0.5143720000000  0.4994100000000  0.6050180000000 1.0
C      1  0.5434170000000  0.5781140000000  0.4640030000000 1.0
C      1  0.4516290000000  0.5330260000000  0.5009610000000 1.0
C      1  0.5520170000000  0.5266070000000  0.5082880000000 1.0
C      1  0.5512170000000  0.5104000000000  0.4546880000000 1.0
C      1  0.4858540000000  0.4608780000000  0.4990110000000 1.0
C      1  0.4082460000000  0.4715420000000  0.4497030000000 1.0
C      1  0.4548390000000  0.5089120000000  0.5178100000000 1.0
C      1  0.4503530000000  0.4673120000000  0.4821850000000 1.0
C      1  0.4776030000000  0.5930620000000  0.5178310000000 1.0
C      1  0.4649680000000  0.5658050000000  0.4467720000000 1.0
C      1  0.4495210000000  0.5432070000000  0.5682180000000 1.0
C      1  0.5564440000000  0.5556190000000  0.5601720000000 1.0
C      1  0.5609290000000  0.4788610000000  0.5184120000000 1.0
C      1  0.5445540000000  0.5758380000000  0.5434930000000 1.0
C      1  0.5549210000000  0.4625180000000  0.4375500000000 1.0
C      1  0.5154600000000  0.5518300000000  0.4254260000000 1.0
C      1  0.5438120000000  0.5443830000000  0.4191130000000 1.0
C      1  0.5963160000000  0.4520230000000  0.5048660000000 1.0
C      1  0.5977560000000  0.5451490000000  0.4688060000000 1.0
C      1  0.5001560000000  0.4541300000000  0.5440560000000 1.0
C      1  0.5629410000000  0.4448330000000  0.5470110000000 1.0
C      1  0.5354910000000  0.4300440000000  0.4851320000000 1.0
C      1  0.4658150000000  0.4310120000000  0.4229810000000 1.0
C      1  0.5543220000000  0.4605760000000  0.5712030000000 1.0
C      1  0.4260230000000  0.4996460000000  0.5617760000000 1.0
C      1  0.5059330000000  0.4797760000000  0.4931540000000 1.0
C      1  0.4819540000000  0.5822320000000  0.4660640000000 1.0
C      1  0.4118320000000  0.4379720000000  0.4746610000000 1.0
C      1  0.4864110000000  0.5388880000000  0.4716090000000 1.0
C      1  0.5323540000000  0.4462300000000  0.5767960000000 1.0
C      1  0.4707660000000  0.4799860000000  0.4432240000000 1.0
C      1  0.5803670000000  0.4600580000000  0.5288560000000 1.0
C      1  0.4929310000000  0.5471290000000  0.5952660000000 1.0
C      1  0.5305860000000  0.4591350000000  0.4803070000000 1.0
C      1  0.5885020000000  0.5085030000000  0.4336020000000 1.0
C      1  0.5279000000000  0.4508110000000  0.4311020000000 1.0
C      1  0.4999430000000  0.5143250000000  0.5609540000000 1.0
C      1  0.5770330000000  0.4394620000000  0.4858210000000 1.0
C      1  0.4409380000000  0.5453110000000  0.4559520000000 1.0
C      1  0.4200590000000  0.4446280000000  0.4471780000000 1.0
C      1  0.4978750000000  0.4834250000000  0.4487620000000 1.0
C      1  0.5139570000000  0.4117780000000  0.4798000000000 1.0
C      1  0.4492230000000  0.4132190000000  0.5420760000000 1.0
C      1  0.5956840000000  0.5392720000000  0.5293040000000 1.0
C      1  0.4995620000000  0.4917820000000  0.4021690000000 1.0
C      1  0.4729380000000  0.4107080000000  0.5073280000000 1.0
C      1  0.5899240000000  0.5684530000000  0.4837850000000 1.0
C      1  0.4336730000000  0.4577290000000  0.5068960000000 1.0
C      1  0.4992050000000  0.5888970000000  0.5350940000000 1.0
C      1  0.4784870000000  0.4586010000000  0.5252500000000 1.0
C      1  0.5789860000000  0.5371250000000  0.5553980000000 1.0
END
