TITL C-3909784-5023-35 5.51070834238047 125000 -10314.7353266466 0 0 70 (C1) n - 1
REM
REM in /home/nfs/bkarasulu/CARBON/AIRSS/Generating-Clusters/ReaxFF-fromJPCA2015/Units_Real/with-SteepDescent/Only-C1/SD-CG/Try1-3A/FIRE-CG
REM
REM
REM
REM
REM
REM ./C.cell (11c1c37f851c82e70ff6c80c92926a4b)
REM
REM compiler GCC version 9.2.1 20190827 (Red Hat 9.2.1-1)
REM options -cpp -mtune=generic -march=x86-64 -g -O0 -fpre-include=/usr/include/finclude/math-vector-fortran.h
REM seed 389684978 -1279515651 156480295 -703182936 170813430 -2013011251 2004900577 1856494534 1338532930 388220322 -1985861331 1097729469 -1727320278 -1930202702 -1489868272 -1770028858 -1019966175 1442571371 -819179417 -224373792 180233141 296761168 -960391549 -2075720198 -1868870349 -1506952720 -1715580789 -622207870 -1013218186 790232426 938902540 -255148336 -1938685740
REM
CELL 1.54180   50.00000   50.00000   50.00000   90.00000   90.00000   90.00000
LATT -1
SFAC C  
C      1  0.4864200000000  0.4367470000000  0.5045060000000 1.0
C      1  0.4442010000000  0.5540050000000  0.4635560000000 1.0
C      1  0.5060860000000  0.5414490000000  0.4339670000000 1.0
C      1  0.5749230000000  0.4938920000000  0.5160400000000 1.0
C      1  0.5646830000000  0.5013800000000  0.5433560000000 1.0
C      1  0.4584920000000  0.5075270000000  0.5636640000000 1.0
C      1  0.5334970000000  0.5314370000000  0.4300630000000 1.0
C      1  0.5277280000000  0.4580320000000  0.4476250000000 1.0
C      1  0.5366300000000  0.5067690000000  0.5520030000000 1.0
C      1  0.4481380000000  0.4937880000000  0.5400410000000 1.0
C      1  0.4374180000000  0.5443120000000  0.4892800000000 1.0
C      1  0.4751270000000  0.4918590000000  0.5822880000000 1.0
C      1  0.5107580000000  0.5649430000000  0.4788040000000 1.0
C      1  0.4752130000000  0.4789480000000  0.4854340000000 1.0
C      1  0.4637290000000  0.4432860000000  0.4588910000000 1.0
C      1  0.5257220000000  0.5605000000000  0.5277850000000 1.0
C      1  0.5248930000000  0.5044980000000  0.4312470000000 1.0
C      1  0.4947820000000  0.4697540000000  0.5804360000000 1.0
C      1  0.4290210000000  0.4877100000000  0.4951050000000 1.0
C      1  0.4937930000000  0.5163100000000  0.5166930000000 1.0
C      1  0.5665310000000  0.4762990000000  0.4945360000000 1.0
C      1  0.4938520000000  0.4623830000000  0.4957010000000 1.0
C      1  0.4835140000000  0.5079610000000  0.4905990000000 1.0
C      1  0.5178500000000  0.5335530000000  0.5202410000000 1.0
C      1  0.5119720000000  0.4284570000000  0.4697700000000 1.0
C      1  0.5035770000000  0.4976630000000  0.5850040000000 1.0
C      1  0.5679190000000  0.5126110000000  0.4582720000000 1.0
C      1  0.4851970000000  0.5697590000000  0.4930950000000 1.0
C      1  0.4718330000000  0.4340670000000  0.5536650000000 1.0
C      1  0.5559510000000  0.5506280000000  0.4691170000000 1.0
C      1  0.4970120000000  0.5626660000000  0.4526500000000 1.0
C      1  0.5223910000000  0.4919910000000  0.4772280000000 1.0
C      1  0.5420250000000  0.4562530000000  0.5365390000000 1.0
C      1  0.4830050000000  0.4279340000000  0.4743270000000 1.0
C      1  0.5277250000000  0.5400140000000  0.4800400000000 1.0
C      1  0.4288750000000  0.4830190000000  0.4652670000000 1.0
C      1  0.4961560000000  0.4889380000000  0.5252200000000 1.0
C      1  0.4485860000000  0.4655050000000  0.4964150000000 1.0
C      1  0.5605020000000  0.5352750000000  0.4444730000000 1.0
C      1  0.5699320000000  0.5598300000000  0.4938810000000 1.0
C      1  0.5055980000000  0.5147210000000  0.4719460000000 1.0
C      1  0.5005790000000  0.5623090000000  0.5423950000000 1.0
C      1  0.4366080000000  0.5355570000000  0.5155930000000 1.0
C      1  0.4655380000000  0.4469690000000  0.5275750000000 1.0
C      1  0.4964580000000  0.5402450000000  0.5610650000000 1.0
C      1  0.4803360000000  0.4669400000000  0.4521470000000 1.0
C      1  0.5480520000000  0.4794950000000  0.5532080000000 1.0
C      1  0.5134620000000  0.4269100000000  0.5172350000000 1.0
C      1  0.4980550000000  0.4462750000000  0.5627750000000 1.0
C      1  0.4710200000000  0.4761820000000  0.5321400000000 1.0
C      1  0.5163590000000  0.4765160000000  0.5017410000000 1.0
C      1  0.4581340000000  0.5482860000000  0.5330980000000 1.0
C      1  0.5294570000000  0.4325290000000  0.4946690000000 1.0
C      1  0.4334660000000  0.5057420000000  0.5178980000000 1.0
C      1  0.5198600000000  0.4393460000000  0.5430980000000 1.0
C      1  0.5439470000000  0.4566470000000  0.5061350000000 1.0
C      1  0.4680780000000  0.5344350000000  0.5568830000000 1.0
C      1  0.5383760000000  0.5303380000000  0.5044250000000 1.0
C      1  0.5667040000000  0.4868040000000  0.4670290000000 1.0
C      1  0.4460600000000  0.5003740000000  0.4462480000000 1.0
C      1  0.5377300000000  0.4832530000000  0.4518910000000 1.0
C      1  0.4391180000000  0.4555780000000  0.4698280000000 1.0
C      1  0.4789050000000  0.5648170000000  0.5224150000000 1.0
C      1  0.5157280000000  0.5187750000000  0.5685780000000 1.0
C      1  0.4715570000000  0.5686960000000  0.4671310000000 1.0
C      1  0.4439790000000  0.5278310000000  0.4523740000000 1.0
C      1  0.4734200000000  0.4919970000000  0.4390450000000 1.0
C      1  0.5532220000000  0.5518340000000  0.5176250000000 1.0
C      1  0.5076670000000  0.4467740000000  0.4487120000000 1.0
C      1  0.4968670000000  0.5118760000000  0.4382730000000 1.0
END
