TITL C-3909768-8671-17 33.276930663205 125000 -23917.513563897 0 0 160 (C1) n - 1
REM
REM in /home/nfs/bkarasulu/CARBON/AIRSS/Generating-Clusters/ReaxFF-fromJPCA2015/Units_Real/with-SteepDescent/Only-C1/SD-CG/Try1-3A/FIRE-CG
REM
REM
REM
REM
REM
REM ./C.cell (11c1c37f851c82e70ff6c80c92926a4b)
REM
REM compiler GCC version 9.2.1 20190827 (Red Hat 9.2.1-1)
REM options -cpp -mtune=generic -march=x86-64 -g -O0 -fpre-include=/usr/include/finclude/math-vector-fortran.h
REM seed -1003084939 327993940 -1005031004 176107386 1656480298 -157242835 1594440747 -363923335 -2134520146 -1852954274 76679257 -1196942387 1110446433 -714186544 1789027672 1823963830 -297170077 -37776062 -1175272002 -1501949047 111212912 -932734217 1609932478 -398492339 -195856333 -412937538 1593323097 2074534791 -553728398 -982089270 -1852857894 638009201 -157748954
REM
CELL 1.54180   50.00000   50.00000   50.00000   90.00000   90.00000   90.00000
LATT -1
SFAC C  
C      1  0.5114220000000  0.3983340000000  0.4184680000000 1.0
C      1  0.4805110000000  0.4701180000000  0.4404450000000 1.0
C      1  0.4622710000000  0.4101560000000  0.4768210000000 1.0
C      1  0.4843900000000  0.5898770000000  0.4613820000000 1.0
C      1  0.4505340000000  0.3990700000000  0.5695680000000 1.0
C      1  0.5246170000000  0.4209920000000  0.5697610000000 1.0
C      1  0.4971560000000  0.4602190000000  0.5061340000000 1.0
C      1  0.4945550000000  0.5086470000000  0.3849890000000 1.0
C      1  0.5822730000000  0.4882790000000  0.4743030000000 1.0
C      1  0.5573300000000  0.4182270000000  0.4713730000000 1.0
C      1  0.4776560000000  0.5738090000000  0.4365550000000 1.0
C      1  0.4979440000000  0.5240270000000  0.5984720000000 1.0
C      1  0.5416300000000  0.5712650000000  0.5733240000000 1.0
C      1  0.5365160000000  0.5343390000000  0.3980020000000 1.0
C      1  0.5683610000000  0.4310160000000  0.5460300000000 1.0
C      1  0.4606260000000  0.4518460000000  0.4002360000000 1.0
C      1  0.5062920000000  0.3992000000000  0.5299110000000 1.0
C      1  0.5432780000000  0.4616270000000  0.4188320000000 1.0
C      1  0.4687750000000  0.5209250000000  0.6043240000000 1.0
C      1  0.5460340000000  0.5935030000000  0.4478790000000 1.0
C      1  0.5878240000000  0.5628030000000  0.5617870000000 1.0
C      1  0.4317380000000  0.4802680000000  0.5517680000000 1.0
C      1  0.5861730000000  0.5450680000000  0.5217780000000 1.0
C      1  0.3918150000000  0.4612540000000  0.4672680000000 1.0
C      1  0.5764710000000  0.5307700000000  0.4446420000000 1.0
C      1  0.5341540000000  0.4063540000000  0.5232460000000 1.0
C      1  0.4618080000000  0.4937870000000  0.5971010000000 1.0
C      1  0.4293960000000  0.4179960000000  0.5112830000000 1.0
C      1  0.5713420000000  0.4410770000000  0.4561700000000 1.0
C      1  0.4357940000000  0.5517130000000  0.5451150000000 1.0
C      1  0.4550120000000  0.4586910000000  0.4595850000000 1.0
C      1  0.5203020000000  0.5962500000000  0.4381240000000 1.0
C      1  0.5743030000000  0.4269170000000  0.5174010000000 1.0
C      1  0.4128580000000  0.5347170000000  0.4326220000000 1.0
C      1  0.5077460000000  0.4689910000000  0.5301850000000 1.0
C      1  0.4503930000000  0.5260690000000  0.3997160000000 1.0
C      1  0.4959420000000  0.5688960000000  0.5837960000000 1.0
C      1  0.4487630000000  0.4839150000000  0.4778380000000 1.0
C      1  0.5739410000000  0.5071990000000  0.4202050000000 1.0
C      1  0.5604520000000  0.4987610000000  0.5180320000000 1.0
C      1  0.4799510000000  0.4096840000000  0.5212820000000 1.0
C      1  0.4406620000000  0.5401090000000  0.4206420000000 1.0
C      1  0.4018970000000  0.5231080000000  0.5092210000000 1.0
C      1  0.4827650000000  0.4668970000000  0.4092400000000 1.0
C      1  0.5050330000000  0.5740280000000  0.4249440000000 1.0
C      1  0.4598410000000  0.5943020000000  0.5399990000000 1.0
C      1  0.5792630000000  0.5695010000000  0.4802030000000 1.0
C      1  0.4311830000000  0.5891170000000  0.4803430000000 1.0
C      1  0.4541390000000  0.3943030000000  0.4497870000000 1.0
C      1  0.4619010000000  0.4431170000000  0.5553850000000 1.0
C      1  0.4004960000000  0.5569950000000  0.4477820000000 1.0
C      1  0.5147000000000  0.4591260000000  0.4828850000000 1.0
C      1  0.5065520000000  0.4556170000000  0.4503280000000 1.0
C      1  0.5851190000000  0.4816340000000  0.4282570000000 1.0
C      1  0.5042780000000  0.4844020000000  0.3956820000000 1.0
C      1  0.4145890000000  0.4590790000000  0.5401400000000 1.0
C      1  0.5001940000000  0.5244980000000  0.5641700000000 1.0
C      1  0.5084880000000  0.4977550000000  0.6030150000000 1.0
C      1  0.5158210000000  0.5798210000000  0.5362300000000 1.0
C      1  0.4454300000000  0.5685970000000  0.4979110000000 1.0
C      1  0.4793110000000  0.3936100000000  0.5722580000000 1.0
C      1  0.5047490000000  0.4019970000000  0.5592540000000 1.0
C      1  0.5536580000000  0.4128800000000  0.5019830000000 1.0
C      1  0.5350770000000  0.4949070000000  0.5950690000000 1.0
C      1  0.4400250000000  0.4261980000000  0.5613230000000 1.0
C      1  0.5249820000000  0.5295840000000  0.5474810000000 1.0
C      1  0.3916960000000  0.4670410000000  0.4936950000000 1.0
C      1  0.5102280000000  0.6054340000000  0.4647690000000 1.0
C      1  0.4700560000000  0.5289650000000  0.5115350000000 1.0
C      1  0.4495710000000  0.4800480000000  0.5058050000000 1.0
C      1  0.5888470000000  0.4664300000000  0.5478910000000 1.0
C      1  0.3944120000000  0.4856640000000  0.4475830000000 1.0
C      1  0.4731730000000  0.4368290000000  0.5293650000000 1.0
C      1  0.5161520000000  0.5548520000000  0.4062170000000 1.0
C      1  0.5860130000000  0.5353350000000  0.5504530000000 1.0
C      1  0.5626890000000  0.4636410000000  0.5784470000000 1.0
C      1  0.5758330000000  0.5691990000000  0.5108030000000 1.0
C      1  0.4481050000000  0.6133570000000  0.5193860000000 1.0
C      1  0.5491560000000  0.5085220000000  0.4049680000000 1.0
C      1  0.5853700000000  0.4518330000000  0.5082330000000 1.0
C      1  0.5508860000000  0.5185820000000  0.5850790000000 1.0
C      1  0.5321840000000  0.5956980000000  0.5175070000000 1.0
C      1  0.5722640000000  0.4593410000000  0.4804300000000 1.0
C      1  0.5276370000000  0.4710670000000  0.4410290000000 1.0
C      1  0.3938850000000  0.4720130000000  0.5211990000000 1.0
C      1  0.5944370000000  0.5300070000000  0.4962160000000 1.0
C      1  0.3951250000000  0.5003350000000  0.5173610000000 1.0
C      1  0.5199630000000  0.4457130000000  0.5852830000000 1.0
C      1  0.4561860000000  0.4040860000000  0.5046280000000 1.0
C      1  0.5137680000000  0.5093710000000  0.4707320000000 1.0
C      1  0.4780020000000  0.5244190000000  0.5522120000000 1.0
C      1  0.4598770000000  0.5506930000000  0.4405240000000 1.0
C      1  0.4314130000000  0.4471420000000  0.4434000000000 1.0
C      1  0.5631760000000  0.5795330000000  0.5553240000000 1.0
C      1  0.4038150000000  0.5099270000000  0.4396890000000 1.0
C      1  0.4399540000000  0.4360890000000  0.4177600000000 1.0
C      1  0.5333500000000  0.4832640000000  0.4012890000000 1.0
C      1  0.4782410000000  0.4979490000000  0.4444330000000 1.0
C      1  0.5153030000000  0.5814210000000  0.5656380000000 1.0
C      1  0.4576280000000  0.5059820000000  0.4614210000000 1.0
C      1  0.5125290000000  0.5494990000000  0.5973730000000 1.0
C      1  0.5218980000000  0.5522420000000  0.5292240000000 1.0
C      1  0.5088010000000  0.4970420000000  0.5291330000000 1.0
C      1  0.5816430000000  0.4764400000000  0.5229010000000 1.0
C      1  0.4528010000000  0.5422160000000  0.5942450000000 1.0
C      1  0.4533100000000  0.5246430000000  0.5369500000000 1.0
C      1  0.4428000000000  0.4942850000000  0.5299570000000 1.0
C      1  0.4668100000000  0.5646260000000  0.5809530000000 1.0
C      1  0.4582870000000  0.5442310000000  0.4907570000000 1.0
C      1  0.5406400000000  0.4605130000000  0.4875150000000 1.0
C      1  0.5100230000000  0.5334560000000  0.3863700000000 1.0
C      1  0.4935160000000  0.5128320000000  0.5103090000000 1.0
C      1  0.4373770000000  0.4929480000000  0.5797600000000 1.0
C      1  0.5547470000000  0.5217090000000  0.4529220000000 1.0
C      1  0.5387820000000  0.4669930000000  0.5905870000000 1.0
C      1  0.5869570000000  0.5435970000000  0.4697940000000 1.0
C      1  0.4092840000000  0.5479480000000  0.5003410000000 1.0
C      1  0.6319750000000  0.4818130000000  0.4567400000000 1.0
C      1  0.4694730000000  0.4530990000000  0.5059860000000 1.0
C      1  0.4085100000000  0.5812450000000  0.4620950000000 1.0
C      1  0.5110210000000  0.4030560000000  0.4476530000000 1.0
C      1  0.4872760000000  0.4794090000000  0.5993770000000 1.0
C      1  0.5587990000000  0.5866210000000  0.5268560000000 1.0
C      1  0.5733500000000  0.5134400000000  0.5681250000000 1.0
C      1  0.5264280000000  0.5444160000000  0.5022480000000 1.0
C      1  0.5734300000000  0.5073510000000  0.4935070000000 1.0
C      1  0.6317470000000  0.5001790000000  0.4787990000000 1.0
C      1  0.4928280000000  0.4528740000000  0.5906640000000 1.0
C      1  0.4128860000000  0.5593130000000  0.5298150000000 1.0
C      1  0.5446150000000  0.4147580000000  0.5494710000000 1.0
C      1  0.4231610000000  0.4316650000000  0.5378830000000 1.0
C      1  0.5216080000000  0.5655960000000  0.4838120000000 1.0
C      1  0.4513470000000  0.5735560000000  0.5579510000000 1.0
C      1  0.4187180000000  0.4276600000000  0.4877210000000 1.0
C      1  0.5334060000000  0.4073680000000  0.4659340000000 1.0
C      1  0.5631190000000  0.5831820000000  0.4622550000000 1.0
C      1  0.5010880000000  0.5134580000000  0.4465020000000 1.0
C      1  0.4318470000000  0.5215600000000  0.5847320000000 1.0
C      1  0.5248000000000  0.5944250000000  0.4889360000000 1.0
C      1  0.4611690000000  0.5869210000000  0.5139720000000 1.0
C      1  0.4637950000000  0.5119690000000  0.3789030000000 1.0
C      1  0.5395000000000  0.5460050000000  0.5886540000000 1.0
C      1  0.5817290000000  0.4844180000000  0.5689280000000 1.0
C      1  0.4105680000000  0.4378250000000  0.4629250000000 1.0
C      1  0.5302500000000  0.5032230000000  0.4486340000000 1.0
C      1  0.5300590000000  0.4605700000000  0.5420390000000 1.0
C      1  0.5694970000000  0.4558300000000  0.4313760000000 1.0
C      1  0.5522260000000  0.4531870000000  0.5544310000000 1.0
C      1  0.4574380000000  0.5347730000000  0.4648290000000 1.0
C      1  0.4341170000000  0.6112420000000  0.4963470000000 1.0
C      1  0.5364510000000  0.5063410000000  0.5333270000000 1.0
C      1  0.6263560000000  0.5181020000000  0.4977440000000 1.0
C      1  0.4639500000000  0.4377120000000  0.4791520000000 1.0
C      1  0.3955150000000  0.5599640000000  0.4764260000000 1.0
C      1  0.4961640000000  0.5674260000000  0.4724940000000 1.0
C      1  0.6011100000000  0.4885260000000  0.4519530000000 1.0
C      1  0.5072990000000  0.4296740000000  0.4428700000000 1.0
C      1  0.4467270000000  0.4119590000000  0.4295860000000 1.0
C      1  0.4736560000000  0.4438000000000  0.5755350000000 1.0
C      1  0.5138980000000  0.5216510000000  0.4941250000000 1.0
END
