TITL C-3909770-7031-44 36.7033655260113 125000 -23910.204286191 0 0 162 (C1) n - 1
REM
REM in /home/nfs/bkarasulu/CARBON/AIRSS/Generating-Clusters/ReaxFF-fromJPCA2015/Units_Real/with-SteepDescent/Only-C1/SD-CG/Try1-3A/FIRE-CG
REM
REM
REM
REM
REM
REM ./C.cell (11c1c37f851c82e70ff6c80c92926a4b)
REM
REM compiler GCC version 9.2.1 20190827 (Red Hat 9.2.1-1)
REM options -cpp -mtune=generic -march=x86-64 -g -O0 -fpre-include=/usr/include/finclude/math-vector-fortran.h
REM seed -35545713 -236785108 935982641 384856170 -752274582 1598917687 1414785758 387767373 -1435336643 1049749891 -720405522 130653496 192603118 187971667 1108095125 -1942603732 -1627600699 -608020315 -1999941253 -1288657129 2113839849 920059569 -1008037168 1769964263 -957459989 712376234 864832186 2009308605 -1153185759 1778776907 -417792297 -1910005499 101175881
REM
CELL 1.54180   50.00000   50.00000   50.00000   90.00000   90.00000   90.00000
LATT -1
SFAC C  
C      1  0.3909470000000  0.5399560000000  0.5638310000000 1.0
C      1  0.4857130000000  0.4844410000000  0.3848770000000 1.0
C      1  0.4673000000000  0.4629370000000  0.6085070000000 1.0
C      1  0.3848760000000  0.4911710000000  0.5410570000000 1.0
C      1  0.4232060000000  0.4770200000000  0.4537680000000 1.0
C      1  0.5392130000000  0.5809260000000  0.5000620000000 1.0
C      1  0.5585570000000  0.5642240000000  0.5339550000000 1.0
C      1  0.5098520000000  0.5855760000000  0.5498770000000 1.0
C      1  0.5467940000000  0.4335830000000  0.5380840000000 1.0
C      1  0.4241350000000  0.4286700000000  0.5130490000000 1.0
C      1  0.4707610000000  0.6176670000000  0.4989910000000 1.0
C      1  0.3994950000000  0.4742490000000  0.5195190000000 1.0
C      1  0.4804660000000  0.5644020000000  0.4612710000000 1.0
C      1  0.4921990000000  0.5818440000000  0.5042110000000 1.0
C      1  0.5339790000000  0.3872060000000  0.5246490000000 1.0
C      1  0.5143600000000  0.6022250000000  0.4659560000000 1.0
C      1  0.5319030000000  0.5778680000000  0.5676460000000 1.0
C      1  0.4280370000000  0.5473390000000  0.4246060000000 1.0
C      1  0.4448650000000  0.4318440000000  0.5682160000000 1.0
C      1  0.4569320000000  0.4899130000000  0.6053170000000 1.0
C      1  0.5888990000000  0.5401020000000  0.4863610000000 1.0
C      1  0.4343120000000  0.5605760000000  0.5470480000000 1.0
C      1  0.4834640000000  0.4668920000000  0.4775560000000 1.0
C      1  0.5669480000000  0.5123730000000  0.5214950000000 1.0
C      1  0.5387430000000  0.4845460000000  0.3985700000000 1.0
C      1  0.4899930000000  0.4264790000000  0.5747930000000 1.0
C      1  0.5618230000000  0.5526640000000  0.4379690000000 1.0
C      1  0.4065300000000  0.5026450000000  0.4542440000000 1.0
C      1  0.4523420000000  0.5754170000000  0.4608720000000 1.0
C      1  0.5530320000000  0.5574780000000  0.5753930000000 1.0
C      1  0.4474140000000  0.5676140000000  0.4330090000000 1.0
C      1  0.5848720000000  0.5173000000000  0.5447760000000 1.0
C      1  0.4436300000000  0.4969440000000  0.4996620000000 1.0
C      1  0.4634300000000  0.4689510000000  0.5656520000000 1.0
C      1  0.5456720000000  0.5297760000000  0.5735400000000 1.0
C      1  0.4952130000000  0.5107850000000  0.3822050000000 1.0
C      1  0.5411530000000  0.5103330000000  0.4121340000000 1.0
C      1  0.4576440000000  0.4268400000000  0.4776060000000 1.0
C      1  0.5869000000000  0.4662880000000  0.5570970000000 1.0
C      1  0.3998790000000  0.5126190000000  0.4801430000000 1.0
C      1  0.4371240000000  0.5305840000000  0.4060920000000 1.0
C      1  0.5560790000000  0.4788530000000  0.5551300000000 1.0
C      1  0.5768320000000  0.4214830000000  0.4752220000000 1.0
C      1  0.5125250000000  0.4316510000000  0.4931560000000 1.0
C      1  0.5397730000000  0.4547380000000  0.5578530000000 1.0
C      1  0.4868490000000  0.5406270000000  0.4780540000000 1.0
C      1  0.5992350000000  0.5414130000000  0.5529890000000 1.0
C      1  0.5333200000000  0.5354990000000  0.3964180000000 1.0
C      1  0.5611400000000  0.5729090000000  0.4609860000000 1.0
C      1  0.4644570000000  0.4947230000000  0.5275160000000 1.0
C      1  0.5159020000000  0.5211850000000  0.4494730000000 1.0
C      1  0.4088310000000  0.4565360000000  0.4736640000000 1.0
C      1  0.4514870000000  0.3995360000000  0.4845600000000 1.0
C      1  0.5090220000000  0.4145710000000  0.5607900000000 1.0
C      1  0.5404020000000  0.5551930000000  0.4174730000000 1.0
C      1  0.5924020000000  0.4553040000000  0.5286650000000 1.0
C      1  0.4743200000000  0.5118430000000  0.5976430000000 1.0
C      1  0.3879870000000  0.4637340000000  0.4934820000000 1.0
C      1  0.4550400000000  0.4662790000000  0.5367430000000 1.0
C      1  0.5598490000000  0.4670610000000  0.4779580000000 1.0
C      1  0.5245110000000  0.5390540000000  0.5119510000000 1.0
C      1  0.4413550000000  0.5789410000000  0.4873900000000 1.0
C      1  0.5518340000000  0.4157230000000  0.4601920000000 1.0
C      1  0.5057850000000  0.5359730000000  0.3863690000000 1.0
C      1  0.4908290000000  0.4676070000000  0.5734820000000 1.0
C      1  0.5465730000000  0.3979650000000  0.4994460000000 1.0
C      1  0.5676150000000  0.5781560000000  0.5094270000000 1.0
C      1  0.4747240000000  0.5367520000000  0.5037360000000 1.0
C      1  0.6131980000000  0.5175740000000  0.5411800000000 1.0
C      1  0.5335900000000  0.5027140000000  0.4668610000000 1.0
C      1  0.4595840000000  0.5224220000000  0.5418730000000 1.0
C      1  0.6092660000000  0.4962520000000  0.4913170000000 1.0
C      1  0.4574250000000  0.4679750000000  0.4115370000000 1.0
C      1  0.5979190000000  0.4582620000000  0.5783390000000 1.0
C      1  0.5420380000000  0.5502660000000  0.4935020000000 1.0
C      1  0.5638740000000  0.5318260000000  0.4989130000000 1.0
C      1  0.4801220000000  0.5559290000000  0.5789220000000 1.0
C      1  0.5080860000000  0.5375240000000  0.5491000000000 1.0
C      1  0.4907460000000  0.5160420000000  0.4646830000000 1.0
C      1  0.4232650000000  0.4533880000000  0.5315900000000 1.0
C      1  0.5117580000000  0.4617210000000  0.5561710000000 1.0
C      1  0.4505450000000  0.4539110000000  0.5875450000000 1.0
C      1  0.4704930000000  0.4273460000000  0.5532580000000 1.0
C      1  0.5656890000000  0.4418150000000  0.4151790000000 1.0
C      1  0.4687590000000  0.4901460000000  0.4079830000000 1.0
C      1  0.4945480000000  0.6187450000000  0.4819560000000 1.0
C      1  0.5377170000000  0.5031130000000  0.5698680000000 1.0
C      1  0.6195120000000  0.4996330000000  0.5184180000000 1.0
C      1  0.5937420000000  0.4817950000000  0.4360250000000 1.0
C      1  0.4227000000000  0.5279290000000  0.4489670000000 1.0
C      1  0.5134640000000  0.4706610000000  0.3905400000000 1.0
C      1  0.4932320000000  0.4900400000000  0.5310120000000 1.0
C      1  0.5405060000000  0.4762800000000  0.4577550000000 1.0
C      1  0.4844930000000  0.4419880000000  0.4941710000000 1.0
C      1  0.4214440000000  0.5608550000000  0.4840350000000 1.0
C      1  0.4395750000000  0.4602730000000  0.4289560000000 1.0
C      1  0.5592940000000  0.4655640000000  0.4000570000000 1.0
C      1  0.4162580000000  0.4737830000000  0.5776780000000 1.0
C      1  0.4334710000000  0.5248440000000  0.5835450000000 1.0
C      1  0.5046330000000  0.5407630000000  0.5798900000000 1.0
C      1  0.5134390000000  0.5075460000000  0.5433540000000 1.0
C      1  0.4756050000000  0.5627460000000  0.4284630000000 1.0
C      1  0.5322330000000  0.4069940000000  0.5467580000000 1.0
C      1  0.4618370000000  0.5302100000000  0.5769490000000 1.0
C      1  0.4259880000000  0.4373290000000  0.4856500000000 1.0
C      1  0.4502830000000  0.4349600000000  0.4318520000000 1.0
C      1  0.4553390000000  0.4167030000000  0.4504030000000 1.0
C      1  0.6077240000000  0.4734860000000  0.5113310000000 1.0
C      1  0.4998290000000  0.5789600000000  0.4758950000000 1.0
C      1  0.5242200000000  0.5111290000000  0.5161940000000 1.0
C      1  0.4519300000000  0.5240200000000  0.4918320000000 1.0
C      1  0.5271670000000  0.4478770000000  0.5132710000000 1.0
C      1  0.5132350000000  0.4490650000000  0.4078400000000 1.0
C      1  0.4473550000000  0.5176280000000  0.4640170000000 1.0
C      1  0.5476020000000  0.4679100000000  0.5047250000000 1.0
C      1  0.5408120000000  0.5912560000000  0.4712220000000 1.0
C      1  0.5654110000000  0.5248010000000  0.4326940000000 1.0
C      1  0.5024580000000  0.5172740000000  0.5975930000000 1.0
C      1  0.4387120000000  0.4048510000000  0.5070240000000 1.0
C      1  0.4107370000000  0.5222640000000  0.5244640000000 1.0
C      1  0.3999740000000  0.4892690000000  0.5636090000000 1.0
C      1  0.4051900000000  0.5405190000000  0.4732920000000 1.0
C      1  0.4344810000000  0.5361440000000  0.5319570000000 1.0
C      1  0.4753090000000  0.4451520000000  0.5279460000000 1.0
C      1  0.6055730000000  0.4618840000000  0.4548970000000 1.0
C      1  0.5135140000000  0.5870220000000  0.5207480000000 1.0
C      1  0.4610000000000  0.5721180000000  0.5393810000000 1.0
C      1  0.4962390000000  0.5531620000000  0.4118590000000 1.0
C      1  0.4215130000000  0.4479950000000  0.5601780000000 1.0
C      1  0.5722040000000  0.4139050000000  0.5027440000000 1.0
C      1  0.4922460000000  0.4936890000000  0.4835190000000 1.0
C      1  0.5848460000000  0.5087680000000  0.4463690000000 1.0
C      1  0.4633110000000  0.5894300000000  0.5092020000000 1.0
C      1  0.5556670000000  0.4866110000000  0.5253620000000 1.0
C      1  0.5789390000000  0.5677510000000  0.4836530000000 1.0
C      1  0.5826370000000  0.4653790000000  0.4144160000000 1.0
C      1  0.4915250000000  0.4690490000000  0.4490420000000 1.0
C      1  0.4930940000000  0.4516520000000  0.5985060000000 1.0
C      1  0.5009570000000  0.4618200000000  0.5296940000000 1.0
C      1  0.5838340000000  0.4502190000000  0.4721320000000 1.0
C      1  0.5745850000000  0.4327870000000  0.5245980000000 1.0
C      1  0.3863750000000  0.5211750000000  0.5404870000000 1.0
C      1  0.4901090000000  0.4925480000000  0.4313880000000 1.0
C      1  0.4452460000000  0.4900200000000  0.4701730000000 1.0
C      1  0.5163360000000  0.5040230000000  0.4268450000000 1.0
C      1  0.5294520000000  0.4115740000000  0.4795070000000 1.0
C      1  0.5186490000000  0.4579990000000  0.4477810000000 1.0
C      1  0.4815460000000  0.5772630000000  0.5598370000000 1.0
C      1  0.5490580000000  0.4258480000000  0.4328830000000 1.0
C      1  0.5768080000000  0.5597890000000  0.5562070000000 1.0
C      1  0.4477050000000  0.5124220000000  0.3910160000000 1.0
C      1  0.5199300000000  0.4968510000000  0.4916270000000 1.0
C      1  0.5159130000000  0.5503130000000  0.4326560000000 1.0
C      1  0.4136810000000  0.5013060000000  0.5052800000000 1.0
C      1  0.5207110000000  0.4337170000000  0.4297100000000 1.0
C      1  0.4189690000000  0.5471190000000  0.5699390000000 1.0
C      1  0.4785310000000  0.5433420000000  0.5319340000000 1.0
C      1  0.5230040000000  0.4951740000000  0.5973860000000 1.0
C      1  0.5302960000000  0.5523360000000  0.5359310000000 1.0
C      1  0.5970420000000  0.5155070000000  0.4726310000000 1.0
C      1  0.4314400000000  0.4962920000000  0.5909460000000 1.0
C      1  0.5184180000000  0.4690920000000  0.6069420000000 1.0
END
