TITL C-3909646-7479-2 14.5024073090384 125000 -22732.6042874812 0 0 152 (C1) n - 1
REM
REM in /home/nfs/bkarasulu/CARBON/AIRSS/Generating-Clusters/ReaxFF-fromJPCA2015/Units_Real/with-SteepDescent/Only-C1/SD-CG/Try1-3A/FIRE-CG
REM
REM
REM
REM
REM
REM ./C.cell (11c1c37f851c82e70ff6c80c92926a4b)
REM
REM compiler GCC version 9.2.1 20190827 (Red Hat 9.2.1-1)
REM options -cpp -mtune=generic -march=x86-64 -g -O0 -fpre-include=/usr/include/finclude/math-vector-fortran.h
REM seed -1389962684 1616969585 2118953975 1937399059 797456029 385676124 1700629483 650113155 1087563542 207379211 926748807 2038471097 374552681 -1212539536 2101057172 1210001398 -594321389 2040294046 -415513544 894214615 1906033763 -1476205039 1673533100 -1787754079 -409018211 -569136423 -640648304 344183920 1376206290 -1701847285 -516486358 687937170 -2126691709
REM
CELL 1.54180   50.00000   50.00000   50.00000   90.00000   90.00000   90.00000
LATT -1
SFAC C  
C      1  0.6042220000000  0.4832250000000  0.5167410000000 1.0
C      1  0.5462750000000  0.5565090000000  0.4397050000000 1.0
C      1  0.4136690000000  0.5543160000000  0.4578700000000 1.0
C      1  0.4609610000000  0.4745740000000  0.4573810000000 1.0
C      1  0.4990080000000  0.4224370000000  0.5911030000000 1.0
C      1  0.4020580000000  0.5095670000000  0.5242130000000 1.0
C      1  0.4792940000000  0.4526290000000  0.4139280000000 1.0
C      1  0.4447270000000  0.5517690000000  0.4203470000000 1.0
C      1  0.4957520000000  0.5101110000000  0.4727060000000 1.0
C      1  0.4253620000000  0.5062480000000  0.5435380000000 1.0
C      1  0.4488290000000  0.4109550000000  0.5204970000000 1.0
C      1  0.4562640000000  0.5034150000000  0.4047020000000 1.0
C      1  0.5027150000000  0.5096140000000  0.5185700000000 1.0
C      1  0.5174730000000  0.5314810000000  0.6092150000000 1.0
C      1  0.5244910000000  0.5555230000000  0.5953450000000 1.0
C      1  0.4728750000000  0.4760100000000  0.5778240000000 1.0
C      1  0.5509040000000  0.4241530000000  0.5708510000000 1.0
C      1  0.5800970000000  0.4588320000000  0.4508970000000 1.0
C      1  0.5487880000000  0.5275760000000  0.4962950000000 1.0
C      1  0.4487380000000  0.5975140000000  0.4738360000000 1.0
C      1  0.4869020000000  0.5279270000000  0.5738650000000 1.0
C      1  0.5212710000000  0.4065710000000  0.5332240000000 1.0
C      1  0.5243240000000  0.5569860000000  0.4805040000000 1.0
C      1  0.4959510000000  0.4738210000000  0.4018680000000 1.0
C      1  0.5844770000000  0.5296050000000  0.4580250000000 1.0
C      1  0.4427760000000  0.4282420000000  0.4716430000000 1.0
C      1  0.4656620000000  0.5197500000000  0.4849840000000 1.0
C      1  0.5052870000000  0.5726800000000  0.4229220000000 1.0
C      1  0.5244660000000  0.4708700000000  0.4079510000000 1.0
C      1  0.5396990000000  0.4045960000000  0.4674720000000 1.0
C      1  0.5680000000000  0.4310850000000  0.5282900000000 1.0
C      1  0.5611400000000  0.5408270000000  0.5473500000000 1.0
C      1  0.6051220000000  0.4725060000000  0.4891490000000 1.0
C      1  0.4344550000000  0.5821050000000  0.4934520000000 1.0
C      1  0.3929830000000  0.5074490000000  0.4503440000000 1.0
C      1  0.4721610000000  0.4257230000000  0.4725810000000 1.0
C      1  0.6096310000000  0.4914100000000  0.4666920000000 1.0
C      1  0.3970750000000  0.5040230000000  0.4983450000000 1.0
C      1  0.5442590000000  0.5418790000000  0.4171300000000 1.0
C      1  0.4810650000000  0.4239420000000  0.5673090000000 1.0
C      1  0.4326190000000  0.4923210000000  0.4259950000000 1.0
C      1  0.4551100000000  0.5288910000000  0.4097320000000 1.0
C      1  0.4983250000000  0.5665680000000  0.4741090000000 1.0
C      1  0.5370530000000  0.4833140000000  0.4804170000000 1.0
C      1  0.5407390000000  0.5181650000000  0.6021170000000 1.0
C      1  0.5232150000000  0.5787890000000  0.5785130000000 1.0
C      1  0.4252860000000  0.4641580000000  0.5104240000000 1.0
C      1  0.5057730000000  0.4462920000000  0.6045400000000 1.0
C      1  0.5485530000000  0.4711370000000  0.5902770000000 1.0
C      1  0.4758850000000  0.6051780000000  0.4643440000000 1.0
C      1  0.5626140000000  0.4504180000000  0.5750900000000 1.0
C      1  0.4851430000000  0.5850440000000  0.5149950000000 1.0
C      1  0.4862200000000  0.4391540000000  0.4958150000000 1.0
C      1  0.3879200000000  0.5344690000000  0.5227370000000 1.0
C      1  0.4627340000000  0.5655180000000  0.4390090000000 1.0
C      1  0.4328890000000  0.4295050000000  0.5369630000000 1.0
C      1  0.4948780000000  0.5259540000000  0.4478940000000 1.0
C      1  0.5186790000000  0.4240010000000  0.4279700000000 1.0
C      1  0.6090130000000  0.5204210000000  0.4708090000000 1.0
C      1  0.6153420000000  0.5299830000000  0.4991380000000 1.0
C      1  0.4282820000000  0.4789110000000  0.5512930000000 1.0
C      1  0.4635200000000  0.5433420000000  0.5628530000000 1.0
C      1  0.5154950000000  0.4941040000000  0.5415730000000 1.0
C      1  0.5135290000000  0.5199920000000  0.5621910000000 1.0
C      1  0.5206900000000  0.4696140000000  0.6018650000000 1.0
C      1  0.5193150000000  0.4400210000000  0.5018220000000 1.0
C      1  0.5155050000000  0.5482970000000  0.4124830000000 1.0
C      1  0.4121160000000  0.5092320000000  0.4748010000000 1.0
C      1  0.5007270000000  0.4705060000000  0.5475600000000 1.0
C      1  0.4745390000000  0.4745170000000  0.5366670000000 1.0
C      1  0.4973350000000  0.4425680000000  0.4348560000000 1.0
C      1  0.4833350000000  0.5524040000000  0.4538690000000 1.0
C      1  0.5314740000000  0.4528880000000  0.5291280000000 1.0
C      1  0.4839600000000  0.5553610000000  0.5193220000000 1.0
C      1  0.4697420000000  0.5382470000000  0.5023880000000 1.0
C      1  0.5367660000000  0.4458660000000  0.4186680000000 1.0
C      1  0.4941630000000  0.5937750000000  0.4876000000000 1.0
C      1  0.4100720000000  0.5146480000000  0.4280340000000 1.0
C      1  0.5301660000000  0.4966160000000  0.4223250000000 1.0
C      1  0.4962750000000  0.5959620000000  0.4365480000000 1.0
C      1  0.5489050000000  0.4153980000000  0.5423110000000 1.0
C      1  0.5682120000000  0.5223080000000  0.5210380000000 1.0
C      1  0.5410800000000  0.5966300000000  0.4671950000000 1.0
C      1  0.5202940000000  0.4083100000000  0.5043010000000 1.0
C      1  0.4270350000000  0.5581890000000  0.5385180000000 1.0
C      1  0.5325710000000  0.4756950000000  0.4504710000000 1.0
C      1  0.5562140000000  0.4145770000000  0.4801500000000 1.0
C      1  0.5676640000000  0.4372380000000  0.4961070000000 1.0
C      1  0.4755810000000  0.5019410000000  0.5284990000000 1.0
C      1  0.5308790000000  0.5481160000000  0.5072330000000 1.0
C      1  0.5068990000000  0.5379590000000  0.5191470000000 1.0
C      1  0.5214840000000  0.4273420000000  0.5721600000000 1.0
C      1  0.5636020000000  0.4951570000000  0.5322330000000 1.0
C      1  0.4926950000000  0.5144650000000  0.5987680000000 1.0
C      1  0.4755380000000  0.4663820000000  0.4938710000000 1.0
C      1  0.4405710000000  0.5132120000000  0.4705500000000 1.0
C      1  0.5044730000000  0.5187130000000  0.4207960000000 1.0
C      1  0.4112230000000  0.5653230000000  0.4836680000000 1.0
C      1  0.3986190000000  0.5579300000000  0.5311520000000 1.0
C      1  0.4400440000000  0.5794350000000  0.5219180000000 1.0
C      1  0.4941200000000  0.4853020000000  0.5963080000000 1.0
C      1  0.4851690000000  0.5011380000000  0.4036310000000 1.0
C      1  0.4185980000000  0.4373380000000  0.5148600000000 1.0
C      1  0.5984020000000  0.4691980000000  0.5418550000000 1.0
C      1  0.5372420000000  0.5947720000000  0.5123440000000 1.0
C      1  0.5150280000000  0.4468490000000  0.5511410000000 1.0
C      1  0.4392230000000  0.5346680000000  0.5503190000000 1.0
C      1  0.5474370000000  0.5644650000000  0.4649640000000 1.0
C      1  0.4640800000000  0.4954980000000  0.5555110000000 1.0
C      1  0.5540270000000  0.5138400000000  0.4204900000000 1.0
C      1  0.4002720000000  0.4768600000000  0.4997560000000 1.0
C      1  0.4294960000000  0.4615950000000  0.4307120000000 1.0
C      1  0.4571950000000  0.5920960000000  0.4471300000000 1.0
C      1  0.5848170000000  0.4920520000000  0.5535460000000 1.0
C      1  0.5785620000000  0.4481100000000  0.5489650000000 1.0
C      1  0.4234820000000  0.4496250000000  0.4572730000000 1.0
C      1  0.4715820000000  0.5725100000000  0.5600970000000 1.0
C      1  0.4955230000000  0.3968090000000  0.4948010000000 1.0
C      1  0.5775100000000  0.5099630000000  0.4371000000000 1.0
C      1  0.4643380000000  0.4487710000000  0.5701160000000 1.0
C      1  0.5829140000000  0.5083790000000  0.5782100000000 1.0
C      1  0.4786000000000  0.4119980000000  0.5172550000000 1.0
C      1  0.4964780000000  0.5750020000000  0.5705930000000 1.0
C      1  0.5064640000000  0.4635120000000  0.4522470000000 1.0
C      1  0.4473640000000  0.4963620000000  0.4498440000000 1.0
C      1  0.4879470000000  0.4794300000000  0.4658770000000 1.0
C      1  0.5407090000000  0.4560510000000  0.4894140000000 1.0
C      1  0.5640700000000  0.5422850000000  0.4748490000000 1.0
C      1  0.5590620000000  0.4985590000000  0.5950790000000 1.0
C      1  0.4478620000000  0.4695600000000  0.4939040000000 1.0
C      1  0.5874270000000  0.4525480000000  0.4786810000000 1.0
C      1  0.5815450000000  0.5365220000000  0.5697660000000 1.0
C      1  0.5212140000000  0.6011980000000  0.4483310000000 1.0
C      1  0.4573570000000  0.4556490000000  0.4329820000000 1.0
C      1  0.5163780000000  0.4053330000000  0.4507360000000 1.0
C      1  0.5364670000000  0.5319380000000  0.5559670000000 1.0
C      1  0.4647270000000  0.5888740000000  0.5346400000000 1.0
C      1  0.4912730000000  0.4032290000000  0.4670360000000 1.0
C      1  0.5253720000000  0.6054670000000  0.4898560000000 1.0
C      1  0.5526420000000  0.4550880000000  0.4412070000000 1.0
C      1  0.5388580000000  0.5837760000000  0.5514420000000 1.0
C      1  0.5220950000000  0.5064920000000  0.4898830000000 1.0
C      1  0.5387890000000  0.4804800000000  0.5322000000000 1.0
C      1  0.4175190000000  0.5437680000000  0.4327880000000 1.0
C      1  0.3918990000000  0.5558870000000  0.5041090000000 1.0
C      1  0.4390540000000  0.4518530000000  0.5554710000000 1.0
C      1  0.4937740000000  0.4123570000000  0.5430570000000 1.0
C      1  0.4083890000000  0.4678300000000  0.4733820000000 1.0
C      1  0.5918700000000  0.4851500000000  0.4446730000000 1.0
C      1  0.5986970000000  0.5131530000000  0.5168180000000 1.0
C      1  0.5469170000000  0.5729300000000  0.5262930000000 1.0
C      1  0.4323740000000  0.4189600000000  0.4970080000000 1.0
END
