TITL C-3909655-6256-41 12.314301167964 125000 -16160.5017274152 0 0 108 (C1) n - 1
REM
REM in /home/nfs/bkarasulu/CARBON/AIRSS/Generating-Clusters/ReaxFF-fromJPCA2015/Units_Real/with-SteepDescent/Only-C1/SD-CG/Try1-3A/FIRE-CG
REM
REM
REM
REM
REM
REM ./C.cell (11c1c37f851c82e70ff6c80c92926a4b)
REM
REM compiler GCC version 9.2.1 20190827 (Red Hat 9.2.1-1)
REM options -cpp -mtune=generic -march=x86-64 -g -O0 -fpre-include=/usr/include/finclude/math-vector-fortran.h
REM seed 81134687 -342614577 -1932476776 -28638061 1997237114 524901420 898372213 -1378104426 -1104253828 -2073362372 -1864126155 1683220003 -1457064913 1304736006 -195698109 405481593 1240555547 1873961473 -170560874 766586970 710344735 -1856701154 -1768571752 51488599 -1833110519 -305778512 -756620179 431912777 329268264 -1019537517 -1987761002 1123675690 -1255783721
REM
CELL 1.54180   50.00000   50.00000   50.00000   90.00000   90.00000   90.00000
LATT -1
SFAC C  
C      1  0.4118990000000  0.5119440000000  0.5378470000000 1.0
C      1  0.4524720000000  0.5072240000000  0.5664510000000 1.0
C      1  0.6029100000000  0.5069000000000  0.4970950000000 1.0
C      1  0.5296670000000  0.4721370000000  0.5311360000000 1.0
C      1  0.4853860000000  0.5912720000000  0.4552010000000 1.0
C      1  0.5697280000000  0.5232170000000  0.4389930000000 1.0
C      1  0.4635400000000  0.5275410000000  0.5256180000000 1.0
C      1  0.5121480000000  0.5431170000000  0.5218740000000 1.0
C      1  0.4523450000000  0.5584860000000  0.4722580000000 1.0
C      1  0.4672040000000  0.4357620000000  0.4661410000000 1.0
C      1  0.4936230000000  0.5241650000000  0.4691450000000 1.0
C      1  0.5676810000000  0.5391440000000  0.4895480000000 1.0
C      1  0.5026690000000  0.5729460000000  0.4373940000000 1.0
C      1  0.5281020000000  0.5186280000000  0.5188700000000 1.0
C      1  0.5195470000000  0.4568680000000  0.5101440000000 1.0
C      1  0.4153420000000  0.5037150000000  0.4804010000000 1.0
C      1  0.4832050000000  0.4765750000000  0.4216470000000 1.0
C      1  0.5776750000000  0.5257450000000  0.5361920000000 1.0
C      1  0.5301980000000  0.4059250000000  0.4973790000000 1.0
C      1  0.4548660000000  0.5957370000000  0.5254270000000 1.0
C      1  0.4788260000000  0.5001750000000  0.4629320000000 1.0
C      1  0.4657140000000  0.5330330000000  0.4310600000000 1.0
C      1  0.5592730000000  0.4974370000000  0.5719500000000 1.0
C      1  0.5357930000000  0.5131410000000  0.5838200000000 1.0
C      1  0.4377860000000  0.4938480000000  0.4399010000000 1.0
C      1  0.4764350000000  0.5108610000000  0.5829240000000 1.0
C      1  0.5464930000000  0.4335820000000  0.5428350000000 1.0
C      1  0.3905810000000  0.5347230000000  0.4947200000000 1.0
C      1  0.4954650000000  0.4958280000000  0.5498370000000 1.0
C      1  0.5224340000000  0.4880480000000  0.5897480000000 1.0
C      1  0.5120840000000  0.4814760000000  0.4231170000000 1.0
C      1  0.4938970000000  0.4695970000000  0.5023320000000 1.0
C      1  0.5623860000000  0.4425980000000  0.4969670000000 1.0
C      1  0.4999370000000  0.4366000000000  0.5553330000000 1.0
C      1  0.4579020000000  0.5872210000000  0.4572320000000 1.0
C      1  0.5225590000000  0.5728180000000  0.4591850000000 1.0
C      1  0.5375620000000  0.5010020000000  0.4730340000000 1.0
C      1  0.4276830000000  0.5156660000000  0.4555400000000 1.0
C      1  0.5411590000000  0.5550380000000  0.5659550000000 1.0
C      1  0.5063710000000  0.5879150000000  0.5084610000000 1.0
C      1  0.5736090000000  0.4982590000000  0.5464530000000 1.0
C      1  0.4450720000000  0.5384620000000  0.4507260000000 1.0
C      1  0.5387910000000  0.4588260000000  0.5545320000000 1.0
C      1  0.4769790000000  0.4237740000000  0.4268800000000 1.0
C      1  0.4846800000000  0.4541080000000  0.5708240000000 1.0
C      1  0.4115740000000  0.4595070000000  0.5336090000000 1.0
C      1  0.5775790000000  0.4973960000000  0.4501110000000 1.0
C      1  0.4475960000000  0.4539220000000  0.5162160000000 1.0
C      1  0.4692500000000  0.4612530000000  0.5097230000000 1.0
C      1  0.4358100000000  0.5717820000000  0.5234110000000 1.0
C      1  0.4671180000000  0.4995990000000  0.4334920000000 1.0
C      1  0.5217590000000  0.5104280000000  0.4273950000000 1.0
C      1  0.5183990000000  0.4222600000000  0.5405270000000 1.0
C      1  0.4848670000000  0.5408480000000  0.5110640000000 1.0
C      1  0.4313710000000  0.5247060000000  0.5557800000000 1.0
C      1  0.5250440000000  0.5693880000000  0.5209400000000 1.0
C      1  0.4605600000000  0.4495780000000  0.5583240000000 1.0
C      1  0.5708990000000  0.4587020000000  0.4747110000000 1.0
C      1  0.5884300000000  0.5288260000000  0.5092350000000 1.0
C      1  0.4341420000000  0.5656690000000  0.4945160000000 1.0
C      1  0.4830750000000  0.5492460000000  0.4826420000000 1.0
C      1  0.4777770000000  0.4008380000000  0.4439070000000 1.0
C      1  0.4173040000000  0.4756450000000  0.4784670000000 1.0
C      1  0.4684750000000  0.4512270000000  0.4234640000000 1.0
C      1  0.4916040000000  0.4765440000000  0.4730530000000 1.0
C      1  0.4886010000000  0.4055310000000  0.4972070000000 1.0
C      1  0.4934460000000  0.4498120000000  0.4608790000000 1.0
C      1  0.5649860000000  0.5493170000000  0.5493590000000 1.0
C      1  0.5692380000000  0.5439610000000  0.4593860000000 1.0
C      1  0.5526060000000  0.5692820000000  0.4619100000000 1.0
C      1  0.5804700000000  0.4740410000000  0.5302950000000 1.0
C      1  0.5318470000000  0.4661700000000  0.4375430000000 1.0
C      1  0.4027370000000  0.4307850000000  0.4926290000000 1.0
C      1  0.4063990000000  0.5192220000000  0.5060670000000 1.0
C      1  0.4854900000000  0.5517670000000  0.4313390000000 1.0
C      1  0.4689870000000  0.5040180000000  0.5421390000000 1.0
C      1  0.5666910000000  0.4476440000000  0.5260500000000 1.0
C      1  0.5453000000000  0.5172700000000  0.4952760000000 1.0
C      1  0.5294980000000  0.4047110000000  0.4690810000000 1.0
C      1  0.4485470000000  0.5461120000000  0.5439450000000 1.0
C      1  0.5336680000000  0.4360280000000  0.4954360000000 1.0
C      1  0.4117580000000  0.4856900000000  0.5363250000000 1.0
C      1  0.5196520000000  0.5172810000000  0.4568550000000 1.0
C      1  0.4486160000000  0.4471220000000  0.4454300000000 1.0
C      1  0.5461470000000  0.5705360000000  0.5416490000000 1.0
C      1  0.5623110000000  0.5728700000000  0.4887890000000 1.0
C      1  0.4087990000000  0.4544850000000  0.5006900000000 1.0
C      1  0.5455400000000  0.4726660000000  0.5798790000000 1.0
C      1  0.5179190000000  0.4961220000000  0.5335110000000 1.0
C      1  0.5202640000000  0.5365300000000  0.5756690000000 1.0
C      1  0.4906250000000  0.5360310000000  0.5771950000000 1.0
C      1  0.4378120000000  0.4457530000000  0.5420380000000 1.0
C      1  0.4304440000000  0.4691430000000  0.4530790000000 1.0
C      1  0.5164450000000  0.4431170000000  0.4444720000000 1.0
C      1  0.5994390000000  0.4953750000000  0.4690890000000 1.0
C      1  0.5542320000000  0.4784410000000  0.4576360000000 1.0
C      1  0.4846370000000  0.5942830000000  0.5278840000000 1.0
C      1  0.5081450000000  0.4046350000000  0.5169350000000 1.0
C      1  0.5993630000000  0.4799860000000  0.5088080000000 1.0
C      1  0.4729490000000  0.5556020000000  0.5634420000000 1.0
C      1  0.4947910000000  0.4857150000000  0.5773120000000 1.0
C      1  0.5471760000000  0.5209310000000  0.4180570000000 1.0
C      1  0.5021010000000  0.5772400000000  0.4808000000000 1.0
C      1  0.4721360000000  0.4080260000000  0.4748220000000 1.0
C      1  0.5975330000000  0.4683950000000  0.4810420000000 1.0
C      1  0.4818650000000  0.5765800000000  0.5494070000000 1.0
C      1  0.4408720000000  0.5907290000000  0.5026120000000 1.0
C      1  0.5276080000000  0.4126020000000  0.4423890000000 1.0
END
