TITL C-3909779-8285-34 -2.20285303083971 125000 -24378.9825565748 0 0 163 (C1) n - 1
REM
REM in /home/nfs/bkarasulu/CARBON/AIRSS/Generating-Clusters/ReaxFF-fromJPCA2015/Units_Real/with-SteepDescent/Only-C1/SD-CG/Try1-3A/FIRE-CG
REM
REM
REM
REM
REM
REM ./C.cell (11c1c37f851c82e70ff6c80c92926a4b)
REM
REM compiler GCC version 9.2.1 20190827 (Red Hat 9.2.1-1)
REM options -cpp -mtune=generic -march=x86-64 -g -O0 -fpre-include=/usr/include/finclude/math-vector-fortran.h
REM seed -2080929938 -950101129 1635505191 -928328974 687857393 993066390 -1764550192 315386968 1690017575 -1970413597 -129503940 775166830 797041364 -1914006324 -1330198159 1726302696 1952191493 -1992697369 -1073944149 -1780784755 -1475601318 -1551771769 -1065198333 1527293772 1767372226 1628625292 -1697170028 -1382733788 1953319337 1638163276 781898421 1254765001 -84415385
REM
CELL 1.54180   50.00000   50.00000   50.00000   90.00000   90.00000   90.00000
LATT -1
SFAC C  
C      1  0.4933130000000  0.4591950000000  0.4880080000000 1.0
C      1  0.4309820000000  0.5110840000000  0.6035180000000 1.0
C      1  0.4247750000000  0.5396700000000  0.4493480000000 1.0
C      1  0.5839330000000  0.5612400000000  0.5366560000000 1.0
C      1  0.5117070000000  0.4444600000000  0.4428250000000 1.0
C      1  0.5030210000000  0.5541800000000  0.4897650000000 1.0
C      1  0.4970300000000  0.4957690000000  0.4325400000000 1.0
C      1  0.4217150000000  0.5764690000000  0.4927490000000 1.0
C      1  0.5296580000000  0.5097270000000  0.5833300000000 1.0
C      1  0.5495790000000  0.4587540000000  0.5307950000000 1.0
C      1  0.4146310000000  0.4387610000000  0.5014000000000 1.0
C      1  0.5817210000000  0.5432870000000  0.4652090000000 1.0
C      1  0.5169340000000  0.5809020000000  0.4771890000000 1.0
C      1  0.4556350000000  0.5311920000000  0.5456870000000 1.0
C      1  0.5429630000000  0.5785450000000  0.5517260000000 1.0
C      1  0.5170230000000  0.4563880000000  0.6007700000000 1.0
C      1  0.5455960000000  0.4279840000000  0.5712100000000 1.0
C      1  0.4668420000000  0.4126310000000  0.5552400000000 1.0
C      1  0.4699420000000  0.5636920000000  0.5727810000000 1.0
C      1  0.4761720000000  0.5192730000000  0.5611280000000 1.0
C      1  0.5382550000000  0.4218610000000  0.4459750000000 1.0
C      1  0.4607310000000  0.3994460000000  0.4794730000000 1.0
C      1  0.4998380000000  0.5308740000000  0.4689220000000 1.0
C      1  0.4915590000000  0.4367610000000  0.4683110000000 1.0
C      1  0.4979550000000  0.5301550000000  0.4400950000000 1.0
C      1  0.5502560000000  0.5755470000000  0.4460760000000 1.0
C      1  0.5101780000000  0.4816840000000  0.4875640000000 1.0
C      1  0.4102500000000  0.4551780000000  0.5256850000000 1.0
C      1  0.5464330000000  0.5364770000000  0.5012520000000 1.0
C      1  0.5539880000000  0.5318310000000  0.4732880000000 1.0
C      1  0.4384360000000  0.5340050000000  0.4940580000000 1.0
C      1  0.4801720000000  0.4957200000000  0.5797650000000 1.0
C      1  0.5980790000000  0.4738240000000  0.4665080000000 1.0
C      1  0.5113720000000  0.5478180000000  0.5369700000000 1.0
C      1  0.4705760000000  0.5102710000000  0.5012640000000 1.0
C      1  0.4828540000000  0.6138320000000  0.4640090000000 1.0
C      1  0.5410460000000  0.5891080000000  0.5237740000000 1.0
C      1  0.4551710000000  0.6007190000000  0.5394440000000 1.0
C      1  0.5049380000000  0.3856670000000  0.4548870000000 1.0
C      1  0.5443170000000  0.4840850000000  0.5436590000000 1.0
C      1  0.5369790000000  0.5135810000000  0.3852260000000 1.0
C      1  0.4509050000000  0.4673220000000  0.4889620000000 1.0
C      1  0.5228890000000  0.5457530000000  0.5102800000000 1.0
C      1  0.4644650000000  0.5996050000000  0.4471180000000 1.0
C      1  0.4874150000000  0.4557470000000  0.5162690000000 1.0
C      1  0.5059480000000  0.6244140000000  0.5198750000000 1.0
C      1  0.4961280000000  0.4445970000000  0.4138890000000 1.0
C      1  0.5696530000000  0.4570800000000  0.4316760000000 1.0
C      1  0.4255610000000  0.5278140000000  0.5823830000000 1.0
C      1  0.4306900000000  0.4574920000000  0.5523310000000 1.0
C      1  0.5419670000000  0.4937510000000  0.6052380000000 1.0
C      1  0.4959480000000  0.5541500000000  0.5812640000000 1.0
C      1  0.4963600000000  0.4427340000000  0.5846820000000 1.0
C      1  0.5889090000000  0.4778320000000  0.5506610000000 1.0
C      1  0.4026290000000  0.4657860000000  0.4617520000000 1.0
C      1  0.5436960000000  0.5852360000000  0.4733430000000 1.0
C      1  0.4991440000000  0.4775920000000  0.5592360000000 1.0
C      1  0.5848100000000  0.4462170000000  0.5067810000000 1.0
C      1  0.4802710000000  0.5126970000000  0.4748420000000 1.0
C      1  0.4496990000000  0.5069240000000  0.4326930000000 1.0
C      1  0.4967540000000  0.3956410000000  0.5303670000000 1.0
C      1  0.5599800000000  0.4758010000000  0.5911290000000 1.0
C      1  0.4435410000000  0.4413100000000  0.5032330000000 1.0
C      1  0.4687040000000  0.5738500000000  0.4343250000000 1.0
C      1  0.4959570000000  0.5311390000000  0.5966130000000 1.0
C      1  0.4917980000000  0.5747330000000  0.5301010000000 1.0
C      1  0.4432410000000  0.4880240000000  0.4143040000000 1.0
C      1  0.4533650000000  0.4757270000000  0.5501740000000 1.0
C      1  0.4580850000000  0.4757260000000  0.5804180000000 1.0
C      1  0.6000470000000  0.4642390000000  0.5309700000000 1.0
C      1  0.4944180000000  0.5044220000000  0.6050760000000 1.0
C      1  0.5437300000000  0.4997560000000  0.5203070000000 1.0
C      1  0.4489190000000  0.4613870000000  0.4097170000000 1.0
C      1  0.4348440000000  0.4325350000000  0.4549680000000 1.0
C      1  0.4191280000000  0.5645590000000  0.5180320000000 1.0
C      1  0.5568040000000  0.5827250000000  0.5004110000000 1.0
C      1  0.5018450000000  0.4135880000000  0.4843780000000 1.0
C      1  0.5779830000000  0.5335470000000  0.5418290000000 1.0
C      1  0.4180210000000  0.5500850000000  0.5412260000000 1.0
C      1  0.4789620000000  0.5700610000000  0.4070810000000 1.0
C      1  0.5963420000000  0.4970460000000  0.4828870000000 1.0
C      1  0.4109790000000  0.4414840000000  0.4720040000000 1.0
C      1  0.4797200000000  0.4772930000000  0.5352490000000 1.0
C      1  0.4306500000000  0.4840660000000  0.5952680000000 1.0
C      1  0.4980270000000  0.4005000000000  0.5587180000000 1.0
C      1  0.4370930000000  0.6018870000000  0.4923400000000 1.0
C      1  0.5664080000000  0.4267850000000  0.4356850000000 1.0
C      1  0.5116010000000  0.5309530000000  0.3907710000000 1.0
C      1  0.5596460000000  0.4614360000000  0.5038600000000 1.0
C      1  0.5875910000000  0.4802130000000  0.4391090000000 1.0
C      1  0.5515660000000  0.4170730000000  0.4740750000000 1.0
C      1  0.5941180000000  0.5479730000000  0.4911580000000 1.0
C      1  0.4307440000000  0.5536610000000  0.4742000000000 1.0
C      1  0.5934530000000  0.5190610000000  0.4984200000000 1.0
C      1  0.4607730000000  0.4225500000000  0.4624320000000 1.0
C      1  0.3977070000000  0.4925730000000  0.4514270000000 1.0
C      1  0.5751300000000  0.4915920000000  0.5707660000000 1.0
C      1  0.5688840000000  0.5213040000000  0.5662690000000 1.0
C      1  0.5655650000000  0.5198530000000  0.5169930000000 1.0
C      1  0.5448480000000  0.4144840000000  0.5019950000000 1.0
C      1  0.5723960000000  0.5319180000000  0.4253740000000 1.0
C      1  0.5717340000000  0.5049990000000  0.4402060000000 1.0
C      1  0.5149170000000  0.4732800000000  0.4420270000000 1.0
C      1  0.5255160000000  0.5554110000000  0.5639990000000 1.0
C      1  0.4123510000000  0.5171790000000  0.4618200000000 1.0
C      1  0.4509450000000  0.4338350000000  0.5656710000000 1.0
C      1  0.5254190000000  0.3935570000000  0.4376710000000 1.0
C      1  0.5437630000000  0.5337120000000  0.5742980000000 1.0
C      1  0.5233070000000  0.4915760000000  0.5612710000000 1.0
C      1  0.4957870000000  0.5237680000000  0.5411410000000 1.0
C      1  0.5774620000000  0.4265240000000  0.4634100000000 1.0
C      1  0.5216470000000  0.5410940000000  0.4177350000000 1.0
C      1  0.5176580000000  0.4981790000000  0.5089760000000 1.0
C      1  0.5717430000000  0.5796680000000  0.5580770000000 1.0
C      1  0.4719100000000  0.5457970000000  0.4417910000000 1.0
C      1  0.5435880000000  0.4514760000000  0.5898470000000 1.0
C      1  0.5221530000000  0.4123220000000  0.5670740000000 1.0
C      1  0.4447290000000  0.6055300000000  0.5195410000000 1.0
C      1  0.5725790000000  0.5575330000000  0.4412920000000 1.0
C      1  0.4740630000000  0.5844790000000  0.5535480000000 1.0
C      1  0.4167880000000  0.4787800000000  0.5703210000000 1.0
C      1  0.4683770000000  0.5434420000000  0.4015690000000 1.0
C      1  0.4881560000000  0.4261380000000  0.3988750000000 1.0
C      1  0.5485720000000  0.5304960000000  0.4097070000000 1.0
C      1  0.4485560000000  0.5350040000000  0.4291320000000 1.0
C      1  0.4695130000000  0.4962500000000  0.4532520000000 1.0
C      1  0.4678850000000  0.4015110000000  0.5285880000000 1.0
C      1  0.5403370000000  0.4882600000000  0.3792250000000 1.0
C      1  0.4921740000000  0.5032860000000  0.5215220000000 1.0
C      1  0.5050550000000  0.4488910000000  0.5572060000000 1.0
C      1  0.5658620000000  0.4226830000000  0.5195150000000 1.0
C      1  0.4876990000000  0.4933510000000  0.4047680000000 1.0
C      1  0.4885890000000  0.3882830000000  0.4772850000000 1.0
C      1  0.5466400000000  0.4662340000000  0.4792230000000 1.0
C      1  0.4466060000000  0.4945830000000  0.4983110000000 1.0
C      1  0.4844890000000  0.5210880000000  0.3918120000000 1.0
C      1  0.5041530000000  0.4390500000000  0.5302090000000 1.0
C      1  0.4459050000000  0.4552400000000  0.4399490000000 1.0
C      1  0.4418620000000  0.5485800000000  0.5650120000000 1.0
C      1  0.5069870000000  0.5823950000000  0.4112520000000 1.0
C      1  0.5811500000000  0.5682740000000  0.5078670000000 1.0
C      1  0.4771180000000  0.4662080000000  0.4008540000000 1.0
C      1  0.4549100000000  0.4135590000000  0.5042700000000 1.0
C      1  0.4063170000000  0.4807790000000  0.5208480000000 1.0
C      1  0.4798390000000  0.5604330000000  0.5079270000000 1.0
C      1  0.4061270000000  0.5227410000000  0.5400710000000 1.0
C      1  0.4573380000000  0.4709820000000  0.4614450000000 1.0
C      1  0.5497830000000  0.5084410000000  0.4590120000000 1.0
C      1  0.4232880000000  0.5105110000000  0.4916800000000 1.0
C      1  0.4602880000000  0.5391040000000  0.5140110000000 1.0
C      1  0.4550080000000  0.6094030000000  0.4710300000000 1.0
C      1  0.5582080000000  0.4346280000000  0.5448090000000 1.0
C      1  0.5269460000000  0.4870210000000  0.4669510000000 1.0
C      1  0.5540130000000  0.4605110000000  0.4537180000000 1.0
C      1  0.5124200000000  0.5997730000000  0.5222440000000 1.0
C      1  0.5297960000000  0.5715380000000  0.4247050000000 1.0
C      1  0.4118940000000  0.5077890000000  0.5645020000000 1.0
C      1  0.5154280000000  0.4839330000000  0.6118830000000 1.0
C      1  0.4672990000000  0.4461290000000  0.5853170000000 1.0
C      1  0.4023810000000  0.5064190000000  0.5160070000000 1.0
C      1  0.5138610000000  0.4145650000000  0.5125360000000 1.0
C      1  0.5056950000000  0.6000390000000  0.4694400000000 1.0
C      1  0.5924130000000  0.4468040000000  0.4777360000000 1.0
END
