TITL C-3909655-6256-12 10.7292871996976 125000 -29523.7017647116 0 0 194 (C1) n - 1
REM
REM in /home/nfs/bkarasulu/CARBON/AIRSS/Generating-Clusters/ReaxFF-fromJPCA2015/Units_Real/with-SteepDescent/Only-C1/SD-CG/Try1-3A/FIRE-CG
REM
REM
REM
REM
REM
REM ./C.cell (11c1c37f851c82e70ff6c80c92926a4b)
REM
REM compiler GCC version 9.2.1 20190827 (Red Hat 9.2.1-1)
REM options -cpp -mtune=generic -march=x86-64 -g -O0 -fpre-include=/usr/include/finclude/math-vector-fortran.h
REM seed -407890489 509504156 325920016 1585754874 814828560 1269370042 -2101709888 -2057872994 2045781017 -50049897 -184875137 1003459911 1141895309 980184374 444850314 -117461688 -479944855 1278960733 1882557720 -841286371 -1363850029 1293819951 81586620 -17080653 787471451 -1936998146 2084566023 -1234194661 1750146813 -640807706 1211892238 -1244779393 1442318224
REM
CELL 1.54180   50.00000   50.00000   50.00000   90.00000   90.00000   90.00000
LATT -1
SFAC C  
C      1  0.5187860000000  0.5112240000000  0.5510730000000 1.0
C      1  0.5954320000000  0.5340580000000  0.5380780000000 1.0
C      1  0.5361620000000  0.4605580000000  0.4105900000000 1.0
C      1  0.5087620000000  0.4581340000000  0.4752700000000 1.0
C      1  0.5220560000000  0.5465050000000  0.3962390000000 1.0
C      1  0.5427910000000  0.4534840000000  0.6055490000000 1.0
C      1  0.4027540000000  0.5127710000000  0.4351580000000 1.0
C      1  0.6080440000000  0.4882220000000  0.5214920000000 1.0
C      1  0.4781930000000  0.4885440000000  0.4441130000000 1.0
C      1  0.5161620000000  0.5456770000000  0.5969850000000 1.0
C      1  0.5178290000000  0.4173220000000  0.4273190000000 1.0
C      1  0.4747150000000  0.5973210000000  0.4580600000000 1.0
C      1  0.5189270000000  0.4438890000000  0.5916320000000 1.0
C      1  0.4858530000000  0.3808840000000  0.4782590000000 1.0
C      1  0.4758190000000  0.5191270000000  0.4289390000000 1.0
C      1  0.4950000000000  0.4490930000000  0.6078680000000 1.0
C      1  0.3903860000000  0.5195770000000  0.4859040000000 1.0
C      1  0.5652720000000  0.4552760000000  0.5872400000000 1.0
C      1  0.5188670000000  0.5945720000000  0.5641180000000 1.0
C      1  0.6071130000000  0.5247050000000  0.4894600000000 1.0
C      1  0.4957740000000  0.5573900000000  0.4000970000000 1.0
C      1  0.5271740000000  0.5053000000000  0.4193550000000 1.0
C      1  0.4239740000000  0.5827280000000  0.5060380000000 1.0
C      1  0.5384090000000  0.5029110000000  0.6149300000000 1.0
C      1  0.5798620000000  0.4197770000000  0.5081360000000 1.0
C      1  0.4479430000000  0.4378500000000  0.5854230000000 1.0
C      1  0.4981230000000  0.4330340000000  0.4646920000000 1.0
C      1  0.4699720000000  0.4940180000000  0.5152730000000 1.0
C      1  0.5728260000000  0.5967990000000  0.4907170000000 1.0
C      1  0.4556300000000  0.5405030000000  0.4391690000000 1.0
C      1  0.4858330000000  0.4314310000000  0.5070870000000 1.0
C      1  0.5016760000000  0.5631040000000  0.4339340000000 1.0
C      1  0.5985380000000  0.4768910000000  0.4438220000000 1.0
C      1  0.4472150000000  0.4766540000000  0.5109450000000 1.0
C      1  0.5002840000000  0.6040170000000  0.4660900000000 1.0
C      1  0.5564350000000  0.5974950000000  0.4632710000000 1.0
C      1  0.4938790000000  0.4784880000000  0.5237210000000 1.0
C      1  0.5168120000000  0.4648950000000  0.3846870000000 1.0
C      1  0.4454450000000  0.5967740000000  0.5217450000000 1.0
C      1  0.4485560000000  0.4926250000000  0.5584570000000 1.0
C      1  0.4928790000000  0.4145330000000  0.5718470000000 1.0
C      1  0.5397240000000  0.4346080000000  0.4245300000000 1.0
C      1  0.4328440000000  0.4447970000000  0.4261100000000 1.0
C      1  0.4223950000000  0.5035270000000  0.5663620000000 1.0
C      1  0.4378710000000  0.4219240000000  0.4416330000000 1.0
C      1  0.4470630000000  0.4688210000000  0.5389310000000 1.0
C      1  0.5631980000000  0.5695580000000  0.4575380000000 1.0
C      1  0.4421070000000  0.5670590000000  0.4366150000000 1.0
C      1  0.5640270000000  0.4968100000000  0.4695620000000 1.0
C      1  0.5479490000000  0.4175110000000  0.5542500000000 1.0
C      1  0.5922290000000  0.4458290000000  0.5151540000000 1.0
C      1  0.5028450000000  0.6109370000000  0.5458590000000 1.0
C      1  0.5888520000000  0.5543120000000  0.4518160000000 1.0
C      1  0.5259700000000  0.5216770000000  0.4427380000000 1.0
C      1  0.5732570000000  0.5489890000000  0.5258080000000 1.0
C      1  0.5334440000000  0.5697800000000  0.5529430000000 1.0
C      1  0.4337570000000  0.4423110000000  0.5454700000000 1.0
C      1  0.6019690000000  0.5069300000000  0.4424040000000 1.0
C      1  0.5538210000000  0.4189340000000  0.4611340000000 1.0
C      1  0.5126430000000  0.4089350000000  0.5064540000000 1.0
C      1  0.5159040000000  0.5212080000000  0.6128830000000 1.0
C      1  0.5255560000000  0.4806750000000  0.4311390000000 1.0
C      1  0.4002970000000  0.5114250000000  0.5123270000000 1.0
C      1  0.5452920000000  0.5604880000000  0.4767860000000 1.0
C      1  0.4557510000000  0.4559060000000  0.4087260000000 1.0
C      1  0.6044970000000  0.4683490000000  0.5000930000000 1.0
C      1  0.5024440000000  0.4746250000000  0.6214580000000 1.0
C      1  0.4121440000000  0.4360760000000  0.5079300000000 1.0
C      1  0.4780520000000  0.4344640000000  0.5895450000000 1.0
C      1  0.4465650000000  0.4954910000000  0.6197590000000 1.0
C      1  0.5068550000000  0.4837280000000  0.4552740000000 1.0
C      1  0.4138150000000  0.5608720000000  0.4389580000000 1.0
C      1  0.4657790000000  0.5901200000000  0.5023530000000 1.0
C      1  0.5653990000000  0.5379060000000  0.4141820000000 1.0
C      1  0.5598730000000  0.5959740000000  0.5176720000000 1.0
C      1  0.5010080000000  0.5329660000000  0.4352500000000 1.0
C      1  0.6104120000000  0.4773720000000  0.4722350000000 1.0
C      1  0.4914070000000  0.4597200000000  0.4991230000000 1.0
C      1  0.5207110000000  0.4128220000000  0.4588080000000 1.0
C      1  0.5360330000000  0.4262510000000  0.5154600000000 1.0
C      1  0.4360540000000  0.4785920000000  0.6079380000000 1.0
C      1  0.4106230000000  0.5379730000000  0.4204060000000 1.0
C      1  0.4403280000000  0.5497260000000  0.5768070000000 1.0
C      1  0.5277170000000  0.5165420000000  0.3909150000000 1.0
C      1  0.5160680000000  0.4558700000000  0.5643680000000 1.0
C      1  0.5741250000000  0.4832170000000  0.5882300000000 1.0
C      1  0.4613570000000  0.5355510000000  0.4867080000000 1.0
C      1  0.4911660000000  0.5621230000000  0.5947730000000 1.0
C      1  0.4700810000000  0.4629720000000  0.4329370000000 1.0
C      1  0.4477400000000  0.5883130000000  0.4562120000000 1.0
C      1  0.5398290000000  0.4756890000000  0.5266990000000 1.0
C      1  0.5665700000000  0.4188550000000  0.4839620000000 1.0
C      1  0.4713220000000  0.5461950000000  0.3947410000000 1.0
C      1  0.5646890000000  0.5289330000000  0.5069690000000 1.0
C      1  0.5672770000000  0.4926160000000  0.3986640000000 1.0
C      1  0.6172840000000  0.5054780000000  0.4674960000000 1.0
C      1  0.4285780000000  0.5229690000000  0.5130420000000 1.0
C      1  0.3989070000000  0.4742270000000  0.4594880000000 1.0
C      1  0.5073840000000  0.5568700000000  0.5378480000000 1.0
C      1  0.4853410000000  0.5453150000000  0.5515920000000 1.0
C      1  0.5402860000000  0.4537400000000  0.5099700000000 1.0
C      1  0.5084320000000  0.6128440000000  0.5172050000000 1.0
C      1  0.5295090000000  0.5790210000000  0.4905820000000 1.0
C      1  0.5975660000000  0.4779240000000  0.5467990000000 1.0
C      1  0.5593560000000  0.5178090000000  0.3934790000000 1.0
C      1  0.4257660000000  0.5837450000000  0.4770550000000 1.0
C      1  0.4694000000000  0.3824990000000  0.4527510000000 1.0
C      1  0.5862510000000  0.5250260000000  0.5646780000000 1.0
C      1  0.4804800000000  0.4458210000000  0.3960170000000 1.0
C      1  0.4275050000000  0.4600120000000  0.5884950000000 1.0
C      1  0.4588080000000  0.5221140000000  0.4009300000000 1.0
C      1  0.4354370000000  0.4975480000000  0.4686150000000 1.0
C      1  0.5340440000000  0.6040000000000  0.5060030000000 1.0
C      1  0.5861340000000  0.5313900000000  0.4341430000000 1.0
C      1  0.5579860000000  0.4113130000000  0.5275550000000 1.0
C      1  0.5170720000000  0.4086760000000  0.5565900000000 1.0
C      1  0.5632380000000  0.5384790000000  0.5754360000000 1.0
C      1  0.4641340000000  0.5533460000000  0.5903810000000 1.0
C      1  0.5202280000000  0.5135850000000  0.4986000000000 1.0
C      1  0.4927570000000  0.4267610000000  0.4159690000000 1.0
C      1  0.4547200000000  0.5570810000000  0.5499010000000 1.0
C      1  0.5663330000000  0.4394960000000  0.5623500000000 1.0
C      1  0.4060870000000  0.5603440000000  0.5155210000000 1.0
C      1  0.4925330000000  0.5612150000000  0.4628460000000 1.0
C      1  0.5685290000000  0.4670910000000  0.4055730000000 1.0
C      1  0.3974950000000  0.4673360000000  0.5452030000000 1.0
C      1  0.5362360000000  0.4594270000000  0.4841700000000 1.0
C      1  0.4777220000000  0.6015960000000  0.5605110000000 1.0
C      1  0.5385710000000  0.4721700000000  0.5550490000000 1.0
C      1  0.5535960000000  0.5027880000000  0.5914600000000 1.0
C      1  0.4061990000000  0.5651300000000  0.4672250000000 1.0
C      1  0.4058480000000  0.4638090000000  0.5018780000000 1.0
C      1  0.4632800000000  0.4879640000000  0.4694260000000 1.0
C      1  0.4887650000000  0.4727610000000  0.3864160000000 1.0
C      1  0.5614470000000  0.4448940000000  0.4462300000000 1.0
C      1  0.5383360000000  0.4987180000000  0.5670920000000 1.0
C      1  0.4070660000000  0.5474300000000  0.5420960000000 1.0
C      1  0.4057260000000  0.4402430000000  0.5360880000000 1.0
C      1  0.5390940000000  0.5519070000000  0.5792140000000 1.0
C      1  0.4920400000000  0.5190640000000  0.5605370000000 1.0
C      1  0.5569390000000  0.4686230000000  0.4667900000000 1.0
C      1  0.5427170000000  0.5574370000000  0.4135820000000 1.0
C      1  0.4674560000000  0.3846950000000  0.5019140000000 1.0
C      1  0.4556200000000  0.5881930000000  0.5477420000000 1.0
C      1  0.6100800000000  0.5173610000000  0.5191790000000 1.0
C      1  0.5288700000000  0.5762370000000  0.4324730000000 1.0
C      1  0.4710750000000  0.5025690000000  0.5739620000000 1.0
C      1  0.4955860000000  0.5881870000000  0.5806210000000 1.0
C      1  0.3955400000000  0.4835900000000  0.5211570000000 1.0
C      1  0.4630540000000  0.4328930000000  0.4864110000000 1.0
C      1  0.3967430000000  0.5478030000000  0.4894900000000 1.0
C      1  0.4776880000000  0.5062200000000  0.4887890000000 1.0
C      1  0.4448680000000  0.3986620000000  0.4575100000000 1.0
C      1  0.4942370000000  0.5021980000000  0.6172860000000 1.0
C      1  0.4783200000000  0.3882200000000  0.5285140000000 1.0
C      1  0.5047150000000  0.5042970000000  0.4772680000000 1.0
C      1  0.4652330000000  0.5567660000000  0.5078090000000 1.0
C      1  0.4931220000000  0.4575860000000  0.5465910000000 1.0
C      1  0.5052550000000  0.5644680000000  0.4875750000000 1.0
C      1  0.5580610000000  0.5727630000000  0.5347780000000 1.0
C      1  0.4948410000000  0.5567020000000  0.5129010000000 1.0
C      1  0.5411070000000  0.5321370000000  0.4893020000000 1.0
C      1  0.4681080000000  0.5058070000000  0.6035640000000 1.0
C      1  0.5287330000000  0.5964770000000  0.4531720000000 1.0
C      1  0.5111470000000  0.3942380000000  0.4801910000000 1.0
C      1  0.4207650000000  0.4740230000000  0.4791030000000 1.0
C      1  0.5314310000000  0.4755560000000  0.6214420000000 1.0
C      1  0.4896280000000  0.6060280000000  0.4955220000000 1.0
C      1  0.5919040000000  0.5765680000000  0.4877210000000 1.0
C      1  0.4158550000000  0.4679330000000  0.4357060000000 1.0
C      1  0.4801410000000  0.4345450000000  0.5361050000000 1.0
C      1  0.4703660000000  0.4088600000000  0.5515460000000 1.0
C      1  0.5430220000000  0.5164400000000  0.4647990000000 1.0
C      1  0.4634200000000  0.4628120000000  0.4879540000000 1.0
C      1  0.5060450000000  0.3944230000000  0.5331740000000 1.0
C      1  0.4440280000000  0.4211900000000  0.5626490000000 1.0
C      1  0.4368300000000  0.4235740000000  0.4963650000000 1.0
C      1  0.5831180000000  0.4578880000000  0.4287950000000 1.0
C      1  0.4339120000000  0.5353590000000  0.4035710000000 1.0
C      1  0.5904150000000  0.4956470000000  0.5685590000000 1.0
C      1  0.4702040000000  0.5474370000000  0.4634600000000 1.0
C      1  0.6039160000000  0.5544770000000  0.4769850000000 1.0
C      1  0.4176880000000  0.5331400000000  0.5656060000000 1.0
C      1  0.4444680000000  0.5446860000000  0.5246310000000 1.0
C      1  0.3911890000000  0.5034280000000  0.4603280000000 1.0
C      1  0.4102740000000  0.4768090000000  0.5699170000000 1.0
C      1  0.4257080000000  0.4951770000000  0.4365610000000 1.0
C      1  0.5206250000000  0.4983360000000  0.5237170000000 1.0
C      1  0.4369820000000  0.5211350000000  0.4862240000000 1.0
C      1  0.4434310000000  0.3964320000000  0.4886350000000 1.0
C      1  0.5110970000000  0.4917160000000  0.3790340000000 1.0
C      1  0.5858880000000  0.4515010000000  0.5430010000000 1.0
C      1  0.4831540000000  0.4382720000000  0.4408980000000 1.0
C      1  0.5790090000000  0.5104860000000  0.4915330000000 1.0
END
