TITL C-3909645-4886-10 0.969830439669606 125000 -17433.7161786324 0 0 116 (C1) n - 1
REM
REM in /home/nfs/bkarasulu/CARBON/AIRSS/Generating-Clusters/ReaxFF-fromJPCA2015/Units_Real/with-SteepDescent/Only-C1/SD-CG/Try1-3A/FIRE-CG
REM
REM
REM
REM
REM
REM ./C.cell (11c1c37f851c82e70ff6c80c92926a4b)
REM
REM compiler GCC version 9.2.1 20190827 (Red Hat 9.2.1-1)
REM options -cpp -mtune=generic -march=x86-64 -g -O0 -fpre-include=/usr/include/finclude/math-vector-fortran.h
REM seed 1912423446 -1152378434 1577993386 -3139162 -1066104607 -1991753430 -398488175 797666468 -20313675 1719026606 371946711 1271557522 -1031939966 -378447226 -517781581 960911605 1024429861 -2082954620 -1908126638 -148788945 471886762 -333608091 823999441 969473336 -119504529 -2062523687 -993407714 -1634659269 1386666210 -996200251 -776219157 752624900 -1233324578
REM
CELL 1.54180   50.00000   50.00000   50.00000   90.00000   90.00000   90.00000
LATT -1
SFAC C  
C      1  0.4151470000000  0.4989810000000  0.4549240000000 1.0
C      1  0.4290870000000  0.5092510000000  0.4309880000000 1.0
C      1  0.5099970000000  0.4183140000000  0.4619050000000 1.0
C      1  0.5834730000000  0.4745560000000  0.5391790000000 1.0
C      1  0.4614720000000  0.5522710000000  0.5611740000000 1.0
C      1  0.4642970000000  0.4655760000000  0.4182310000000 1.0
C      1  0.5063690000000  0.5633690000000  0.5608970000000 1.0
C      1  0.5836020000000  0.4462840000000  0.4643560000000 1.0
C      1  0.5390240000000  0.4179670000000  0.4693550000000 1.0
C      1  0.4684580000000  0.5727560000000  0.4620140000000 1.0
C      1  0.5975590000000  0.4859490000000  0.5198550000000 1.0
C      1  0.4331580000000  0.5661390000000  0.4816510000000 1.0
C      1  0.5274100000000  0.5342020000000  0.4817540000000 1.0
C      1  0.5339460000000  0.4934490000000  0.4117310000000 1.0
C      1  0.5102510000000  0.4175790000000  0.5316210000000 1.0
C      1  0.4208780000000  0.4723130000000  0.4727440000000 1.0
C      1  0.5006430000000  0.4767280000000  0.6039210000000 1.0
C      1  0.4500200000000  0.4737640000000  0.4857990000000 1.0
C      1  0.4730950000000  0.4710930000000  0.4646180000000 1.0
C      1  0.5524940000000  0.5276850000000  0.4284540000000 1.0
C      1  0.6048790000000  0.4905920000000  0.4932050000000 1.0
C      1  0.4532850000000  0.5838210000000  0.5130800000000 1.0
C      1  0.5654880000000  0.5265570000000  0.5638420000000 1.0
C      1  0.4535140000000  0.5154490000000  0.4688600000000 1.0
C      1  0.5615050000000  0.4862400000000  0.4764200000000 1.0
C      1  0.4638840000000  0.4143290000000  0.5150890000000 1.0
C      1  0.4381860000000  0.5470090000000  0.5448180000000 1.0
C      1  0.4997050000000  0.5336460000000  0.5659880000000 1.0
C      1  0.4997050000000  0.5270010000000  0.4344480000000 1.0
C      1  0.4728500000000  0.5320830000000  0.5795760000000 1.0
C      1  0.5774510000000  0.5226980000000  0.4390300000000 1.0
C      1  0.5390190000000  0.4220040000000  0.5231480000000 1.0
C      1  0.4024180000000  0.4667690000000  0.4978400000000 1.0
C      1  0.5726350000000  0.5597600000000  0.5025590000000 1.0
C      1  0.4931250000000  0.5164630000000  0.5375760000000 1.0
C      1  0.5348810000000  0.5703020000000  0.5544010000000 1.0
C      1  0.4106610000000  0.4447040000000  0.5128260000000 1.0
C      1  0.5067540000000  0.5200590000000  0.4666360000000 1.0
C      1  0.5006490000000  0.4346230000000  0.4392120000000 1.0
C      1  0.4882170000000  0.4541220000000  0.4995440000000 1.0
C      1  0.4696460000000  0.5483570000000  0.4385970000000 1.0
C      1  0.5140080000000  0.4728950000000  0.4075210000000 1.0
C      1  0.5888990000000  0.4766090000000  0.4675600000000 1.0
C      1  0.4952610000000  0.5049270000000  0.6148110000000 1.0
C      1  0.4745080000000  0.5412650000000  0.4992680000000 1.0
C      1  0.4283180000000  0.5195750000000  0.5416840000000 1.0
C      1  0.5276680000000  0.5217800000000  0.4177150000000 1.0
C      1  0.4450980000000  0.5338290000000  0.4304690000000 1.0
C      1  0.4037410000000  0.4845010000000  0.5214990000000 1.0
C      1  0.5206880000000  0.4477320000000  0.4223770000000 1.0
C      1  0.5394960000000  0.4198660000000  0.4958880000000 1.0
C      1  0.5165840000000  0.4802100000000  0.5266900000000 1.0
C      1  0.4580780000000  0.4826090000000  0.5095190000000 1.0
C      1  0.5635750000000  0.4611250000000  0.5534100000000 1.0
C      1  0.4318480000000  0.5669700000000  0.5237170000000 1.0
C      1  0.4802590000000  0.5854140000000  0.5229890000000 1.0
C      1  0.5905670000000  0.5419400000000  0.4849330000000 1.0
C      1  0.5184220000000  0.4903170000000  0.4741090000000 1.0
C      1  0.5236640000000  0.5211800000000  0.5821420000000 1.0
C      1  0.5192670000000  0.5189250000000  0.6096800000000 1.0
C      1  0.4505100000000  0.4253320000000  0.5380600000000 1.0
C      1  0.5998470000000  0.5170200000000  0.4943860000000 1.0
C      1  0.4698320000000  0.4910600000000  0.5338840000000 1.0
C      1  0.4230760000000  0.4727020000000  0.5406160000000 1.0
C      1  0.5484140000000  0.4494140000000  0.4300650000000 1.0
C      1  0.5336380000000  0.5738670000000  0.4446040000000 1.0
C      1  0.4828850000000  0.5331370000000  0.5191990000000 1.0
C      1  0.5427480000000  0.4852880000000  0.4580050000000 1.0
C      1  0.4924270000000  0.4632820000000  0.5276530000000 1.0
C      1  0.5391900000000  0.5060250000000  0.5614680000000 1.0
C      1  0.5521320000000  0.5749160000000  0.4895130000000 1.0
C      1  0.5444970000000  0.4913290000000  0.4976570000000 1.0
C      1  0.4703610000000  0.4557580000000  0.5753800000000 1.0
C      1  0.4266450000000  0.4428060000000  0.5355360000000 1.0
C      1  0.4917800000000  0.5859670000000  0.4717790000000 1.0
C      1  0.4706600000000  0.4331140000000  0.5591130000000 1.0
C      1  0.4145690000000  0.5581070000000  0.5011830000000 1.0
C      1  0.4891800000000  0.5064940000000  0.4187550000000 1.0
C      1  0.5578350000000  0.5418180000000  0.5203020000000 1.0
C      1  0.4084490000000  0.5137850000000  0.5210020000000 1.0
C      1  0.4966390000000  0.4387230000000  0.5459420000000 1.0
C      1  0.4975420000000  0.4701220000000  0.4786560000000 1.0
C      1  0.4699030000000  0.4319130000000  0.4902660000000 1.0
C      1  0.4721520000000  0.5081120000000  0.5960840000000 1.0
C      1  0.4645420000000  0.4954590000000  0.4524120000000 1.0
C      1  0.5203290000000  0.5081280000000  0.5332950000000 1.0
C      1  0.4499150000000  0.4320950000000  0.4596280000000 1.0
C      1  0.5752050000000  0.5422700000000  0.4600470000000 1.0
C      1  0.4719280000000  0.4774350000000  0.5923090000000 1.0
C      1  0.4575990000000  0.5677130000000  0.4868770000000 1.0
C      1  0.5368970000000  0.5229890000000  0.5071880000000 1.0
C      1  0.5874210000000  0.5232060000000  0.5772000000000 1.0
C      1  0.4736720000000  0.4472410000000  0.4394530000000 1.0
C      1  0.4915710000000  0.4116320000000  0.4836500000000 1.0
C      1  0.4092240000000  0.5296850000000  0.4966430000000 1.0
C      1  0.4237960000000  0.5202300000000  0.4721340000000 1.0
C      1  0.5603100000000  0.4344710000000  0.4523190000000 1.0
C      1  0.5233050000000  0.4736080000000  0.5879380000000 1.0
C      1  0.5541770000000  0.4792520000000  0.4300020000000 1.0
C      1  0.5293830000000  0.5887910000000  0.5041530000000 1.0
C      1  0.5568740000000  0.5508280000000  0.5477240000000 1.0
C      1  0.4855270000000  0.4818160000000  0.4055930000000 1.0
C      1  0.4918610000000  0.4041350000000  0.5126740000000 1.0
C      1  0.5143690000000  0.5817320000000  0.4532800000000 1.0
C      1  0.5275250000000  0.5834150000000  0.5311620000000 1.0
C      1  0.4235480000000  0.4456610000000  0.4583340000000 1.0
C      1  0.4425910000000  0.4939540000000  0.5466780000000 1.0
C      1  0.5444840000000  0.4778780000000  0.5710810000000 1.0
C      1  0.5534280000000  0.4479510000000  0.5292540000000 1.0
C      1  0.4468420000000  0.4848350000000  0.4314830000000 1.0
C      1  0.4815740000000  0.5714630000000  0.5493700000000 1.0
C      1  0.5846960000000  0.4914480000000  0.4383330000000 1.0
C      1  0.4994050000000  0.5882720000000  0.5003630000000 1.0
C      1  0.4779770000000  0.5209660000000  0.4806670000000 1.0
C      1  0.5397350000000  0.4695150000000  0.5145830000000 1.0
C      1  0.5465950000000  0.5553560000000  0.4672120000000 1.0
END
