TITL C-3909779-8285-23 72.1852300007791 125000 -21584.8072393671 0 0 146 (C1) n - 1
REM
REM in /home/nfs/bkarasulu/CARBON/AIRSS/Generating-Clusters/ReaxFF-fromJPCA2015/Units_Real/with-SteepDescent/Only-C1/SD-CG/Try1-3A/FIRE-CG
REM
REM
REM
REM
REM
REM ./C.cell (11c1c37f851c82e70ff6c80c92926a4b)
REM
REM compiler GCC version 9.2.1 20190827 (Red Hat 9.2.1-1)
REM options -cpp -mtune=generic -march=x86-64 -g -O0 -fpre-include=/usr/include/finclude/math-vector-fortran.h
REM seed 176767438 -1239405297 -644296471 -187686390 -1044575651 722639973 846245734 -261901317 2102073091 2146063561 1590573676 1526796250 -1273694237 -1661745259 -1152965917 1404725511 2078076825 -1853345199 1107092688 172780907 393113436 -1030162114 1840410855 -703035178 783593455 1874362439 -1659484670 -1783060895 1068538848 -986192296 943619293 2033356710 361438039
REM
CELL 1.54180   50.00000   50.00000   50.00000   90.00000   90.00000   90.00000
LATT -1
SFAC C  
C      1  0.5268250000000  0.4377360000000  0.4340100000000 1.0
C      1  0.5050570000000  0.5732580000000  0.4313450000000 1.0
C      1  0.5509210000000  0.4878230000000  0.5895970000000 1.0
C      1  0.4410650000000  0.5804110000000  0.4657500000000 1.0
C      1  0.4064530000000  0.5315800000000  0.4475460000000 1.0
C      1  0.4813400000000  0.4506410000000  0.4332880000000 1.0
C      1  0.5418620000000  0.4190310000000  0.4779850000000 1.0
C      1  0.5610800000000  0.4772680000000  0.4062040000000 1.0
C      1  0.4572730000000  0.4651060000000  0.5207060000000 1.0
C      1  0.4567340000000  0.5521170000000  0.5171690000000 1.0
C      1  0.5620250000000  0.5451820000000  0.4541710000000 1.0
C      1  0.4997760000000  0.4282030000000  0.4371250000000 1.0
C      1  0.4347410000000  0.4634090000000  0.5707910000000 1.0
C      1  0.5534380000000  0.5193350000000  0.5038460000000 1.0
C      1  0.4946900000000  0.5359190000000  0.4564700000000 1.0
C      1  0.5145660000000  0.5191510000000  0.6034770000000 1.0
C      1  0.5383190000000  0.5105740000000  0.4606670000000 1.0
C      1  0.4356870000000  0.4720860000000  0.5014650000000 1.0
C      1  0.5015260000000  0.4720280000000  0.3999880000000 1.0
C      1  0.4348610000000  0.4217450000000  0.5119020000000 1.0
C      1  0.4960640000000  0.4608130000000  0.4849510000000 1.0
C      1  0.4616810000000  0.5048040000000  0.6036500000000 1.0
C      1  0.4072500000000  0.5000750000000  0.5549540000000 1.0
C      1  0.5220490000000  0.5020010000000  0.5346860000000 1.0
C      1  0.4505290000000  0.5818430000000  0.5208680000000 1.0
C      1  0.4469330000000  0.5375840000000  0.5663840000000 1.0
C      1  0.4726670000000  0.4323840000000  0.5804120000000 1.0
C      1  0.4521510000000  0.5111060000000  0.5211270000000 1.0
C      1  0.5976670000000  0.5410280000000  0.4824310000000 1.0
C      1  0.4529960000000  0.5181440000000  0.4938190000000 1.0
C      1  0.3964490000000  0.5411610000000  0.4714820000000 1.0
C      1  0.5055870000000  0.4155800000000  0.5500390000000 1.0
C      1  0.5944060000000  0.4765030000000  0.5378820000000 1.0
C      1  0.4978340000000  0.4396020000000  0.5934210000000 1.0
C      1  0.5152410000000  0.4341860000000  0.5710460000000 1.0
C      1  0.5504640000000  0.5570260000000  0.4282120000000 1.0
C      1  0.4807570000000  0.4186430000000  0.4978490000000 1.0
C      1  0.5820970000000  0.4441890000000  0.4953240000000 1.0
C      1  0.4542490000000  0.4548610000000  0.5890080000000 1.0
C      1  0.5302770000000  0.4050380000000  0.5008380000000 1.0
C      1  0.4154220000000  0.4388490000000  0.5249360000000 1.0
C      1  0.4206850000000  0.4468700000000  0.4665020000000 1.0
C      1  0.5055750000000  0.4585950000000  0.5264410000000 1.0
C      1  0.5008890000000  0.3974830000000  0.4927620000000 1.0
C      1  0.4401370000000  0.5346040000000  0.5366000000000 1.0
C      1  0.4641130000000  0.5006370000000  0.4726920000000 1.0
C      1  0.4515170000000  0.4221040000000  0.5376660000000 1.0
C      1  0.3930090000000  0.4910620000000  0.4829030000000 1.0
C      1  0.6122780000000  0.4866620000000  0.5178160000000 1.0
C      1  0.3987620000000  0.4631720000000  0.4807030000000 1.0
C      1  0.4372550000000  0.4275490000000  0.4825110000000 1.0
C      1  0.5366730000000  0.4830160000000  0.4220280000000 1.0
C      1  0.4988760000000  0.4830600000000  0.5758910000000 1.0
C      1  0.4973140000000  0.5008000000000  0.4043550000000 1.0
C      1  0.3903280000000  0.5288570000000  0.5175530000000 1.0
C      1  0.4111080000000  0.5477620000000  0.5261090000000 1.0
C      1  0.5642090000000  0.5707050000000  0.4721660000000 1.0
C      1  0.5796910000000  0.4553310000000  0.5232010000000 1.0
C      1  0.5624150000000  0.5022720000000  0.3916120000000 1.0
C      1  0.5244780000000  0.4582480000000  0.4858310000000 1.0
C      1  0.5026770000000  0.5913900000000  0.5058270000000 1.0
C      1  0.4329080000000  0.4854080000000  0.4257660000000 1.0
C      1  0.5136010000000  0.5166680000000  0.4663450000000 1.0
C      1  0.4898670000000  0.5100360000000  0.5719560000000 1.0
C      1  0.4760380000000  0.4579740000000  0.4046730000000 1.0
C      1  0.5526390000000  0.4638950000000  0.5258800000000 1.0
C      1  0.5512740000000  0.4773020000000  0.4444880000000 1.0
C      1  0.4375680000000  0.4484630000000  0.5441020000000 1.0
C      1  0.4995280000000  0.4873000000000  0.5274670000000 1.0
C      1  0.5435050000000  0.5689210000000  0.5171170000000 1.0
C      1  0.4750160000000  0.4192200000000  0.5542780000000 1.0
C      1  0.5165590000000  0.4625850000000  0.5601080000000 1.0
C      1  0.6015980000000  0.5128130000000  0.5210740000000 1.0
C      1  0.5039080000000  0.5436600000000  0.5046060000000 1.0
C      1  0.5419830000000  0.4774510000000  0.5642290000000 1.0
C      1  0.5224580000000  0.5298780000000  0.5402550000000 1.0
C      1  0.5344900000000  0.5369180000000  0.4639960000000 1.0
C      1  0.4432580000000  0.5143540000000  0.5829000000000 1.0
C      1  0.4826070000000  0.4080060000000  0.4518680000000 1.0
C      1  0.5806960000000  0.4819770000000  0.5876680000000 1.0
C      1  0.4633900000000  0.5634710000000  0.5681530000000 1.0
C      1  0.4856870000000  0.5287750000000  0.4046410000000 1.0
C      1  0.5335630000000  0.5417080000000  0.4103790000000 1.0
C      1  0.3883540000000  0.5185070000000  0.4887230000000 1.0
C      1  0.6164050000000  0.4950420000000  0.4890530000000 1.0
C      1  0.5138250000000  0.5902950000000  0.4775420000000 1.0
C      1  0.6144240000000  0.5227750000000  0.4981940000000 1.0
C      1  0.4895710000000  0.5438210000000  0.4825500000000 1.0
C      1  0.4932800000000  0.5598340000000  0.5649930000000 1.0
C      1  0.5423430000000  0.5139260000000  0.4038640000000 1.0
C      1  0.5773800000000  0.4803460000000  0.4330960000000 1.0
C      1  0.5246150000000  0.4593570000000  0.4133900000000 1.0
C      1  0.5479550000000  0.4316920000000  0.4551830000000 1.0
C      1  0.4914610000000  0.4749650000000  0.4466010000000 1.0
C      1  0.5874070000000  0.5238070000000  0.4628350000000 1.0
C      1  0.4937650000000  0.4682460000000  0.6003230000000 1.0
C      1  0.5053630000000  0.5492500000000  0.4136160000000 1.0
C      1  0.4677620000000  0.5876540000000  0.4727590000000 1.0
C      1  0.5176390000000  0.5730250000000  0.5561940000000 1.0
C      1  0.4744960000000  0.5911810000000  0.5013770000000 1.0
C      1  0.4705120000000  0.4902680000000  0.5291460000000 1.0
C      1  0.5738650000000  0.5154150000000  0.5230130000000 1.0
C      1  0.5346330000000  0.5493610000000  0.5610860000000 1.0
C      1  0.4738590000000  0.5190030000000  0.4453240000000 1.0
C      1  0.4943430000000  0.5340540000000  0.5493180000000 1.0
C      1  0.5297480000000  0.4529440000000  0.5130680000000 1.0
C      1  0.4896680000000  0.4860520000000  0.4732830000000 1.0
C      1  0.5970230000000  0.4959230000000  0.4667370000000 1.0
C      1  0.4634200000000  0.4162450000000  0.4751850000000 1.0
C      1  0.5333400000000  0.5402650000000  0.5112720000000 1.0
C      1  0.5805580000000  0.5639960000000  0.4949150000000 1.0
C      1  0.5205000000000  0.4107700000000  0.5266470000000 1.0
C      1  0.5419140000000  0.5156740000000  0.5982150000000 1.0
C      1  0.5485800000000  0.4903900000000  0.5385130000000 1.0
C      1  0.5535810000000  0.5347460000000  0.5779380000000 1.0
C      1  0.5335740000000  0.5788760000000  0.4376980000000 1.0
C      1  0.5407380000000  0.5866410000000  0.4658380000000 1.0
C      1  0.4426700000000  0.4810820000000  0.4742860000000 1.0
C      1  0.4545860000000  0.5853260000000  0.5515720000000 1.0
C      1  0.4355440000000  0.5162800000000  0.4248630000000 1.0
C      1  0.5862740000000  0.4947570000000  0.5612650000000 1.0
C      1  0.4346160000000  0.4672380000000  0.4504130000000 1.0
C      1  0.4612280000000  0.5291380000000  0.4206130000000 1.0
C      1  0.5897160000000  0.4682950000000  0.4557380000000 1.0
C      1  0.5777790000000  0.5390840000000  0.5384470000000 1.0
C      1  0.4310140000000  0.5315090000000  0.4503210000000 1.0
C      1  0.5760360000000  0.5240140000000  0.5629110000000 1.0
C      1  0.5517210000000  0.5005280000000  0.4825150000000 1.0
C      1  0.4869270000000  0.5212200000000  0.5995510000000 1.0
C      1  0.5753360000000  0.4445590000000  0.4674610000000 1.0
C      1  0.4209220000000  0.5618540000000  0.4832310000000 1.0
C      1  0.4517590000000  0.4708700000000  0.4116970000000 1.0
C      1  0.4965960000000  0.3886810000000  0.4660200000000 1.0
C      1  0.5451490000000  0.4742170000000  0.4726980000000 1.0
C      1  0.3951870000000  0.5112050000000  0.5382860000000 1.0
C      1  0.4662570000000  0.4759300000000  0.6059750000000 1.0
C      1  0.4427180000000  0.5411370000000  0.4804710000000 1.0
C      1  0.4253180000000  0.4910860000000  0.5734940000000 1.0
C      1  0.4087910000000  0.4625240000000  0.5087880000000 1.0
C      1  0.4205450000000  0.5705700000000  0.5121880000000 1.0
C      1  0.5210380000000  0.5838240000000  0.5282610000000 1.0
C      1  0.5714930000000  0.5638540000000  0.5227860000000 1.0
C      1  0.4831710000000  0.4474470000000  0.5086290000000 1.0
C      1  0.4885590000000  0.4984760000000  0.4309840000000 1.0
C      1  0.4950950000000  0.5841800000000  0.4565870000000 1.0
C      1  0.4829130000000  0.5417850000000  0.5225210000000 1.0
END
