TITL C-3909647-4341-11 14.3747000521352 125000 -17492.9224358132 0 0 119 (C1) n - 1
REM
REM in /home/nfs/bkarasulu/CARBON/AIRSS/Generating-Clusters/ReaxFF-fromJPCA2015/Units_Real/with-SteepDescent/Only-C1/SD-CG/Try1-3A/FIRE-CG
REM
REM
REM
REM
REM
REM ./C.cell (11c1c37f851c82e70ff6c80c92926a4b)
REM
REM compiler GCC version 9.2.1 20190827 (Red Hat 9.2.1-1)
REM options -cpp -mtune=generic -march=x86-64 -g -O0 -fpre-include=/usr/include/finclude/math-vector-fortran.h
REM seed -740314354 -143677597 -1142954045 2143115940 -939036870 1128553373 -214840431 -582077374 52394436 -2042557843 1671874104 -475664220 -500865419 -25047043 -1329930797 671749303 -1135904828 -1998515225 1661699688 1668293467 1489219630 1278986275 1420208038 -1970259461 -881426064 906560290 -1470173790 1114731741 833673169 730880688 758613108 1238945068 -1595068402
REM
CELL 1.54180   50.00000   50.00000   50.00000   90.00000   90.00000   90.00000
LATT -1
SFAC C  
C      1  0.4860280000000  0.4276110000000  0.5291030000000 1.0
C      1  0.5613320000000  0.4038890000000  0.5243810000000 1.0
C      1  0.4322710000000  0.5048750000000  0.4987720000000 1.0
C      1  0.5464240000000  0.4416140000000  0.5874770000000 1.0
C      1  0.4428800000000  0.4585170000000  0.5611720000000 1.0
C      1  0.4915040000000  0.4698370000000  0.4194560000000 1.0
C      1  0.6059390000000  0.5048640000000  0.5089410000000 1.0
C      1  0.4356800000000  0.5104000000000  0.5664380000000 1.0
C      1  0.4469440000000  0.4848570000000  0.5707870000000 1.0
C      1  0.4944580000000  0.5362280000000  0.5783490000000 1.0
C      1  0.5838520000000  0.5290580000000  0.4699930000000 1.0
C      1  0.4769910000000  0.4527320000000  0.5162530000000 1.0
C      1  0.5840960000000  0.4670400000000  0.5322050000000 1.0
C      1  0.3943850000000  0.4797780000000  0.4599080000000 1.0
C      1  0.4395600000000  0.5820730000000  0.4609970000000 1.0
C      1  0.5576770000000  0.5503890000000  0.5407710000000 1.0
C      1  0.4425260000000  0.5375770000000  0.5636230000000 1.0
C      1  0.5558170000000  0.5687640000000  0.4813950000000 1.0
C      1  0.4306090000000  0.4414770000000  0.4494550000000 1.0
C      1  0.5793710000000  0.5464560000000  0.5188420000000 1.0
C      1  0.4867140000000  0.4410140000000  0.5692290000000 1.0
C      1  0.5314970000000  0.5685190000000  0.5552140000000 1.0
C      1  0.4462970000000  0.5263640000000  0.4860630000000 1.0
C      1  0.4170230000000  0.5407140000000  0.4493130000000 1.0
C      1  0.5766320000000  0.5265370000000  0.4419880000000 1.0
C      1  0.4981680000000  0.4792090000000  0.4861000000000 1.0
C      1  0.4404550000000  0.4912160000000  0.4530140000000 1.0
C      1  0.4287710000000  0.4810580000000  0.4140950000000 1.0
C      1  0.5608850000000  0.5944180000000  0.4612830000000 1.0
C      1  0.4098020000000  0.4592900000000  0.5197340000000 1.0
C      1  0.5371160000000  0.4900650000000  0.4267460000000 1.0
C      1  0.5989650000000  0.5062900000000  0.4803940000000 1.0
C      1  0.4321390000000  0.4379840000000  0.5193260000000 1.0
C      1  0.5099830000000  0.5832600000000  0.5438530000000 1.0
C      1  0.4851840000000  0.4314520000000  0.4498130000000 1.0
C      1  0.4771190000000  0.5212400000000  0.4814870000000 1.0
C      1  0.4489360000000  0.5283490000000  0.4069360000000 1.0
C      1  0.5220560000000  0.4792230000000  0.5325780000000 1.0
C      1  0.5407860000000  0.4135640000000  0.5470070000000 1.0
C      1  0.5222070000000  0.5517660000000  0.5769870000000 1.0
C      1  0.5385710000000  0.4585500000000  0.5199540000000 1.0
C      1  0.4123550000000  0.5103000000000  0.5176930000000 1.0
C      1  0.4670150000000  0.5890650000000  0.4722640000000 1.0
C      1  0.5001200000000  0.4609730000000  0.5792620000000 1.0
C      1  0.4740580000000  0.4968200000000  0.5594430000000 1.0
C      1  0.4333050000000  0.5187150000000  0.4604410000000 1.0
C      1  0.4638820000000  0.5763300000000  0.4460150000000 1.0
C      1  0.5459210000000  0.5795240000000  0.4431750000000 1.0
C      1  0.5330990000000  0.4609630000000  0.4382030000000 1.0
C      1  0.4209300000000  0.4698370000000  0.4428090000000 1.0
C      1  0.4720630000000  0.5482850000000  0.5658530000000 1.0
C      1  0.5678090000000  0.4891400000000  0.5504620000000 1.0
C      1  0.5871690000000  0.5033610000000  0.4253340000000 1.0
C      1  0.4442360000000  0.4339480000000  0.5505000000000 1.0
C      1  0.4218020000000  0.4262620000000  0.4703470000000 1.0
C      1  0.5012760000000  0.4101250000000  0.4625020000000 1.0
C      1  0.5389100000000  0.5281820000000  0.5296750000000 1.0
C      1  0.5997870000000  0.4757600000000  0.5095320000000 1.0
C      1  0.5584320000000  0.5114220000000  0.4246580000000 1.0
C      1  0.4436830000000  0.4788250000000  0.4926920000000 1.0
C      1  0.4794350000000  0.4891440000000  0.4038810000000 1.0
C      1  0.5775920000000  0.4424890000000  0.5217610000000 1.0
C      1  0.5217970000000  0.5348290000000  0.4646390000000 1.0
C      1  0.5881640000000  0.4794210000000  0.4391130000000 1.0
C      1  0.4495070000000  0.4972640000000  0.4033870000000 1.0
C      1  0.5393020000000  0.4929470000000  0.5914890000000 1.0
C      1  0.5474680000000  0.5402930000000  0.5800530000000 1.0
C      1  0.4781780000000  0.4995430000000  0.5304700000000 1.0
C      1  0.5425410000000  0.4596080000000  0.4915480000000 1.0
C      1  0.4936880000000  0.5071950000000  0.5787170000000 1.0
C      1  0.5034870000000  0.6125930000000  0.5026220000000 1.0
C      1  0.4294860000000  0.5380570000000  0.4247350000000 1.0
C      1  0.5440470000000  0.4223370000000  0.5748150000000 1.0
C      1  0.4069360000000  0.5399340000000  0.5194720000000 1.0
C      1  0.4800200000000  0.5521670000000  0.4389460000000 1.0
C      1  0.5286190000000  0.5084140000000  0.4711460000000 1.0
C      1  0.5049090000000  0.4525110000000  0.4344870000000 1.0
C      1  0.5402280000000  0.5005790000000  0.5361320000000 1.0
C      1  0.4584960000000  0.5695330000000  0.5222260000000 1.0
C      1  0.4818280000000  0.5220730000000  0.5136750000000 1.0
C      1  0.5637650000000  0.4870410000000  0.5792030000000 1.0
C      1  0.5842820000000  0.5130490000000  0.5540670000000 1.0
C      1  0.4175510000000  0.5644130000000  0.4690960000000 1.0
C      1  0.5267540000000  0.4814630000000  0.4782070000000 1.0
C      1  0.5030200000000  0.4213240000000  0.5076990000000 1.0
C      1  0.4944810000000  0.5466060000000  0.5214970000000 1.0
C      1  0.5924030000000  0.4772570000000  0.4802090000000 1.0
C      1  0.4815290000000  0.5659740000000  0.5435020000000 1.0
C      1  0.4941560000000  0.5155270000000  0.4050010000000 1.0
C      1  0.5341630000000  0.4392410000000  0.5399890000000 1.0
C      1  0.4947090000000  0.4772100000000  0.5157070000000 1.0
C      1  0.4496380000000  0.4308810000000  0.4679880000000 1.0
C      1  0.4708980000000  0.4230390000000  0.5553930000000 1.0
C      1  0.4370550000000  0.4229060000000  0.4923290000000 1.0
C      1  0.5942760000000  0.5237000000000  0.5284430000000 1.0
C      1  0.4823780000000  0.4947000000000  0.4721760000000 1.0
C      1  0.5179920000000  0.5051970000000  0.4154200000000 1.0
C      1  0.4501070000000  0.4596850000000  0.5136450000000 1.0
C      1  0.5770650000000  0.5503760000000  0.4901580000000 1.0
C      1  0.5125800000000  0.4853170000000  0.5875610000000 1.0
C      1  0.4614120000000  0.4792600000000  0.4690830000000 1.0
C      1  0.4865020000000  0.6031110000000  0.4875850000000 1.0
C      1  0.5305870000000  0.5555420000000  0.4857090000000 1.0
C      1  0.5533790000000  0.4474940000000  0.4538440000000 1.0
C      1  0.5675360000000  0.4231880000000  0.5037050000000 1.0
C      1  0.5192520000000  0.4169390000000  0.4858150000000 1.0
C      1  0.5091880000000  0.6008560000000  0.5224710000000 1.0
C      1  0.3970770000000  0.4842960000000  0.5141570000000 1.0
C      1  0.4154270000000  0.5595870000000  0.4979080000000 1.0
C      1  0.5708510000000  0.5367100000000  0.5653180000000 1.0
C      1  0.5222620000000  0.5451350000000  0.5119940000000 1.0
C      1  0.5460510000000  0.4337950000000  0.4809240000000 1.0
C      1  0.4926460000000  0.5388940000000  0.4614920000000 1.0
C      1  0.4759900000000  0.5371800000000  0.4138810000000 1.0
C      1  0.3978290000000  0.4891630000000  0.4853930000000 1.0
C      1  0.4216980000000  0.5413310000000  0.5436200000000 1.0
C      1  0.4445930000000  0.5574270000000  0.5010600000000 1.0
C      1  0.5487650000000  0.4679440000000  0.5976230000000 1.0
C      1  0.5809190000000  0.4603500000000  0.4575270000000 1.0
END
