TITL C-3909779-8285-3 -11.3975590414748 125000 -11464.4978385589 0 0 78 (C1) n - 1
REM
REM in /home/nfs/bkarasulu/CARBON/AIRSS/Generating-Clusters/ReaxFF-fromJPCA2015/Units_Real/with-SteepDescent/Only-C1/SD-CG/Try1-3A/FIRE-CG
REM
REM
REM
REM
REM
REM ./C.cell (11c1c37f851c82e70ff6c80c92926a4b)
REM
REM compiler GCC version 9.2.1 20190827 (Red Hat 9.2.1-1)
REM options -cpp -mtune=generic -march=x86-64 -g -O0 -fpre-include=/usr/include/finclude/math-vector-fortran.h
REM seed 1400238760 1843137662 1811771805 -1087709809 -1163040580 -1277734974 1391950146 738355375 1143491531 -1524544971 580495536 1676635328 -255752625 435036143 -761628193 350623143 359360301 2097396408 1759117595 1260417306 -1263599938 1044284406 -1641691040 473748699 1224365526 1251321589 -1531448994 -903079892 -610005808 204004675 452669090 -688926887 1700070244
REM
CELL 1.54180   50.00000   50.00000   50.00000   90.00000   90.00000   90.00000
LATT -1
SFAC C  
C      1  0.5027000000000  0.4408650000000  0.5111560000000 1.0
C      1  0.4481730000000  0.4811730000000  0.5078670000000 1.0
C      1  0.4874570000000  0.4983170000000  0.4824260000000 1.0
C      1  0.5756720000000  0.4878290000000  0.4930910000000 1.0
C      1  0.5047510000000  0.5045310000000  0.4592590000000 1.0
C      1  0.5761210000000  0.5161180000000  0.4840210000000 1.0
C      1  0.4174540000000  0.4924610000000  0.5327160000000 1.0
C      1  0.5261490000000  0.5624660000000  0.5511560000000 1.0
C      1  0.5458750000000  0.5601210000000  0.5023910000000 1.0
C      1  0.5719100000000  0.4892090000000  0.5225730000000 1.0
C      1  0.5208430000000  0.5231710000000  0.5732420000000 1.0
C      1  0.4400810000000  0.4713040000000  0.5358900000000 1.0
C      1  0.5462560000000  0.4855620000000  0.5302600000000 1.0
C      1  0.4306160000000  0.5165800000000  0.5421310000000 1.0
C      1  0.4547500000000  0.4790270000000  0.5600500000000 1.0
C      1  0.4406490000000  0.4418540000000  0.5208790000000 1.0
C      1  0.4654650000000  0.5614890000000  0.4500080000000 1.0
C      1  0.5166170000000  0.4212530000000  0.4579870000000 1.0
C      1  0.4683950000000  0.4774010000000  0.4882040000000 1.0
C      1  0.5012010000000  0.5069770000000  0.4303790000000 1.0
C      1  0.4482430000000  0.5535960000000  0.4725000000000 1.0
C      1  0.5429170000000  0.5422650000000  0.5660720000000 1.0
C      1  0.4785100000000  0.4663020000000  0.4318830000000 1.0
C      1  0.4976820000000  0.5581590000000  0.5573000000000 1.0
C      1  0.5570570000000  0.5321810000000  0.5037610000000 1.0
C      1  0.4809630000000  0.4830030000000  0.5722830000000 1.0
C      1  0.5395460000000  0.4197480000000  0.4746150000000 1.0
C      1  0.5392880000000  0.5680730000000  0.4750270000000 1.0
C      1  0.5307130000000  0.4670210000000  0.4290280000000 1.0
C      1  0.4708190000000  0.4442870000000  0.4494790000000 1.0
C      1  0.5629360000000  0.4680870000000  0.4746650000000 1.0
C      1  0.4661490000000  0.5738450000000  0.5137120000000 1.0
C      1  0.4665070000000  0.4273810000000  0.5246770000000 1.0
C      1  0.5296610000000  0.4556990000000  0.5636640000000 1.0
C      1  0.4477760000000  0.5289590000000  0.5204440000000 1.0
C      1  0.5042330000000  0.4530370000000  0.4265070000000 1.0
C      1  0.4640860000000  0.4471640000000  0.4789410000000 1.0
C      1  0.4868380000000  0.5905660000000  0.4982420000000 1.0
C      1  0.4748480000000  0.4955130000000  0.4294000000000 1.0
C      1  0.5313420000000  0.5727580000000  0.5242610000000 1.0
C      1  0.5469220000000  0.4675180000000  0.5469690000000 1.0
C      1  0.4501330000000  0.5526700000000  0.5014610000000 1.0
C      1  0.5356940000000  0.5449950000000  0.4574250000000 1.0
C      1  0.5325990000000  0.4838580000000  0.5048290000000 1.0
C      1  0.4937390000000  0.5572030000000  0.4416250000000 1.0
C      1  0.4477110000000  0.5063780000000  0.5640380000000 1.0
C      1  0.4999920000000  0.4236480000000  0.5479760000000 1.0
C      1  0.5186740000000  0.5022390000000  0.5526920000000 1.0
C      1  0.4793200000000  0.4287870000000  0.4979090000000 1.0
C      1  0.4953430000000  0.4289590000000  0.4416300000000 1.0
C      1  0.5269060000000  0.5190570000000  0.4680240000000 1.0
C      1  0.5567650000000  0.4712580000000  0.4459540000000 1.0
C      1  0.5297880000000  0.5126040000000  0.4954930000000 1.0
C      1  0.4315500000000  0.5024270000000  0.4567520000000 1.0
C      1  0.4347380000000  0.4396280000000  0.4935580000000 1.0
C      1  0.5221150000000  0.4241170000000  0.5651780000000 1.0
C      1  0.5590410000000  0.4987440000000  0.4339740000000 1.0
C      1  0.5446650000000  0.4485730000000  0.4870340000000 1.0
C      1  0.4869790000000  0.4445830000000  0.5345860000000 1.0
C      1  0.5054920000000  0.5880970000000  0.5220860000000 1.0
C      1  0.4838060000000  0.5751140000000  0.5379860000000 1.0
C      1  0.5312940000000  0.4943680000000  0.4229080000000 1.0
C      1  0.4232190000000  0.4955240000000  0.4775100000000 1.0
C      1  0.4951430000000  0.5315890000000  0.4302680000000 1.0
C      1  0.5205440000000  0.4590360000000  0.4973400000000 1.0
C      1  0.5091010000000  0.4765500000000  0.5639710000000 1.0
C      1  0.5733730000000  0.5198510000000  0.5270890000000 1.0
C      1  0.4707630000000  0.5176980000000  0.5300370000000 1.0
C      1  0.5612270000000  0.5307960000000  0.5488670000000 1.0
C      1  0.4743530000000  0.5120330000000  0.5760680000000 1.0
C      1  0.4937910000000  0.5341020000000  0.5744540000000 1.0
C      1  0.4970580000000  0.5118360000000  0.5306470000000 1.0
C      1  0.5696160000000  0.5104380000000  0.4575880000000 1.0
C      1  0.5011190000000  0.5152120000000  0.5023280000000 1.0
C      1  0.4468320000000  0.5393880000000  0.4458340000000 1.0
C      1  0.5185670000000  0.5680340000000  0.4536960000000 1.0
C      1  0.4509980000000  0.5107740000000  0.4383040000000 1.0
C      1  0.4197820000000  0.4869610000000  0.5037670000000 1.0
END
