TITL C-3909785-6464-25 10.6955766329196 125000 -16654.8732033887 0 0 110 (C1) n - 1
REM
REM in /home/nfs/bkarasulu/CARBON/AIRSS/Generating-Clusters/ReaxFF-fromJPCA2015/Units_Real/with-SteepDescent/Only-C1/SD-CG/Try1-3A/FIRE-CG
REM
REM
REM
REM
REM
REM ./C.cell (11c1c37f851c82e70ff6c80c92926a4b)
REM
REM compiler GCC version 9.2.1 20190827 (Red Hat 9.2.1-1)
REM options -cpp -mtune=generic -march=x86-64 -g -O0 -fpre-include=/usr/include/finclude/math-vector-fortran.h
REM seed 910945667 -1042632756 1148078787 1894288685 1769025703 -688530307 1963627976 2041876484 501025553 -614455975 526833532 1516902969 -418905825 -1393595473 -1898930179 -598752037 1213427901 -246131097 37288985 2137172860 -300525224 719065387 -1522176806 1852087641 -1430000166 336392614 -990714172 -39115448 -1543682125 -780949596 524007204 2066400289 -798540029
REM
CELL 1.54180   50.00000   50.00000   50.00000   90.00000   90.00000   90.00000
LATT -1
SFAC C  
C      1  0.5271000000000  0.4148320000000  0.5060210000000 1.0
C      1  0.4184910000000  0.4852320000000  0.4699910000000 1.0
C      1  0.5414070000000  0.4894690000000  0.5346720000000 1.0
C      1  0.4358900000000  0.5285160000000  0.5581150000000 1.0
C      1  0.5737640000000  0.5497670000000  0.5166920000000 1.0
C      1  0.4608570000000  0.4755840000000  0.4965200000000 1.0
C      1  0.5786770000000  0.5166750000000  0.5191580000000 1.0
C      1  0.5020300000000  0.5503050000000  0.4872890000000 1.0
C      1  0.4913660000000  0.4860190000000  0.5404900000000 1.0
C      1  0.5915040000000  0.5085630000000  0.4930150000000 1.0
C      1  0.5445600000000  0.4185820000000  0.4830070000000 1.0
C      1  0.4867500000000  0.4809810000000  0.4171330000000 1.0
C      1  0.5425670000000  0.5321490000000  0.4393850000000 1.0
C      1  0.4660880000000  0.4898640000000  0.5233930000000 1.0
C      1  0.5524620000000  0.5058860000000  0.5136810000000 1.0
C      1  0.5065190000000  0.5608530000000  0.4402900000000 1.0
C      1  0.4415990000000  0.4785390000000  0.5424270000000 1.0
C      1  0.5343160000000  0.4698300000000  0.4284540000000 1.0
C      1  0.4772470000000  0.5923690000000  0.4977480000000 1.0
C      1  0.5915500000000  0.4781050000000  0.5209970000000 1.0
C      1  0.4988860000000  0.5796040000000  0.4817960000000 1.0
C      1  0.4290580000000  0.5259120000000  0.4931630000000 1.0
C      1  0.5269730000000  0.4201400000000  0.5556160000000 1.0
C      1  0.4803050000000  0.4538940000000  0.4269540000000 1.0
C      1  0.4360190000000  0.5312860000000  0.4636340000000 1.0
C      1  0.4517440000000  0.5826730000000  0.4881230000000 1.0
C      1  0.4664480000000  0.5021420000000  0.4114940000000 1.0
C      1  0.4380680000000  0.4654620000000  0.4810120000000 1.0
C      1  0.5008680000000  0.5283090000000  0.5301010000000 1.0
C      1  0.5680520000000  0.5204320000000  0.4484460000000 1.0
C      1  0.4917600000000  0.4183000000000  0.4584620000000 1.0
C      1  0.5354110000000  0.5130690000000  0.4922190000000 1.0
C      1  0.4185630000000  0.5495890000000  0.5111800000000 1.0
C      1  0.5208850000000  0.4895280000000  0.4826050000000 1.0
C      1  0.5208920000000  0.5182870000000  0.4237320000000 1.0
C      1  0.5298640000000  0.4592680000000  0.5297390000000 1.0
C      1  0.5051730000000  0.5442930000000  0.5746200000000 1.0
C      1  0.4573940000000  0.4248340000000  0.4884310000000 1.0
C      1  0.5456720000000  0.4323050000000  0.4590310000000 1.0
C      1  0.4827140000000  0.4151340000000  0.5283550000000 1.0
C      1  0.5505780000000  0.5197580000000  0.5696010000000 1.0
C      1  0.4864950000000  0.5768070000000  0.4554110000000 1.0
C      1  0.5839650000000  0.4943040000000  0.5418730000000 1.0
C      1  0.5817870000000  0.4703630000000  0.4459230000000 1.0
C      1  0.4682000000000  0.5220510000000  0.5968900000000 1.0
C      1  0.4787470000000  0.5332800000000  0.4844070000000 1.0
C      1  0.5542450000000  0.5707130000000  0.5246660000000 1.0
C      1  0.4168920000000  0.4964090000000  0.4963870000000 1.0
C      1  0.5008780000000  0.4343690000000  0.4373050000000 1.0
C      1  0.5707140000000  0.5509360000000  0.4883500000000 1.0
C      1  0.4399490000000  0.5546130000000  0.4468520000000 1.0
C      1  0.4263320000000  0.4913000000000  0.4416210000000 1.0
C      1  0.4767090000000  0.5437190000000  0.5788530000000 1.0
C      1  0.5096490000000  0.5783840000000  0.5267140000000 1.0
C      1  0.5116900000000  0.5538000000000  0.5465140000000 1.0
C      1  0.5420570000000  0.5620890000000  0.5500150000000 1.0
C      1  0.4827760000000  0.4993490000000  0.5994800000000 1.0
C      1  0.5313220000000  0.5789910000000  0.5074040000000 1.0
C      1  0.4811990000000  0.5854520000000  0.5257760000000 1.0
C      1  0.5015950000000  0.4542430000000  0.4963060000000 1.0
C      1  0.4443540000000  0.4401390000000  0.4668710000000 1.0
C      1  0.4395830000000  0.5701230000000  0.5126130000000 1.0
C      1  0.5044220000000  0.4631660000000  0.5534090000000 1.0
C      1  0.5257490000000  0.4633400000000  0.5005340000000 1.0
C      1  0.4417790000000  0.4995230000000  0.5634270000000 1.0
C      1  0.5279610000000  0.4452440000000  0.4410540000000 1.0
C      1  0.5328090000000  0.5563860000000  0.4511420000000 1.0
C      1  0.4738530000000  0.5199740000000  0.5237630000000 1.0
C      1  0.4517520000000  0.4773390000000  0.4437690000000 1.0
C      1  0.4733440000000  0.4961760000000  0.4564700000000 1.0
C      1  0.4387860000000  0.5092220000000  0.4215720000000 1.0
C      1  0.4200800000000  0.4777340000000  0.5193810000000 1.0
C      1  0.5427760000000  0.5617570000000  0.4809470000000 1.0
C      1  0.4970330000000  0.4920800000000  0.4692430000000 1.0
C      1  0.5605690000000  0.4914960000000  0.5608460000000 1.0
C      1  0.4470550000000  0.4313900000000  0.5207020000000 1.0
C      1  0.5002610000000  0.5382350000000  0.4219430000000 1.0
C      1  0.4254600000000  0.4500150000000  0.5167810000000 1.0
C      1  0.5101360000000  0.4983170000000  0.5906370000000 1.0
C      1  0.4812310000000  0.4069660000000  0.4807750000000 1.0
C      1  0.5267660000000  0.5394710000000  0.4877210000000 1.0
C      1  0.5131230000000  0.5038080000000  0.5365960000000 1.0
C      1  0.5470470000000  0.4667780000000  0.5767630000000 1.0
C      1  0.5418880000000  0.4399100000000  0.5695640000000 1.0
C      1  0.5188940000000  0.4727560000000  0.5798830000000 1.0
C      1  0.4575750000000  0.5744280000000  0.4604390000000 1.0
C      1  0.5144130000000  0.4897800000000  0.4206290000000 1.0
C      1  0.4464590000000  0.5378250000000  0.4228820000000 1.0
C      1  0.4546220000000  0.4486130000000  0.4406410000000 1.0
C      1  0.4568650000000  0.5506630000000  0.5582290000000 1.0
C      1  0.5933120000000  0.4792760000000  0.4927900000000 1.0
C      1  0.5589620000000  0.5401610000000  0.5526070000000 1.0
C      1  0.4580070000000  0.5297770000000  0.5026090000000 1.0
C      1  0.4736200000000  0.5305990000000  0.4119330000000 1.0
C      1  0.4225040000000  0.5390880000000  0.5362970000000 1.0
C      1  0.5807210000000  0.4612270000000  0.4726660000000 1.0
C      1  0.5777050000000  0.4962640000000  0.4355550000000 1.0
C      1  0.5232980000000  0.5225830000000  0.5816340000000 1.0
C      1  0.4568910000000  0.4475530000000  0.5428210000000 1.0
C      1  0.5621630000000  0.4746470000000  0.4269990000000 1.0
C      1  0.4566510000000  0.4974440000000  0.5878590000000 1.0
C      1  0.4809480000000  0.4427920000000  0.5580410000000 1.0
C      1  0.4984410000000  0.4071510000000  0.5061530000000 1.0
C      1  0.4641760000000  0.5240430000000  0.4610770000000 1.0
C      1  0.4758350000000  0.4515010000000  0.4922310000000 1.0
C      1  0.5808230000000  0.5277320000000  0.4737420000000 1.0
C      1  0.4961380000000  0.4182010000000  0.5528890000000 1.0
C      1  0.4583510000000  0.5693910000000  0.5355860000000 1.0
C      1  0.5366590000000  0.4295910000000  0.5295860000000 1.0
C      1  0.5628790000000  0.4408130000000  0.4801610000000 1.0
END
