TITL C-3909783-8770-22 5.64403609985787 125000 -13977.7125828306 0 0 94 (C1) n - 1
REM
REM in /home/nfs/bkarasulu/CARBON/AIRSS/Generating-Clusters/ReaxFF-fromJPCA2015/Units_Real/with-SteepDescent/Only-C1/SD-CG/Try1-3A/FIRE-CG
REM
REM
REM
REM
REM
REM ./C.cell (11c1c37f851c82e70ff6c80c92926a4b)
REM
REM compiler GCC version 9.2.1 20190827 (Red Hat 9.2.1-1)
REM options -cpp -mtune=generic -march=x86-64 -g -O0 -fpre-include=/usr/include/finclude/math-vector-fortran.h
REM seed -1104012733 -2143182408 -146555638 -210383042 1581479597 873964862 -1731328567 -1827424846 -1513927262 -2047063560 1915591404 311119722 -2129739688 -112184986 -1986720146 -1038662529 1891573056 1854203747 -866603535 -68469381 -870467069 1378995233 2010568109 1171671724 136083702 552159253 -1984086091 1573671185 566379341 527945831 590370220 1143320031 951540394
REM
CELL 1.54180   50.00000   50.00000   50.00000   90.00000   90.00000   90.00000
LATT -1
SFAC C  
C      1  0.4590360000000  0.4353650000000  0.4898460000000 1.0
C      1  0.4933830000000  0.4620070000000  0.5124460000000 1.0
C      1  0.5317270000000  0.5453950000000  0.4338170000000 1.0
C      1  0.5252620000000  0.4988980000000  0.5299770000000 1.0
C      1  0.4401390000000  0.5771310000000  0.5025830000000 1.0
C      1  0.4771510000000  0.4144600000000  0.4731620000000 1.0
C      1  0.4908760000000  0.5123960000000  0.4175970000000 1.0
C      1  0.5825080000000  0.4998260000000  0.5298940000000 1.0
C      1  0.4809660000000  0.5776090000000  0.4759810000000 1.0
C      1  0.5255720000000  0.4878660000000  0.4397520000000 1.0
C      1  0.4844380000000  0.5277840000000  0.5246830000000 1.0
C      1  0.5504060000000  0.4967180000000  0.5729690000000 1.0
C      1  0.4966360000000  0.4577470000000  0.4215840000000 1.0
C      1  0.5029830000000  0.5248220000000  0.4769420000000 1.0
C      1  0.4845480000000  0.5879090000000  0.5005950000000 1.0
C      1  0.5038810000000  0.4351570000000  0.5224790000000 1.0
C      1  0.5243970000000  0.5662300000000  0.5000860000000 1.0
C      1  0.4521860000000  0.5589020000000  0.5485300000000 1.0
C      1  0.5743990000000  0.4579650000000  0.4977250000000 1.0
C      1  0.5585930000000  0.5543210000000  0.4738850000000 1.0
C      1  0.5593690000000  0.4505020000000  0.4485090000000 1.0
C      1  0.5104970000000  0.4366550000000  0.4386890000000 1.0
C      1  0.5062730000000  0.4739360000000  0.5680480000000 1.0
C      1  0.5425480000000  0.4320200000000  0.5323830000000 1.0
C      1  0.5485690000000  0.4548850000000  0.5483930000000 1.0
C      1  0.5236260000000  0.4964720000000  0.5820510000000 1.0
C      1  0.5529890000000  0.4769700000000  0.4365910000000 1.0
C      1  0.4712180000000  0.4486350000000  0.4325510000000 1.0
C      1  0.5187990000000  0.5374030000000  0.4990940000000 1.0
C      1  0.4871600000000  0.5122940000000  0.4994480000000 1.0
C      1  0.4707740000000  0.5054810000000  0.5386140000000 1.0
C      1  0.5103880000000  0.4932130000000  0.4644350000000 1.0
C      1  0.5676370000000  0.5148810000000  0.4633600000000 1.0
C      1  0.5461390000000  0.5445430000000  0.5447190000000 1.0
C      1  0.5144150000000  0.5262840000000  0.5260880000000 1.0
C      1  0.5337620000000  0.4522030000000  0.4838240000000 1.0
C      1  0.5311200000000  0.4841930000000  0.4847490000000 1.0
C      1  0.4849720000000  0.5326820000000  0.5836690000000 1.0
C      1  0.4220370000000  0.4892370000000  0.4678140000000 1.0
C      1  0.4666010000000  0.4806430000000  0.5224460000000 1.0
C      1  0.4620070000000  0.5176760000000  0.5770540000000 1.0
C      1  0.4183900000000  0.4648380000000  0.4838730000000 1.0
C      1  0.5548960000000  0.5055280000000  0.4879270000000 1.0
C      1  0.5621460000000  0.5452730000000  0.5214750000000 1.0
C      1  0.5548370000000  0.5643460000000  0.4993260000000 1.0
C      1  0.4405770000000  0.4512710000000  0.4722520000000 1.0
C      1  0.4526270000000  0.5693990000000  0.4759520000000 1.0
C      1  0.4841470000000  0.4258410000000  0.4462660000000 1.0
C      1  0.5102920000000  0.4880340000000  0.5074660000000 1.0
C      1  0.5262230000000  0.4749290000000  0.5471350000000 1.0
C      1  0.5041860000000  0.5625490000000  0.5545900000000 1.0
C      1  0.5164950000000  0.4290640000000  0.5462630000000 1.0
C      1  0.5334680000000  0.4394530000000  0.4574950000000 1.0
C      1  0.5744010000000  0.4920910000000  0.5589660000000 1.0
C      1  0.5056610000000  0.4857690000000  0.4185030000000 1.0
C      1  0.5141340000000  0.5269410000000  0.4218120000000 1.0
C      1  0.4900110000000  0.5433300000000  0.4571720000000 1.0
C      1  0.5577140000000  0.5407090000000  0.4503520000000 1.0
C      1  0.5761410000000  0.4636710000000  0.5493340000000 1.0
C      1  0.5147460000000  0.4128990000000  0.5092490000000 1.0
C      1  0.4314760000000  0.5443810000000  0.5321390000000 1.0
C      1  0.4250510000000  0.5167840000000  0.5383770000000 1.0
C      1  0.4184600000000  0.4724620000000  0.5128690000000 1.0
C      1  0.5264530000000  0.5457990000000  0.5655280000000 1.0
C      1  0.5850740000000  0.4718930000000  0.5221550000000 1.0
C      1  0.4367740000000  0.5058800000000  0.4899110000000 1.0
C      1  0.5104500000000  0.5595790000000  0.4481060000000 1.0
C      1  0.4320390000000  0.5483290000000  0.4751790000000 1.0
C      1  0.4400770000000  0.4940490000000  0.4463380000000 1.0
C      1  0.5674840000000  0.5168750000000  0.5115510000000 1.0
C      1  0.4978440000000  0.4472980000000  0.5602000000000 1.0
C      1  0.5754190000000  0.4885780000000  0.4519210000000 1.0
C      1  0.5771630000000  0.4636430000000  0.4684230000000 1.0
C      1  0.4192660000000  0.5012480000000  0.5148770000000 1.0
C      1  0.4756320000000  0.5277120000000  0.4380720000000 1.0
C      1  0.4242150000000  0.5541980000000  0.5054810000000 1.0
C      1  0.4559570000000  0.4682940000000  0.4511800000000 1.0
C      1  0.4663300000000  0.4935940000000  0.4943780000000 1.0
C      1  0.5081660000000  0.5732990000000  0.5284990000000 1.0
C      1  0.4833720000000  0.4535740000000  0.4859260000000 1.0
C      1  0.4775170000000  0.5541230000000  0.5635610000000 1.0
C      1  0.4829060000000  0.5670390000000  0.5184850000000 1.0
C      1  0.4984560000000  0.4095020000000  0.4896170000000 1.0
C      1  0.4807140000000  0.4785410000000  0.4710660000000 1.0
C      1  0.5134590000000  0.5241710000000  0.5811720000000 1.0
C      1  0.4719040000000  0.4402120000000  0.5459610000000 1.0
C      1  0.5091110000000  0.5759490000000  0.4715890000000 1.0
C      1  0.5509760000000  0.4414230000000  0.5045500000000 1.0
C      1  0.4490430000000  0.5222430000000  0.4492560000000 1.0
C      1  0.4478750000000  0.5297980000000  0.4760330000000 1.0
C      1  0.4570380000000  0.5782710000000  0.5278670000000 1.0
C      1  0.4469200000000  0.5060310000000  0.5565530000000 1.0
C      1  0.4417330000000  0.4626920000000  0.5276430000000 1.0
C      1  0.4545690000000  0.4372830000000  0.5230700000000 1.0
END
