TITL C-3909640-4666-29 20.9515051043808 125000 -11862.9883751387 0 0 81 (C1) n - 1
REM
REM in /home/nfs/bkarasulu/CARBON/AIRSS/Generating-Clusters/ReaxFF-fromJPCA2015/Units_Real/with-SteepDescent/Only-C1/SD-CG/Try1-3A/FIRE-CG
REM
REM
REM
REM
REM
REM ./C.cell (11c1c37f851c82e70ff6c80c92926a4b)
REM
REM compiler GCC version 9.2.1 20190827 (Red Hat 9.2.1-1)
REM options -cpp -mtune=generic -march=x86-64 -g -O0 -fpre-include=/usr/include/finclude/math-vector-fortran.h
REM seed 1953959970 479948336 103632675 1968275858 1905520932 -1855601153 -1742799548 -345351974 -8982656 1641022185 -1113007760 -1457357926 -1219605091 1053743927 -633116582 2085225722 -1880838888 -2118466643 2069989071 727817308 -593956599 1639208400 -665701174 -262119668 1989303694 2063114512 1161636502 -722205293 1750853262 1717933771 -1286395295 -1204523513 -1051162482
REM
CELL 1.54180   50.00000   50.00000   50.00000   90.00000   90.00000   90.00000
LATT -1
SFAC C  
C      1  0.4491160000000  0.5319720000000  0.4402000000000 1.0
C      1  0.5810500000000  0.5009210000000  0.5086020000000 1.0
C      1  0.4978710000000  0.5609880000000  0.5114920000000 1.0
C      1  0.4201160000000  0.4585750000000  0.4601810000000 1.0
C      1  0.5232740000000  0.4631980000000  0.5459280000000 1.0
C      1  0.5171850000000  0.4853610000000  0.4596970000000 1.0
C      1  0.4511450000000  0.5531430000000  0.5287580000000 1.0
C      1  0.4204840000000  0.4386530000000  0.4774850000000 1.0
C      1  0.5039920000000  0.4900080000000  0.4111760000000 1.0
C      1  0.5333620000000  0.5897120000000  0.4782130000000 1.0
C      1  0.5831440000000  0.4832380000000  0.4839250000000 1.0
C      1  0.4992860000000  0.4889210000000  0.5883120000000 1.0
C      1  0.4449220000000  0.4347200000000  0.5088230000000 1.0
C      1  0.4480130000000  0.4375270000000  0.4815860000000 1.0
C      1  0.5157580000000  0.5145420000000  0.4166390000000 1.0
C      1  0.4812540000000  0.4693520000000  0.5741100000000 1.0
C      1  0.4634720000000  0.5254820000000  0.5735900000000 1.0
C      1  0.5315090000000  0.4472220000000  0.4406810000000 1.0
C      1  0.4370600000000  0.4548060000000  0.5540900000000 1.0
C      1  0.4528780000000  0.4351700000000  0.5353540000000 1.0
C      1  0.5797080000000  0.5262870000000  0.5269200000000 1.0
C      1  0.4890010000000  0.4593870000000  0.4980240000000 1.0
C      1  0.4484890000000  0.5127920000000  0.4764030000000 1.0
C      1  0.4913220000000  0.4043480000000  0.4904660000000 1.0
C      1  0.4280310000000  0.5100720000000  0.5439400000000 1.0
C      1  0.4907180000000  0.5139340000000  0.5123190000000 1.0
C      1  0.5201660000000  0.5078460000000  0.5765380000000 1.0
C      1  0.4586790000000  0.5072640000000  0.5042940000000 1.0
C      1  0.4696610000000  0.4780550000000  0.5071550000000 1.0
C      1  0.4408370000000  0.5258020000000  0.5236770000000 1.0
C      1  0.5637060000000  0.5710980000000  0.5014140000000 1.0
C      1  0.4580240000000  0.5460760000000  0.5552800000000 1.0
C      1  0.4437520000000  0.4933460000000  0.4550140000000 1.0
C      1  0.4819000000000  0.4346950000000  0.5382840000000 1.0
C      1  0.5222590000000  0.4237140000000  0.5106050000000 1.0
C      1  0.5603430000000  0.4748780000000  0.4294750000000 1.0
C      1  0.4107400000000  0.4608030000000  0.5445960000000 1.0
C      1  0.4446840000000  0.5031300000000  0.5667860000000 1.0
C      1  0.5597030000000  0.4540180000000  0.4489460000000 1.0
C      1  0.5371600000000  0.5455610000000  0.4336710000000 1.0
C      1  0.5397460000000  0.5505390000000  0.5396330000000 1.0
C      1  0.5114740000000  0.5425670000000  0.4226410000000 1.0
C      1  0.4461320000000  0.4646400000000  0.4591450000000 1.0
C      1  0.5410860000000  0.5283690000000  0.5573600000000 1.0
C      1  0.4074850000000  0.4895450000000  0.5318770000000 1.0
C      1  0.5555620000000  0.5467380000000  0.4552890000000 1.0
C      1  0.4689530000000  0.5661950000000  0.5076400000000 1.0
C      1  0.5539920000000  0.4483990000000  0.5003620000000 1.0
C      1  0.5344510000000  0.4832510000000  0.5654020000000 1.0
C      1  0.4940550000000  0.4306070000000  0.5126400000000 1.0
C      1  0.4526230000000  0.4752450000000  0.5689460000000 1.0
C      1  0.5572190000000  0.4868130000000  0.5257940000000 1.0
C      1  0.4528300000000  0.5066770000000  0.4275580000000 1.0
C      1  0.5293750000000  0.4831490000000  0.5196200000000 1.0
C      1  0.4625270000000  0.5643680000000  0.4796990000000 1.0
C      1  0.5566990000000  0.5708380000000  0.4730330000000 1.0
C      1  0.4480420000000  0.5412640000000  0.4666580000000 1.0
C      1  0.5265530000000  0.5101510000000  0.4686830000000 1.0
C      1  0.5037960000000  0.5356680000000  0.4980050000000 1.0
C      1  0.5083480000000  0.5305240000000  0.4708400000000 1.0
C      1  0.5215880000000  0.5703610000000  0.5261720000000 1.0
C      1  0.5045980000000  0.4633540000000  0.4730680000000 1.0
C      1  0.5605530000000  0.4906100000000  0.5553710000000 1.0
C      1  0.5161940000000  0.4154650000000  0.4816880000000 1.0
C      1  0.4925760000000  0.5230670000000  0.5640240000000 1.0
C      1  0.5139550000000  0.4384700000000  0.4617100000000 1.0
C      1  0.4841220000000  0.5717740000000  0.4601530000000 1.0
C      1  0.5680440000000  0.5193820000000  0.5530400000000 1.0
C      1  0.5534270000000  0.5193030000000  0.4681210000000 1.0
C      1  0.5396570000000  0.4428710000000  0.5232670000000 1.0
C      1  0.5756640000000  0.5085280000000  0.4805280000000 1.0
C      1  0.3947170000000  0.4939060000000  0.5090480000000 1.0
C      1  0.5079750000000  0.5832460000000  0.4683790000000 1.0
C      1  0.4778420000000  0.4976060000000  0.4176620000000 1.0
C      1  0.4959680000000  0.4538490000000  0.5538630000000 1.0
C      1  0.5258880000000  0.4764770000000  0.4324010000000 1.0
C      1  0.5687370000000  0.4584990000000  0.4791410000000 1.0
C      1  0.4985260000000  0.5472250000000  0.4499910000000 1.0
C      1  0.4918050000000  0.5185170000000  0.5385190000000 1.0
C      1  0.5389000000000  0.5855340000000  0.5081180000000 1.0
C      1  0.5645400000000  0.5497890000000  0.5222610000000 1.0
END
