TITL C-3909777-8277-27 15.0315335074015 125000 -22281.8327083691 0 0 151 (C1) n - 1
REM
REM in /home/nfs/bkarasulu/CARBON/AIRSS/Generating-Clusters/ReaxFF-fromJPCA2015/Units_Real/with-SteepDescent/Only-C1/SD-CG/Try1-3A/FIRE-CG
REM
REM
REM
REM
REM
REM ./C.cell (11c1c37f851c82e70ff6c80c92926a4b)
REM
REM compiler GCC version 9.2.1 20190827 (Red Hat 9.2.1-1)
REM options -cpp -mtune=generic -march=x86-64 -g -O0 -fpre-include=/usr/include/finclude/math-vector-fortran.h
REM seed 703505496 1377483819 1577559484 -661295645 749627999 -500184285 1949108951 -1628614891 1643203485 -382610471 825054422 -1861637181 1804498437 -1904007769 -1980835973 345546191 1364731038 -1675812755 -744228016 1093714162 -580088922 1079901577 1615961275 2016621930 321636481 -138405413 273322048 -370565881 -1723313860 -1883065696 1569706904 634824484 -1564102961
REM
CELL 1.54180   50.00000   50.00000   50.00000   90.00000   90.00000   90.00000
LATT -1
SFAC C  
C      1  0.4661070000000  0.4978340000000  0.5782550000000 1.0
C      1  0.4266810000000  0.5771750000000  0.5044260000000 1.0
C      1  0.4678880000000  0.5840070000000  0.5273580000000 1.0
C      1  0.4609000000000  0.4713720000000  0.4802480000000 1.0
C      1  0.5138820000000  0.5512310000000  0.4845100000000 1.0
C      1  0.4256470000000  0.4835330000000  0.5148770000000 1.0
C      1  0.5857070000000  0.4886740000000  0.5628260000000 1.0
C      1  0.5339180000000  0.4857800000000  0.5994980000000 1.0
C      1  0.5052820000000  0.5552530000000  0.4366420000000 1.0
C      1  0.5320980000000  0.5032310000000  0.5586910000000 1.0
C      1  0.5118910000000  0.5008920000000  0.5388210000000 1.0
C      1  0.4972370000000  0.5247100000000  0.5364360000000 1.0
C      1  0.5864490000000  0.5193170000000  0.5617650000000 1.0
C      1  0.3993540000000  0.4974600000000  0.4817660000000 1.0
C      1  0.5454130000000  0.4844360000000  0.4635350000000 1.0
C      1  0.5317640000000  0.4316230000000  0.5701860000000 1.0
C      1  0.4838160000000  0.5029390000000  0.6010100000000 1.0
C      1  0.5716820000000  0.4253590000000  0.4901910000000 1.0
C      1  0.4722560000000  0.3970170000000  0.5063940000000 1.0
C      1  0.4800950000000  0.5825950000000  0.4960840000000 1.0
C      1  0.4403070000000  0.5120120000000  0.5774960000000 1.0
C      1  0.4675410000000  0.4844790000000  0.4304640000000 1.0
C      1  0.4717450000000  0.5327030000000  0.4090250000000 1.0
C      1  0.4848350000000  0.4180550000000  0.4478650000000 1.0
C      1  0.4661070000000  0.4446060000000  0.4101200000000 1.0
C      1  0.5578090000000  0.5079080000000  0.4728230000000 1.0
C      1  0.4611590000000  0.4391620000000  0.5785110000000 1.0
C      1  0.5991220000000  0.4572850000000  0.5167650000000 1.0
C      1  0.4132280000000  0.5025120000000  0.5382710000000 1.0
C      1  0.4188090000000  0.4721160000000  0.4302470000000 1.0
C      1  0.5432710000000  0.4499290000000  0.4315980000000 1.0
C      1  0.5272580000000  0.4367910000000  0.4981870000000 1.0
C      1  0.4442390000000  0.4231930000000  0.4844510000000 1.0
C      1  0.4282120000000  0.4334910000000  0.5066980000000 1.0
C      1  0.5662860000000  0.5456590000000  0.4312610000000 1.0
C      1  0.5028470000000  0.4780390000000  0.4384500000000 1.0
C      1  0.5889330000000  0.4501570000000  0.4890160000000 1.0
C      1  0.5046390000000  0.4755070000000  0.4920720000000 1.0
C      1  0.4794060000000  0.4910800000000  0.4877820000000 1.0
C      1  0.5963550000000  0.5043390000000  0.5012160000000 1.0
C      1  0.5568460000000  0.4436540000000  0.5653730000000 1.0
C      1  0.5089330000000  0.4676490000000  0.3917700000000 1.0
C      1  0.4660720000000  0.5497100000000  0.5925550000000 1.0
C      1  0.5440920000000  0.5195360000000  0.4965970000000 1.0
C      1  0.5234120000000  0.4823470000000  0.5183870000000 1.0
C      1  0.5470430000000  0.4952290000000  0.5115760000000 1.0
C      1  0.3987470000000  0.5170290000000  0.4591730000000 1.0
C      1  0.4473840000000  0.4647910000000  0.4221620000000 1.0
C      1  0.4451100000000  0.5406540000000  0.5741780000000 1.0
C      1  0.5610790000000  0.4186450000000  0.5170850000000 1.0
C      1  0.4823880000000  0.5145550000000  0.4715870000000 1.0
C      1  0.4582050000000  0.4548850000000  0.6034740000000 1.0
C      1  0.5150130000000  0.4541620000000  0.4208460000000 1.0
C      1  0.5354430000000  0.4091650000000  0.5052990000000 1.0
C      1  0.5231630000000  0.5946050000000  0.4639370000000 1.0
C      1  0.4508890000000  0.5911030000000  0.4575050000000 1.0
C      1  0.5975220000000  0.5324650000000  0.5095320000000 1.0
C      1  0.5244660000000  0.5663620000000  0.4175600000000 1.0
C      1  0.5042240000000  0.4824240000000  0.6069790000000 1.0
C      1  0.4828040000000  0.4588520000000  0.3918650000000 1.0
C      1  0.4428240000000  0.5495510000000  0.4742950000000 1.0
C      1  0.5370270000000  0.5275270000000  0.5765160000000 1.0
C      1  0.4954840000000  0.5585220000000  0.5028880000000 1.0
C      1  0.4109480000000  0.5529960000000  0.4970730000000 1.0
C      1  0.5591480000000  0.4131800000000  0.4665650000000 1.0
C      1  0.5865220000000  0.4678780000000  0.4661350000000 1.0
C      1  0.4958290000000  0.3921370000000  0.4914360000000 1.0
C      1  0.4736020000000  0.4886480000000  0.5515680000000 1.0
C      1  0.5631950000000  0.4975810000000  0.4246420000000 1.0
C      1  0.5504640000000  0.5923720000000  0.4824690000000 1.0
C      1  0.5384970000000  0.5795110000000  0.5453240000000 1.0
C      1  0.4183440000000  0.4946310000000  0.5660210000000 1.0
C      1  0.5542600000000  0.4397800000000  0.5361860000000 1.0
C      1  0.5655030000000  0.4727040000000  0.5758370000000 1.0
C      1  0.5228230000000  0.5616400000000  0.4604860000000 1.0
C      1  0.4552640000000  0.4742580000000  0.5332260000000 1.0
C      1  0.4353420000000  0.4676410000000  0.5929220000000 1.0
C      1  0.5658720000000  0.5400870000000  0.5639920000000 1.0
C      1  0.5740380000000  0.4907140000000  0.5166610000000 1.0
C      1  0.4572710000000  0.5034540000000  0.5337520000000 1.0
C      1  0.4488810000000  0.5781180000000  0.4827270000000 1.0
C      1  0.5275480000000  0.5910020000000  0.4331870000000 1.0
C      1  0.5079560000000  0.4190070000000  0.5665420000000 1.0
C      1  0.4943010000000  0.5501720000000  0.5952200000000 1.0
C      1  0.4757070000000  0.5519010000000  0.4343060000000 1.0
C      1  0.5080780000000  0.5163470000000  0.4591000000000 1.0
C      1  0.5585930000000  0.5966890000000  0.5103260000000 1.0
C      1  0.3977550000000  0.4667710000000  0.4805110000000 1.0
C      1  0.5151140000000  0.5448610000000  0.5769120000000 1.0
C      1  0.4891770000000  0.5164660000000  0.3947580000000 1.0
C      1  0.5010510000000  0.4944570000000  0.3878790000000 1.0
C      1  0.5800060000000  0.5190080000000  0.4334040000000 1.0
C      1  0.4549340000000  0.5107000000000  0.4166500000000 1.0
C      1  0.5745730000000  0.5753460000000  0.5242700000000 1.0
C      1  0.4070490000000  0.4645020000000  0.4541300000000 1.0
C      1  0.4636490000000  0.4091720000000  0.5293490000000 1.0
C      1  0.4570670000000  0.5217100000000  0.5106900000000 1.0
C      1  0.5846860000000  0.4723670000000  0.5385000000000 1.0
C      1  0.5679490000000  0.5711330000000  0.4765500000000 1.0
C      1  0.4948370000000  0.5973010000000  0.4749460000000 1.0
C      1  0.4996810000000  0.4412450000000  0.5279690000000 1.0
C      1  0.5490450000000  0.5447000000000  0.5138230000000 1.0
C      1  0.5394740000000  0.5130120000000  0.4178370000000 1.0
C      1  0.4843100000000  0.5742550000000  0.5469650000000 1.0
C      1  0.5118170000000  0.3956740000000  0.5157690000000 1.0
C      1  0.4230780000000  0.4651850000000  0.5686730000000 1.0
C      1  0.4904120000000  0.4342680000000  0.4243750000000 1.0
C      1  0.4535670000000  0.4852520000000  0.4571250000000 1.0
C      1  0.4665270000000  0.4433810000000  0.4823140000000 1.0
C      1  0.5205380000000  0.5253670000000  0.4828990000000 1.0
C      1  0.5545270000000  0.5588710000000  0.4545330000000 1.0
C      1  0.5152080000000  0.5045400000000  0.4329520000000 1.0
C      1  0.4370800000000  0.5394120000000  0.4987150000000 1.0
C      1  0.4822980000000  0.5351240000000  0.5144690000000 1.0
C      1  0.5044960000000  0.4040420000000  0.4646180000000 1.0
C      1  0.4261070000000  0.5018150000000  0.4913980000000 1.0
C      1  0.4646110000000  0.5795860000000  0.4366950000000 1.0
C      1  0.5951230000000  0.5282590000000  0.5365580000000 1.0
C      1  0.4984190000000  0.4441410000000  0.4985990000000 1.0
C      1  0.4415430000000  0.4275770000000  0.5321990000000 1.0
C      1  0.4100570000000  0.5422450000000  0.4699450000000 1.0
C      1  0.4764660000000  0.6003840000000  0.4529500000000 1.0
C      1  0.4320920000000  0.5172010000000  0.4335360000000 1.0
C      1  0.5841830000000  0.5155650000000  0.4623460000000 1.0
C      1  0.5278610000000  0.5591450000000  0.5270370000000 1.0
C      1  0.4129920000000  0.4583500000000  0.5041490000000 1.0
C      1  0.5489940000000  0.4234160000000  0.4405080000000 1.0
C      1  0.4806890000000  0.5309890000000  0.6089500000000 1.0
C      1  0.4198620000000  0.5292780000000  0.5416940000000 1.0
C      1  0.4449820000000  0.4490280000000  0.5531560000000 1.0
C      1  0.4632030000000  0.5333880000000  0.4612830000000 1.0
C      1  0.5324540000000  0.4042210000000  0.4572000000000 1.0
C      1  0.5988640000000  0.4925570000000  0.4736550000000 1.0
C      1  0.5060890000000  0.5504320000000  0.5486250000000 1.0
C      1  0.4590900000000  0.4255610000000  0.4604410000000 1.0
C      1  0.5395740000000  0.6063900000000  0.5321360000000 1.0
C      1  0.4959940000000  0.4129530000000  0.5370450000000 1.0
C      1  0.4420830000000  0.5106010000000  0.4628270000000 1.0
C      1  0.5174100000000  0.4760480000000  0.4647550000000 1.0
C      1  0.5629140000000  0.4712460000000  0.4421060000000 1.0
C      1  0.5435510000000  0.5423070000000  0.4142060000000 1.0
C      1  0.5386990000000  0.4791910000000  0.5720610000000 1.0
C      1  0.4892700000000  0.4576210000000  0.6040140000000 1.0
C      1  0.5749080000000  0.5553100000000  0.5047160000000 1.0
C      1  0.4396890000000  0.5748900000000  0.5301070000000 1.0
C      1  0.4084790000000  0.5009230000000  0.4347960000000 1.0
C      1  0.4321490000000  0.5527990000000  0.5497780000000 1.0
C      1  0.5285900000000  0.4523730000000  0.5256800000000 1.0
C      1  0.4905460000000  0.4372260000000  0.5819260000000 1.0
C      1  0.5312220000000  0.5138710000000  0.5980170000000 1.0
C      1  0.5650100000000  0.5656620000000  0.5506440000000 1.0
END
