TITL C-3909655-6256-34 -0.0930919422947839 125000 -3288.71441407394 0 0 24 (C1) n - 1
REM
REM in /home/nfs/bkarasulu/CARBON/AIRSS/Generating-Clusters/ReaxFF-fromJPCA2015/Units_Real/with-SteepDescent/Only-C1/SD-CG/Try1-3A/FIRE-CG
REM
REM
REM
REM
REM
REM ./C.cell (11c1c37f851c82e70ff6c80c92926a4b)
REM
REM compiler GCC version 9.2.1 20190827 (Red Hat 9.2.1-1)
REM options -cpp -mtune=generic -march=x86-64 -g -O0 -fpre-include=/usr/include/finclude/math-vector-fortran.h
REM seed 1309974976 677611147 -1792294789 1512477931 -750041339 -809538418 -2125511752 -508375811 -524163067 -1327494435 905624977 -953631103 2090494230 -291337930 -19037902 -947146246 -358567148 -1174398043 -13279888 -1052444461 -1304137450 945398529 1801056002 -1708762809 -545885287 356073785 256788699 -109655888 1942748860 1412848171 74340661 -1563466144 650138081
REM
CELL 1.54180   50.00000   50.00000   50.00000   90.00000   90.00000   90.00000
LATT -1
SFAC C  
C      1  0.5338640000000  0.5056010000000  0.4713930000000 1.0
C      1  0.4694690000000  0.4689490000000  0.4901990000000 1.0
C      1  0.4608820000000  0.5215410000000  0.4919610000000 1.0
C      1  0.5031950000000  0.5529140000000  0.5455660000000 1.0
C      1  0.5185280000000  0.5009630000000  0.4457770000000 1.0
C      1  0.5238680000000  0.5048930000000  0.5388200000000 1.0
C      1  0.4952470000000  0.4811460000000  0.4463630000000 1.0
C      1  0.5185360000000  0.4594170000000  0.4839450000000 1.0
C      1  0.5210590000000  0.5479130000000  0.5080920000000 1.0
C      1  0.5363880000000  0.4826060000000  0.4899410000000 1.0
C      1  0.5085460000000  0.4422710000000  0.5045050000000 1.0
C      1  0.4925680000000  0.5079700000000  0.4385750000000 1.0
C      1  0.5239600000000  0.5362380000000  0.5362860000000 1.0
C      1  0.4719590000000  0.4835200000000  0.5297170000000 1.0
C      1  0.5394180000000  0.4903170000000  0.5183390000000 1.0
C      1  0.4924970000000  0.4656560000000  0.4719610000000 1.0
C      1  0.4918160000000  0.5570330000000  0.5127530000000 1.0
C      1  0.4709700000000  0.4556740000000  0.5168360000000 1.0
C      1  0.4970220000000  0.4933410000000  0.5413870000000 1.0
C      1  0.5287780000000  0.5300560000000  0.4865260000000 1.0
C      1  0.4736050000000  0.5327230000000  0.5147730000000 1.0
C      1  0.4922270000000  0.4366350000000  0.5200760000000 1.0
C      1  0.4722280000000  0.5478680000000  0.4929400000000 1.0
C      1  0.4633690000000  0.4947540000000  0.5032710000000 1.0
END
