TITL C-3909777-8277-7 0.238161679666041 125000 -13063.4958800575 0 0 87 (C1) n - 1
REM
REM in /home/nfs/bkarasulu/CARBON/AIRSS/Generating-Clusters/ReaxFF-fromJPCA2015/Units_Real/with-SteepDescent/Only-C1/SD-CG/Try1-3A/FIRE-CG
REM
REM
REM
REM
REM
REM ./C.cell (11c1c37f851c82e70ff6c80c92926a4b)
REM
REM compiler GCC version 9.2.1 20190827 (Red Hat 9.2.1-1)
REM options -cpp -mtune=generic -march=x86-64 -g -O0 -fpre-include=/usr/include/finclude/math-vector-fortran.h
REM seed 2006803582 -1356171944 -1084322714 -1145214414 -1407727160 -1604432377 565209184 -1992653515 -571751262 1126715280 1841918208 481944768 1372187732 -1373104070 -1718005123 1622394124 361354053 -1029166412 1912291767 1312728809 1298816878 1534859006 495626643 -132577885 -1699390684 53086378 -1335655498 -2102769987 1588034386 1182110267 493452211 1867719425 404408701
REM
CELL 1.54180   50.00000   50.00000   50.00000   90.00000   90.00000   90.00000
LATT -1
SFAC C  
C      1  0.4887310000000  0.5152950000000  0.4759640000000 1.0
C      1  0.4676400000000  0.5746680000000  0.4784980000000 1.0
C      1  0.5374130000000  0.5335100000000  0.5449510000000 1.0
C      1  0.5350260000000  0.4869670000000  0.4164030000000 1.0
C      1  0.4800830000000  0.4903220000000  0.4630480000000 1.0
C      1  0.5087000000000  0.5312250000000  0.5860790000000 1.0
C      1  0.4947870000000  0.5510130000000  0.5681500000000 1.0
C      1  0.4943960000000  0.4108990000000  0.4971630000000 1.0
C      1  0.4960390000000  0.5705490000000  0.4475540000000 1.0
C      1  0.5157190000000  0.5087860000000  0.4792960000000 1.0
C      1  0.4886150000000  0.4691580000000  0.4797990000000 1.0
C      1  0.4310010000000  0.5046300000000  0.4694990000000 1.0
C      1  0.5738160000000  0.4460730000000  0.4875280000000 1.0
C      1  0.5107440000000  0.5013490000000  0.4291480000000 1.0
C      1  0.5663480000000  0.4926970000000  0.5356590000000 1.0
C      1  0.5353020000000  0.5749870000000  0.5160480000000 1.0
C      1  0.5692270000000  0.5142230000000  0.4792420000000 1.0
C      1  0.5378040000000  0.4684940000000  0.4575170000000 1.0
C      1  0.4806250000000  0.4845520000000  0.4332140000000 1.0
C      1  0.4752140000000  0.5202370000000  0.5008490000000 1.0
C      1  0.5221100000000  0.5610250000000  0.5387050000000 1.0
C      1  0.4647230000000  0.4973240000000  0.5139260000000 1.0
C      1  0.4521270000000  0.4879470000000  0.5601240000000 1.0
C      1  0.4355270000000  0.4509500000000  0.5269080000000 1.0
C      1  0.4805420000000  0.3983480000000  0.4748020000000 1.0
C      1  0.4284000000000  0.5224190000000  0.5218800000000 1.0
C      1  0.5319940000000  0.5207170000000  0.5719370000000 1.0
C      1  0.5188160000000  0.5809690000000  0.4935560000000 1.0
C      1  0.4942450000000  0.5068540000000  0.5847090000000 1.0
C      1  0.5291190000000  0.4918850000000  0.5664330000000 1.0
C      1  0.5666430000000  0.4649820000000  0.4684160000000 1.0
C      1  0.4795140000000  0.4719590000000  0.5077600000000 1.0
C      1  0.4581850000000  0.5036140000000  0.4241210000000 1.0
C      1  0.4409630000000  0.5168020000000  0.4438560000000 1.0
C      1  0.5071950000000  0.4465460000000  0.4385560000000 1.0
C      1  0.5143230000000  0.5510230000000  0.4355610000000 1.0
C      1  0.4462270000000  0.4526740000000  0.4758680000000 1.0
C      1  0.4544810000000  0.5700060000000  0.5502080000000 1.0
C      1  0.4678160000000  0.5618030000000  0.5748450000000 1.0
C      1  0.5517820000000  0.4766700000000  0.5564460000000 1.0
C      1  0.5229470000000  0.4981140000000  0.5041600000000 1.0
C      1  0.4700080000000  0.5746050000000  0.5261640000000 1.0
C      1  0.5255890000000  0.4459320000000  0.5131990000000 1.0
C      1  0.4552760000000  0.5422360000000  0.5566750000000 1.0
C      1  0.5410450000000  0.5467430000000  0.4479420000000 1.0
C      1  0.4228590000000  0.5217810000000  0.4932900000000 1.0
C      1  0.5545910000000  0.5177950000000  0.4512140000000 1.0
C      1  0.4383250000000  0.4780530000000  0.4731330000000 1.0
C      1  0.4968020000000  0.5621890000000  0.5250230000000 1.0
C      1  0.5013590000000  0.5286900000000  0.4224990000000 1.0
C      1  0.5766090000000  0.4874530000000  0.4858820000000 1.0
C      1  0.5604220000000  0.5205750000000  0.5296250000000 1.0
C      1  0.5158560000000  0.5135950000000  0.5278180000000 1.0
C      1  0.4604810000000  0.4405500000000  0.4528460000000 1.0
C      1  0.4534780000000  0.5428790000000  0.4366480000000 1.0
C      1  0.4910490000000  0.4317790000000  0.5415130000000 1.0
C      1  0.5651770000000  0.5309560000000  0.5026680000000 1.0
C      1  0.4318880000000  0.5466910000000  0.5054580000000 1.0
C      1  0.5582870000000  0.5023780000000  0.4243870000000 1.0
C      1  0.5312110000000  0.4604510000000  0.4296810000000 1.0
C      1  0.4720100000000  0.5288030000000  0.4179760000000 1.0
C      1  0.5111030000000  0.4897370000000  0.5427850000000 1.0
C      1  0.4496780000000  0.5074220000000  0.5375040000000 1.0
C      1  0.5787090000000  0.4771120000000  0.5143280000000 1.0
C      1  0.4673720000000  0.5645210000000  0.4511750000000 1.0
C      1  0.5111750000000  0.4737490000000  0.5183750000000 1.0
C      1  0.5096000000000  0.4433780000000  0.5590090000000 1.0
C      1  0.4703330000000  0.4151590000000  0.4629360000000 1.0
C      1  0.4975670000000  0.5828320000000  0.4750180000000 1.0
C      1  0.4628590000000  0.4477500000000  0.5671940000000 1.0
C      1  0.5279920000000  0.4995960000000  0.4564160000000 1.0
C      1  0.4406020000000  0.4609620000000  0.5550390000000 1.0
C      1  0.4795670000000  0.4540170000000  0.4350270000000 1.0
C      1  0.4885250000000  0.4555520000000  0.5759950000000 1.0
C      1  0.4770820000000  0.4857920000000  0.5772170000000 1.0
C      1  0.5747940000000  0.4476790000000  0.5155780000000 1.0
C      1  0.4539770000000  0.5669900000000  0.5026760000000 1.0
C      1  0.4564540000000  0.4458330000000  0.5069620000000 1.0
C      1  0.5164140000000  0.4300650000000  0.4910150000000 1.0
C      1  0.5490890000000  0.4388390000000  0.5288350000000 1.0
C      1  0.5456620000000  0.5573610000000  0.4720880000000 1.0
C      1  0.5107170000000  0.4503640000000  0.4696050000000 1.0
C      1  0.4802700000000  0.5331370000000  0.5501500000000 1.0
C      1  0.4908800000000  0.5318100000000  0.5241160000000 1.0
C      1  0.4779980000000  0.4244110000000  0.5178870000000 1.0
C      1  0.5549370000000  0.5593170000000  0.4974910000000 1.0
C      1  0.5394100000000  0.4502210000000  0.5535520000000 1.0
END
