TITL C-3909784-5023-17 18.8372883577865 125000 -16532.1086812174 0 0 111 (C1) n - 1
REM
REM in /home/nfs/bkarasulu/CARBON/AIRSS/Generating-Clusters/ReaxFF-fromJPCA2015/Units_Real/with-SteepDescent/Only-C1/SD-CG/Try1-3A/FIRE-CG
REM
REM
REM
REM
REM
REM ./C.cell (11c1c37f851c82e70ff6c80c92926a4b)
REM
REM compiler GCC version 9.2.1 20190827 (Red Hat 9.2.1-1)
REM options -cpp -mtune=generic -march=x86-64 -g -O0 -fpre-include=/usr/include/finclude/math-vector-fortran.h
REM seed 1908067505 1142350981 1956178828 390739235 -936140851 341343697 -385466268 1667893796 1787663068 -325957923 23473328 229089994 -672347156 -70967450 -1277631194 -1167394634 -1037068784 -1831378069 -1885697903 694701584 955696190 -721941116 125911499 1869998287 1434154981 1026518681 -912778946 -1443021717 1672686075 -1582656140 -1881766408 -8384944 1632329456
REM
CELL 1.54180   50.00000   50.00000   50.00000   90.00000   90.00000   90.00000
LATT -1
SFAC C  
C      1  0.4685000000000  0.4455850000000  0.4376550000000 1.0
C      1  0.4793420000000  0.4549100000000  0.5821160000000 1.0
C      1  0.4368540000000  0.5619350000000  0.5240580000000 1.0
C      1  0.4503620000000  0.4695390000000  0.4407630000000 1.0
C      1  0.5374280000000  0.5639530000000  0.4724610000000 1.0
C      1  0.5594370000000  0.5747730000000  0.5065630000000 1.0
C      1  0.5833860000000  0.4851330000000  0.4840760000000 1.0
C      1  0.4752780000000  0.4506210000000  0.4897570000000 1.0
C      1  0.4203100000000  0.4690200000000  0.5395830000000 1.0
C      1  0.5400080000000  0.4439790000000  0.5295610000000 1.0
C      1  0.5098960000000  0.4433860000000  0.5204330000000 1.0
C      1  0.4241280000000  0.4487710000000  0.5169030000000 1.0
C      1  0.5687820000000  0.5601650000000  0.5303570000000 1.0
C      1  0.5312440000000  0.5774700000000  0.5000680000000 1.0
C      1  0.5485850000000  0.4239840000000  0.5065090000000 1.0
C      1  0.5033900000000  0.4390870000000  0.5670170000000 1.0
C      1  0.5145380000000  0.4925710000000  0.5198130000000 1.0
C      1  0.5828700000000  0.4936610000000  0.4566430000000 1.0
C      1  0.5061830000000  0.5047390000000  0.4270140000000 1.0
C      1  0.4964890000000  0.4229210000000  0.4598420000000 1.0
C      1  0.4316010000000  0.5128550000000  0.4557690000000 1.0
C      1  0.5843790000000  0.5435670000000  0.4733350000000 1.0
C      1  0.4980540000000  0.4415740000000  0.4352190000000 1.0
C      1  0.4558270000000  0.5455590000000  0.5665620000000 1.0
C      1  0.5611040000000  0.4686240000000  0.4953370000000 1.0
C      1  0.4639360000000  0.5211210000000  0.4824500000000 1.0
C      1  0.5153520000000  0.5718320000000  0.4525250000000 1.0
C      1  0.5977040000000  0.5329230000000  0.4972480000000 1.0
C      1  0.4194650000000  0.5408050000000  0.5276030000000 1.0
C      1  0.5063870000000  0.4891730000000  0.4944880000000 1.0
C      1  0.4692100000000  0.5664970000000  0.4438710000000 1.0
C      1  0.5162110000000  0.4622790000000  0.4668120000000 1.0
C      1  0.4309080000000  0.4836790000000  0.4582500000000 1.0
C      1  0.5086700000000  0.5285470000000  0.4864230000000 1.0
C      1  0.5153600000000  0.3981670000000  0.4715770000000 1.0
C      1  0.5015620000000  0.5017320000000  0.5726370000000 1.0
C      1  0.4113990000000  0.4916140000000  0.5272320000000 1.0
C      1  0.4642210000000  0.5418710000000  0.5020520000000 1.0
C      1  0.4896720000000  0.5762070000000  0.4649460000000 1.0
C      1  0.5308560000000  0.5319230000000  0.5289750000000 1.0
C      1  0.5028370000000  0.4434630000000  0.4863200000000 1.0
C      1  0.4842830000000  0.5776690000000  0.4932260000000 1.0
C      1  0.4728100000000  0.4777820000000  0.5371980000000 1.0
C      1  0.5809900000000  0.5236980000000  0.4514380000000 1.0
C      1  0.4929580000000  0.4311400000000  0.5416470000000 1.0
C      1  0.5320430000000  0.4845370000000  0.4794120000000 1.0
C      1  0.5217050000000  0.4569890000000  0.4244340000000 1.0
C      1  0.5618130000000  0.4916390000000  0.5381970000000 1.0
C      1  0.5529420000000  0.4940380000000  0.5709450000000 1.0
C      1  0.4498520000000  0.4078380000000  0.5053480000000 1.0
C      1  0.5445580000000  0.5462980000000  0.4159180000000 1.0
C      1  0.4889120000000  0.5158180000000  0.4694400000000 1.0
C      1  0.4207430000000  0.5326720000000  0.4759990000000 1.0
C      1  0.4471160000000  0.4911090000000  0.5797480000000 1.0
C      1  0.4715220000000  0.5404510000000  0.4298420000000 1.0
C      1  0.4520340000000  0.4322270000000  0.4830840000000 1.0
C      1  0.5244410000000  0.5412960000000  0.5816480000000 1.0
C      1  0.4787760000000  0.5307990000000  0.5251630000000 1.0
C      1  0.4277130000000  0.4482360000000  0.4902310000000 1.0
C      1  0.5226420000000  0.5632160000000  0.5599580000000 1.0
C      1  0.5412500000000  0.4690300000000  0.5702430000000 1.0
C      1  0.4555710000000  0.4487200000000  0.5669810000000 1.0
C      1  0.5574340000000  0.4409050000000  0.4848630000000 1.0
C      1  0.5402580000000  0.5069380000000  0.4608980000000 1.0
C      1  0.5308510000000  0.4454020000000  0.5619770000000 1.0
C      1  0.4534080000000  0.5179120000000  0.4370670000000 1.0
C      1  0.5456550000000  0.5518410000000  0.5463310000000 1.0
C      1  0.4673020000000  0.4921350000000  0.4375090000000 1.0
C      1  0.5669670000000  0.5663420000000  0.4793860000000 1.0
C      1  0.4305270000000  0.5603560000000  0.4776140000000 1.0
C      1  0.4917490000000  0.5000460000000  0.5996980000000 1.0
C      1  0.4064240000000  0.4947410000000  0.5013160000000 1.0
C      1  0.4280540000000  0.5388080000000  0.5568420000000 1.0
C      1  0.4668840000000  0.4244730000000  0.4571750000000 1.0
C      1  0.5329140000000  0.4079720000000  0.4902990000000 1.0
C      1  0.5246580000000  0.4850740000000  0.4173780000000 1.0
C      1  0.4908640000000  0.4788090000000  0.5598290000000 1.0
C      1  0.5874050000000  0.5382710000000  0.5247830000000 1.0
C      1  0.5694690000000  0.4770610000000  0.4368910000000 1.0
C      1  0.5397820000000  0.5178070000000  0.5775310000000 1.0
C      1  0.4585340000000  0.4970300000000  0.4984130000000 1.0
C      1  0.5637230000000  0.5265700000000  0.4288000000000 1.0
C      1  0.5294840000000  0.5374310000000  0.3941630000000 1.0
C      1  0.4646460000000  0.5023100000000  0.5256200000000 1.0
C      1  0.4793720000000  0.4777960000000  0.4900330000000 1.0
C      1  0.4451010000000  0.5605790000000  0.4551860000000 1.0
C      1  0.5346550000000  0.5309480000000  0.4732340000000 1.0
C      1  0.4422100000000  0.5201090000000  0.5742160000000 1.0
C      1  0.5501640000000  0.4547730000000  0.4354850000000 1.0
C      1  0.4942470000000  0.4928960000000  0.4514040000000 1.0
C      1  0.5852920000000  0.5092070000000  0.5288920000000 1.0
C      1  0.4522990000000  0.5695330000000  0.5002830000000 1.0
C      1  0.4641560000000  0.4379600000000  0.5429030000000 1.0
C      1  0.4364710000000  0.4687120000000  0.5648420000000 1.0
C      1  0.5048620000000  0.5777080000000  0.5129820000000 1.0
C      1  0.4989910000000  0.5338220000000  0.4207800000000 1.0
C      1  0.5018610000000  0.4718790000000  0.5331070000000 1.0
C      1  0.4199590000000  0.4727010000000  0.4828700000000 1.0
C      1  0.5172450000000  0.5560340000000  0.4285440000000 1.0
C      1  0.4998990000000  0.5691400000000  0.5430230000000 1.0
C      1  0.4774010000000  0.5514780000000  0.5483790000000 1.0
C      1  0.4994330000000  0.5262050000000  0.5877650000000 1.0
C      1  0.5063740000000  0.5337750000000  0.5139320000000 1.0
C      1  0.5384400000000  0.5056050000000  0.5270820000000 1.0
C      1  0.5576780000000  0.4666540000000  0.5234740000000 1.0
C      1  0.5503870000000  0.4992370000000  0.4301990000000 1.0
C      1  0.5959760000000  0.5035340000000  0.5024560000000 1.0
C      1  0.4701710000000  0.4813800000000  0.5945370000000 1.0
C      1  0.5402450000000  0.4448700000000  0.4609490000000 1.0
C      1  0.4115630000000  0.5235230000000  0.5024170000000 1.0
C      1  0.4421570000000  0.4262960000000  0.5257180000000 1.0
END
