TITL C-3909643-3388-2 2.59520872122668 125000 -11945.1598770523 0 0 81 (C1) n - 1
REM
REM in /home/nfs/bkarasulu/CARBON/AIRSS/Generating-Clusters/ReaxFF-fromJPCA2015/Units_Real/with-SteepDescent/Only-C1/SD-CG/Try1-3A/FIRE-CG
REM
REM
REM
REM
REM
REM ./C.cell (11c1c37f851c82e70ff6c80c92926a4b)
REM
REM compiler GCC version 9.2.1 20190827 (Red Hat 9.2.1-1)
REM options -cpp -mtune=generic -march=x86-64 -g -O0 -fpre-include=/usr/include/finclude/math-vector-fortran.h
REM seed -447848680 -1701360107 -2105706775 -881245823 898223737 524443231 -1267372115 2129370795 937078660 350221039 -497566155 -897573088 774009010 1203983229 -380377459 1049230451 1537549154 -1351664695 -613386851 -993646237 -1177561680 523525351 1889816458 -523309115 -2126936788 1453096125 -1856028136 1588088759 439635002 1945511518 746265407 -867859190 2093719288
REM
CELL 1.54180   50.00000   50.00000   50.00000   90.00000   90.00000   90.00000
LATT -1
SFAC C  
C      1  0.5330020000000  0.5054340000000  0.5466230000000 1.0
C      1  0.5112650000000  0.4200120000000  0.4964470000000 1.0
C      1  0.5142430000000  0.4955030000000  0.4369250000000 1.0
C      1  0.4245190000000  0.4926660000000  0.5319850000000 1.0
C      1  0.4228390000000  0.4724730000000  0.5100360000000 1.0
C      1  0.5249510000000  0.5523680000000  0.5112130000000 1.0
C      1  0.5218560000000  0.5072030000000  0.4974220000000 1.0
C      1  0.5408470000000  0.5707580000000  0.5282540000000 1.0
C      1  0.4746460000000  0.5516800000000  0.4542760000000 1.0
C      1  0.4722040000000  0.4738560000000  0.4219010000000 1.0
C      1  0.4146030000000  0.5094950000000  0.4774290000000 1.0
C      1  0.4302330000000  0.5228830000000  0.4564390000000 1.0
C      1  0.5264230000000  0.4390460000000  0.4792930000000 1.0
C      1  0.4919610000000  0.4891510000000  0.5734100000000 1.0
C      1  0.4822180000000  0.5536800000000  0.5480800000000 1.0
C      1  0.4876590000000  0.4780210000000  0.4778580000000 1.0
C      1  0.5662060000000  0.5279990000000  0.5061440000000 1.0
C      1  0.5831490000000  0.5063600000000  0.5072900000000 1.0
C      1  0.5275470000000  0.4539610000000  0.5606180000000 1.0
C      1  0.4956700000000  0.5676180000000  0.4746670000000 1.0
C      1  0.5231740000000  0.4775410000000  0.5358720000000 1.0
C      1  0.4359710000000  0.5323790000000  0.4274870000000 1.0
C      1  0.5354830000000  0.5246780000000  0.5169370000000 1.0
C      1  0.5418840000000  0.5057710000000  0.4415490000000 1.0
C      1  0.5832130000000  0.4681690000000  0.5321060000000 1.0
C      1  0.5226670000000  0.5586290000000  0.4820890000000 1.0
C      1  0.4991290000000  0.5010520000000  0.4614160000000 1.0
C      1  0.5591620000000  0.4503350000000  0.5233190000000 1.0
C      1  0.5372560000000  0.5591820000000  0.5561370000000 1.0
C      1  0.4747460000000  0.4938130000000  0.5498090000000 1.0
C      1  0.4545350000000  0.5089500000000  0.4652040000000 1.0
C      1  0.5009550000000  0.5288630000000  0.5750020000000 1.0
C      1  0.5623620000000  0.5688120000000  0.5098550000000 1.0
C      1  0.4638650000000  0.5398780000000  0.4244790000000 1.0
C      1  0.5467600000000  0.5515260000000  0.4663270000000 1.0
C      1  0.4335410000000  0.5571050000000  0.4924300000000 1.0
C      1  0.5598960000000  0.5104620000000  0.5590970000000 1.0
C      1  0.5544260000000  0.4877460000000  0.4615300000000 1.0
C      1  0.5034580000000  0.4633450000000  0.5767160000000 1.0
C      1  0.5511670000000  0.4360800000000  0.4646460000000 1.0
C      1  0.4700420000000  0.4478170000000  0.4354810000000 1.0
C      1  0.5080560000000  0.5377500000000  0.4192710000000 1.0
C      1  0.5164010000000  0.4219570000000  0.5248440000000 1.0
C      1  0.4178100000000  0.5308970000000  0.4969310000000 1.0
C      1  0.5946740000000  0.4850040000000  0.5120720000000 1.0
C      1  0.5040020000000  0.4365600000000  0.5685240000000 1.0
C      1  0.4446670000000  0.5288160000000  0.5370890000000 1.0
C      1  0.5281900000000  0.5435870000000  0.4296580000000 1.0
C      1  0.4956180000000  0.4948560000000  0.5027110000000 1.0
C      1  0.4478680000000  0.4790260000000  0.5428610000000 1.0
C      1  0.4943070000000  0.4214040000000  0.5452650000000 1.0
C      1  0.5481860000000  0.5335030000000  0.4446320000000 1.0
C      1  0.4918110000000  0.4951540000000  0.4183340000000 1.0
C      1  0.5578890000000  0.5407300000000  0.5640830000000 1.0
C      1  0.4861120000000  0.5717080000000  0.5001150000000 1.0
C      1  0.4675030000000  0.5280180000000  0.5490510000000 1.0
C      1  0.4872500000000  0.4354350000000  0.4554450000000 1.0
C      1  0.4530260000000  0.4790640000000  0.4688020000000 1.0
C      1  0.4853120000000  0.4195960000000  0.4817090000000 1.0
C      1  0.5416750000000  0.4872340000000  0.4884760000000 1.0
C      1  0.4650380000000  0.4248570000000  0.4979260000000 1.0
C      1  0.4681110000000  0.4262280000000  0.5379910000000 1.0
C      1  0.5404520000000  0.4686830000000  0.5113330000000 1.0
C      1  0.4523810000000  0.4300520000000  0.5194550000000 1.0
C      1  0.5148840000000  0.5053290000000  0.5711350000000 1.0
C      1  0.4948950000000  0.4843350000000  0.5293060000000 1.0
C      1  0.4543850000000  0.5584330000000  0.4734890000000 1.0
C      1  0.5388300000000  0.4356180000000  0.5380690000000 1.0
C      1  0.5781170000000  0.4921120000000  0.5472480000000 1.0
C      1  0.4266760000000  0.4833790000000  0.4835420000000 1.0
C      1  0.4850550000000  0.5237950000000  0.4113550000000 1.0
C      1  0.5573410000000  0.4598250000000  0.4598390000000 1.0
C      1  0.5073150000000  0.5538350000000  0.5637430000000 1.0
C      1  0.5678640000000  0.5516980000000  0.4877880000000 1.0
C      1  0.4789430000000  0.5217720000000  0.4636910000000 1.0
C      1  0.4430060000000  0.4561990000000  0.5252710000000 1.0
C      1  0.4451240000000  0.5723600000000  0.5160880000000 1.0
C      1  0.4209250000000  0.5219750000000  0.5248500000000 1.0
C      1  0.4533280000000  0.4686100000000  0.4418730000000 1.0
C      1  0.4731100000000  0.5730390000000  0.5254240000000 1.0
C      1  0.5041290000000  0.4552650000000  0.4669180000000 1.0
END
