TITL C-3909777-8277-26 4.47405171879678 125000 -15198.6216684837 0 0 102 (C1) n - 1
REM
REM in /home/nfs/bkarasulu/CARBON/AIRSS/Generating-Clusters/ReaxFF-fromJPCA2015/Units_Real/with-SteepDescent/Only-C1/SD-CG/Try1-3A/FIRE-CG
REM
REM
REM
REM
REM
REM ./C.cell (11c1c37f851c82e70ff6c80c92926a4b)
REM
REM compiler GCC version 9.2.1 20190827 (Red Hat 9.2.1-1)
REM options -cpp -mtune=generic -march=x86-64 -g -O0 -fpre-include=/usr/include/finclude/math-vector-fortran.h
REM seed 310389085 611898267 1211606993 675288095 45934982 -500082657 1774809387 -1261664727 575685845 -768068903 2085129423 -1083384058 330846200 -611533431 -1558152197 -683808679 -433469664 32153937 -1355866075 -1949717716 1318257963 1608784748 -1774778999 1564549572 1826268961 1445582324 -1261355639 -1997705269 1598658877 -1901525270 1772750707 -1450463252 507739653
REM
CELL 1.54180   50.00000   50.00000   50.00000   90.00000   90.00000   90.00000
LATT -1
SFAC C  
C      1  0.5326190000000  0.4224310000000  0.5278320000000 1.0
C      1  0.4841350000000  0.4603110000000  0.5114780000000 1.0
C      1  0.5743410000000  0.4583170000000  0.4738280000000 1.0
C      1  0.5196010000000  0.4898750000000  0.4116520000000 1.0
C      1  0.4817550000000  0.5035840000000  0.5310620000000 1.0
C      1  0.4570580000000  0.5113350000000  0.4750910000000 1.0
C      1  0.5063730000000  0.4182460000000  0.5378430000000 1.0
C      1  0.4969640000000  0.5048720000000  0.5885250000000 1.0
C      1  0.5107160000000  0.4706050000000  0.5155170000000 1.0
C      1  0.4943650000000  0.5887640000000  0.5223240000000 1.0
C      1  0.4442090000000  0.4380050000000  0.5036460000000 1.0
C      1  0.4756650000000  0.5026170000000  0.4052290000000 1.0
C      1  0.5569250000000  0.4779190000000  0.5706930000000 1.0
C      1  0.5765460000000  0.4797270000000  0.5484750000000 1.0
C      1  0.4782930000000  0.5078140000000  0.5013390000000 1.0
C      1  0.5220940000000  0.5196270000000  0.5867440000000 1.0
C      1  0.5570280000000  0.4326730000000  0.4658490000000 1.0
C      1  0.4661480000000  0.4186150000000  0.5317800000000 1.0
C      1  0.5679270000000  0.5065750000000  0.4974640000000 1.0
C      1  0.4974370000000  0.4336580000000  0.5625580000000 1.0
C      1  0.4774760000000  0.5072430000000  0.4544630000000 1.0
C      1  0.4202830000000  0.4933520000000  0.5360980000000 1.0
C      1  0.4482900000000  0.5549320000000  0.4519870000000 1.0
C      1  0.4373230000000  0.5294930000000  0.4622850000000 1.0
C      1  0.5539820000000  0.5444490000000  0.5621600000000 1.0
C      1  0.4150900000000  0.4827600000000  0.5091340000000 1.0
C      1  0.4811110000000  0.4726740000000  0.4048570000000 1.0
C      1  0.4562220000000  0.4347310000000  0.4591020000000 1.0
C      1  0.4928900000000  0.4217550000000  0.4854400000000 1.0
C      1  0.4733120000000  0.4530740000000  0.4488130000000 1.0
C      1  0.5654530000000  0.5582410000000  0.4837210000000 1.0
C      1  0.5557520000000  0.5674000000000  0.5462330000000 1.0
C      1  0.4715790000000  0.5758100000000  0.5358740000000 1.0
C      1  0.5726070000000  0.4749730000000  0.4981870000000 1.0
C      1  0.5586140000000  0.5246450000000  0.4514950000000 1.0
C      1  0.4468930000000  0.4525430000000  0.5544310000000 1.0
C      1  0.4592050000000  0.4437530000000  0.5264160000000 1.0
C      1  0.5952850000000  0.5025550000000  0.5423690000000 1.0
C      1  0.5161460000000  0.4533520000000  0.5743960000000 1.0
C      1  0.5256850000000  0.4199970000000  0.5007870000000 1.0
C      1  0.4632270000000  0.4253480000000  0.4847740000000 1.0
C      1  0.5302820000000  0.5212110000000  0.4469850000000 1.0
C      1  0.5031180000000  0.5126940000000  0.4009580000000 1.0
C      1  0.5088450000000  0.4933870000000  0.5350150000000 1.0
C      1  0.4234910000000  0.5222440000000  0.5326860000000 1.0
C      1  0.4438120000000  0.4592870000000  0.4518500000000 1.0
C      1  0.4202970000000  0.4915030000000  0.4632220000000 1.0
C      1  0.4369990000000  0.5534230000000  0.5014230000000 1.0
C      1  0.5091280000000  0.5647900000000  0.5620510000000 1.0
C      1  0.4714680000000  0.5137950000000  0.5768490000000 1.0
C      1  0.4210710000000  0.5284390000000  0.5043280000000 1.0
C      1  0.5176330000000  0.4760690000000  0.4630200000000 1.0
C      1  0.5067800000000  0.5209270000000  0.4914370000000 1.0
C      1  0.5079600000000  0.4642120000000  0.4147430000000 1.0
C      1  0.4398870000000  0.4759870000000  0.4747450000000 1.0
C      1  0.5534370000000  0.5249010000000  0.5390760000000 1.0
C      1  0.5320520000000  0.4947160000000  0.4384080000000 1.0
C      1  0.4966090000000  0.5900370000000  0.4931510000000 1.0
C      1  0.5124720000000  0.4785310000000  0.5890120000000 1.0
C      1  0.5321210000000  0.4289690000000  0.4505650000000 1.0
C      1  0.4775770000000  0.4793640000000  0.4914720000000 1.0
C      1  0.4640100000000  0.4972060000000  0.5535510000000 1.0
C      1  0.4619680000000  0.5167480000000  0.4279440000000 1.0
C      1  0.4621350000000  0.5398620000000  0.5670680000000 1.0
C      1  0.4704920000000  0.4416250000000  0.5643190000000 1.0
C      1  0.5446740000000  0.5872000000000  0.5305200000000 1.0
C      1  0.4825490000000  0.5661010000000  0.4846210000000 1.0
C      1  0.4663690000000  0.5465500000000  0.4311120000000 1.0
C      1  0.5776800000000  0.5182850000000  0.5236640000000 1.0
C      1  0.5327990000000  0.5054360000000  0.4988880000000 1.0
C      1  0.5635020000000  0.4981130000000  0.4388560000000 1.0
C      1  0.5169350000000  0.5870890000000  0.4704700000000 1.0
C      1  0.4801620000000  0.5620090000000  0.5600450000000 1.0
C      1  0.4881750000000  0.4112940000000  0.5157300000000 1.0
C      1  0.4392670000000  0.4809460000000  0.5542290000000 1.0
C      1  0.5244360000000  0.4794160000000  0.4914610000000 1.0
C      1  0.5273210000000  0.5459590000000  0.5752030000000 1.0
C      1  0.5692860000000  0.5298590000000  0.4777300000000 1.0
C      1  0.4135300000000  0.5040060000000  0.4892660000000 1.0
C      1  0.5496290000000  0.5724430000000  0.5041790000000 1.0
C      1  0.5465170000000  0.4252250000000  0.4894900000000 1.0
C      1  0.4291060000000  0.5099390000000  0.4383360000000 1.0
C      1  0.4404910000000  0.5415700000000  0.5472450000000 1.0
C      1  0.5687500000000  0.4630130000000  0.5246550000000 1.0
C      1  0.5077760000000  0.5410240000000  0.4072600000000 1.0
C      1  0.5050570000000  0.5259240000000  0.4616130000000 1.0
C      1  0.5431900000000  0.4534830000000  0.5633130000000 1.0
C      1  0.5043220000000  0.4275260000000  0.4588500000000 1.0
C      1  0.5455480000000  0.5796290000000  0.4767410000000 1.0
C      1  0.5167960000000  0.5839340000000  0.5407970000000 1.0
C      1  0.5503010000000  0.4439050000000  0.5368730000000 1.0
C      1  0.5034700000000  0.5463100000000  0.4811670000000 1.0
C      1  0.4929080000000  0.5593380000000  0.4259150000000 1.0
C      1  0.5310770000000  0.5102830000000  0.5274500000000 1.0
C      1  0.5375690000000  0.4934390000000  0.5867080000000 1.0
C      1  0.5177100000000  0.4527720000000  0.4438110000000 1.0
C      1  0.4864490000000  0.4769880000000  0.4625270000000 1.0
C      1  0.5709860000000  0.4781110000000  0.4561850000000 1.0
C      1  0.5065160000000  0.5767330000000  0.4456260000000 1.0
C      1  0.4469020000000  0.5620630000000  0.5276370000000 1.0
C      1  0.4291080000000  0.4608840000000  0.4965810000000 1.0
C      1  0.4528680000000  0.5646220000000  0.4794150000000 1.0
END
