TITL C-3909640-4666-8 92.2780575730546 125000 -25637.0692463559 0 0 174 (C1) n - 1
REM
REM in /home/nfs/bkarasulu/CARBON/AIRSS/Generating-Clusters/ReaxFF-fromJPCA2015/Units_Real/with-SteepDescent/Only-C1/SD-CG/Try1-3A/FIRE-CG
REM
REM
REM
REM
REM
REM ./C.cell (11c1c37f851c82e70ff6c80c92926a4b)
REM
REM compiler GCC version 9.2.1 20190827 (Red Hat 9.2.1-1)
REM options -cpp -mtune=generic -march=x86-64 -g -O0 -fpre-include=/usr/include/finclude/math-vector-fortran.h
REM seed 1968631859 -440740167 398136396 -978516384 790447693 -606023326 1964976189 -1636451322 181184581 -820162010 1343707423 367666084 -1869963120 1502242677 41482520 -1426280977 570150848 -451405455 1066176799 -1911079517 -1420000181 -401416501 114244406 1759206986 -1324391728 -809534274 185627561 1704529192 -12447262 1705945729 619576259 471928286 -1737598848
REM
CELL 1.54180   50.00000   50.00000   50.00000   90.00000   90.00000   90.00000
LATT -1
SFAC C  
C      1  0.4965420000000  0.4847450000000  0.5267900000000 1.0
C      1  0.4594860000000  0.5110110000000  0.5540930000000 1.0
C      1  0.5467120000000  0.4998590000000  0.5930610000000 1.0
C      1  0.4434350000000  0.5871550000000  0.4853140000000 1.0
C      1  0.5692400000000  0.5647570000000  0.5474980000000 1.0
C      1  0.4509560000000  0.5920620000000  0.5335670000000 1.0
C      1  0.4413510000000  0.5510980000000  0.5694740000000 1.0
C      1  0.5857890000000  0.4584290000000  0.5472360000000 1.0
C      1  0.5660410000000  0.5338810000000  0.4922650000000 1.0
C      1  0.5509100000000  0.4623940000000  0.4149490000000 1.0
C      1  0.5411230000000  0.5045720000000  0.4360820000000 1.0
C      1  0.4865250000000  0.3905010000000  0.4867000000000 1.0
C      1  0.4918760000000  0.4630360000000  0.4549810000000 1.0
C      1  0.5194780000000  0.5322670000000  0.6044630000000 1.0
C      1  0.5256150000000  0.4641090000000  0.3990660000000 1.0
C      1  0.5009560000000  0.5277770000000  0.5583090000000 1.0
C      1  0.5202890000000  0.5345460000000  0.4861830000000 1.0
C      1  0.5722190000000  0.4309800000000  0.5476230000000 1.0
C      1  0.4053480000000  0.4388440000000  0.4856290000000 1.0
C      1  0.5538390000000  0.5016500000000  0.5429380000000 1.0
C      1  0.3769090000000  0.5010480000000  0.4946000000000 1.0
C      1  0.4503950000000  0.4831160000000  0.4515940000000 1.0
C      1  0.5888910000000  0.4928420000000  0.4376240000000 1.0
C      1  0.5197950000000  0.5522170000000  0.5082500000000 1.0
C      1  0.4636880000000  0.5341130000000  0.5731720000000 1.0
C      1  0.6042700000000  0.4870860000000  0.5381800000000 1.0
C      1  0.5127080000000  0.5502980000000  0.3842360000000 1.0
C      1  0.4867010000000  0.4092390000000  0.4616080000000 1.0
C      1  0.5299440000000  0.5424830000000  0.4074890000000 1.0
C      1  0.5116770000000  0.4083010000000  0.4444630000000 1.0
C      1  0.4708350000000  0.4192780000000  0.4377520000000 1.0
C      1  0.4180950000000  0.4737360000000  0.5544970000000 1.0
C      1  0.5020860000000  0.4481950000000  0.4070030000000 1.0
C      1  0.5636820000000  0.4686850000000  0.5640120000000 1.0
C      1  0.4486180000000  0.4981870000000  0.4056920000000 1.0
C      1  0.4707780000000  0.5095470000000  0.4907950000000 1.0
C      1  0.4851730000000  0.5710690000000  0.4842690000000 1.0
C      1  0.3809560000000  0.5260750000000  0.5069940000000 1.0
C      1  0.5304620000000  0.5969590000000  0.4804440000000 1.0
C      1  0.5898250000000  0.4413960000000  0.4974190000000 1.0
C      1  0.4294710000000  0.4788770000000  0.4161220000000 1.0
C      1  0.5994070000000  0.5371880000000  0.4674850000000 1.0
C      1  0.5581020000000  0.4130890000000  0.4718560000000 1.0
C      1  0.4350430000000  0.5816270000000  0.5115130000000 1.0
C      1  0.5293480000000  0.5614140000000  0.4306390000000 1.0
C      1  0.4263470000000  0.4955350000000  0.5721120000000 1.0
C      1  0.4535660000000  0.4045450000000  0.5304060000000 1.0
C      1  0.4468040000000  0.5369180000000  0.5129570000000 1.0
C      1  0.4322630000000  0.4880130000000  0.5143370000000 1.0
C      1  0.5089270000000  0.4465050000000  0.4965460000000 1.0
C      1  0.4232550000000  0.5263000000000  0.5648490000000 1.0
C      1  0.5329690000000  0.5095600000000  0.4956260000000 1.0
C      1  0.4992550000000  0.5997740000000  0.5481980000000 1.0
C      1  0.4924060000000  0.4278030000000  0.5687820000000 1.0
C      1  0.5882650000000  0.4515890000000  0.4538660000000 1.0
C      1  0.4702720000000  0.4846740000000  0.3915290000000 1.0
C      1  0.4977670000000  0.4306450000000  0.5186200000000 1.0
C      1  0.5151130000000  0.4072100000000  0.5148600000000 1.0
C      1  0.4033770000000  0.5415060000000  0.4959300000000 1.0
C      1  0.5028290000000  0.5761260000000  0.4332790000000 1.0
C      1  0.5223440000000  0.4924980000000  0.3928250000000 1.0
C      1  0.4757420000000  0.5481350000000  0.4667960000000 1.0
C      1  0.5023010000000  0.5345910000000  0.4646510000000 1.0
C      1  0.5701080000000  0.5156730000000  0.4375740000000 1.0
C      1  0.4813520000000  0.5790440000000  0.5615280000000 1.0
C      1  0.5494750000000  0.4499920000000  0.5830170000000 1.0
C      1  0.4352170000000  0.4275340000000  0.5288120000000 1.0
C      1  0.5683510000000  0.5768850000000  0.5210340000000 1.0
C      1  0.3916360000000  0.4818960000000  0.4835340000000 1.0
C      1  0.4073050000000  0.4868600000000  0.5312540000000 1.0
C      1  0.5110650000000  0.4805790000000  0.6135240000000 1.0
C      1  0.4924410000000  0.4425790000000  0.5446450000000 1.0
C      1  0.4972230000000  0.4252620000000  0.4251720000000 1.0
C      1  0.5429370000000  0.4768860000000  0.5470030000000 1.0
C      1  0.5310000000000  0.4032100000000  0.4662080000000 1.0
C      1  0.4190980000000  0.5417940000000  0.4392510000000 1.0
C      1  0.5381270000000  0.5181000000000  0.5257720000000 1.0
C      1  0.5406470000000  0.4740020000000  0.4409380000000 1.0
C      1  0.5463550000000  0.5277250000000  0.6042920000000 1.0
C      1  0.4485540000000  0.4815020000000  0.5851830000000 1.0
C      1  0.5796740000000  0.4892470000000  0.5045920000000 1.0
C      1  0.5881300000000  0.4793520000000  0.4643850000000 1.0
C      1  0.5034720000000  0.5073540000000  0.6031010000000 1.0
C      1  0.4692090000000  0.5458080000000  0.5291160000000 1.0
C      1  0.5736920000000  0.5155400000000  0.5604980000000 1.0
C      1  0.5449800000000  0.4574180000000  0.4643270000000 1.0
C      1  0.5120220000000  0.4905780000000  0.4874240000000 1.0
C      1  0.5270150000000  0.5889350000000  0.5478830000000 1.0
C      1  0.6006150000000  0.4560210000000  0.4764200000000 1.0
C      1  0.4543250000000  0.5320910000000  0.4832690000000 1.0
C      1  0.4966040000000  0.4722280000000  0.5027200000000 1.0
C      1  0.3927050000000  0.5129290000000  0.5317540000000 1.0
C      1  0.6038540000000  0.5106530000000  0.5532860000000 1.0
C      1  0.5042070000000  0.4874860000000  0.4610710000000 1.0
C      1  0.4049540000000  0.4605900000000  0.4439590000000 1.0
C      1  0.4129520000000  0.5180170000000  0.4493100000000 1.0
C      1  0.4694060000000  0.4678920000000  0.4372280000000 1.0
C      1  0.4683670000000  0.4858860000000  0.5650490000000 1.0
C      1  0.4985490000000  0.4024810000000  0.5599110000000 1.0
C      1  0.5117420000000  0.6211350000000  0.5085290000000 1.0
C      1  0.5378170000000  0.6113870000000  0.5044820000000 1.0
C      1  0.3904890000000  0.4541600000000  0.4680330000000 1.0
C      1  0.4821730000000  0.5683370000000  0.5328410000000 1.0
C      1  0.6056080000000  0.4985990000000  0.5113450000000 1.0
C      1  0.5367130000000  0.5621680000000  0.5572110000000 1.0
C      1  0.5382230000000  0.4026070000000  0.5318350000000 1.0
C      1  0.5311130000000  0.5437600000000  0.5332110000000 1.0
C      1  0.4981590000000  0.5700580000000  0.5096730000000 1.0
C      1  0.5647060000000  0.4141830000000  0.5250830000000 1.0
C      1  0.5633270000000  0.4362810000000  0.4551110000000 1.0
C      1  0.5760430000000  0.5413210000000  0.4494350000000 1.0
C      1  0.4691140000000  0.4328940000000  0.5851650000000 1.0
C      1  0.4764630000000  0.4622390000000  0.4090550000000 1.0
C      1  0.4902220000000  0.5140820000000  0.4197460000000 1.0
C      1  0.4865250000000  0.6142390000000  0.5009530000000 1.0
C      1  0.5207570000000  0.5524210000000  0.5845940000000 1.0
C      1  0.5496520000000  0.5766720000000  0.4731050000000 1.0
C      1  0.5502200000000  0.4264970000000  0.5664500000000 1.0
C      1  0.5289190000000  0.4878540000000  0.5723110000000 1.0
C      1  0.4851870000000  0.4700190000000  0.5479830000000 1.0
C      1  0.5782250000000  0.5401450000000  0.5443870000000 1.0
C      1  0.4235110000000  0.4901560000000  0.4412390000000 1.0
C      1  0.4648660000000  0.4673850000000  0.4996270000000 1.0
C      1  0.4575110000000  0.4867610000000  0.4796120000000 1.0
C      1  0.4508110000000  0.5773830000000  0.5583200000000 1.0
C      1  0.6102150000000  0.5268610000000  0.4934460000000 1.0
C      1  0.5740730000000  0.4785690000000  0.4179020000000 1.0
C      1  0.6033430000000  0.5422410000000  0.5458750000000 1.0
C      1  0.4623000000000  0.5192270000000  0.4215750000000 1.0
C      1  0.4720060000000  0.3891350000000  0.5118070000000 1.0
C      1  0.4862500000000  0.5931490000000  0.4500900000000 1.0
C      1  0.4926590000000  0.5510540000000  0.5757010000000 1.0
C      1  0.4887260000000  0.5085930000000  0.5140850000000 1.0
C      1  0.4419490000000  0.4354920000000  0.5755240000000 1.0
C      1  0.4302060000000  0.4452880000000  0.5507340000000 1.0
C      1  0.4849160000000  0.5599490000000  0.3890740000000 1.0
C      1  0.4782370000000  0.6070790000000  0.5281070000000 1.0
C      1  0.4461530000000  0.4329670000000  0.4460470000000 1.0
C      1  0.5678550000000  0.5178350000000  0.5893300000000 1.0
C      1  0.5357550000000  0.5138990000000  0.4081790000000 1.0
C      1  0.5650380000000  0.5624760000000  0.4951930000000 1.0
C      1  0.4784580000000  0.3929190000000  0.5407420000000 1.0
C      1  0.5766670000000  0.4608240000000  0.5157790000000 1.0
C      1  0.4175420000000  0.4950450000000  0.4896690000000 1.0
C      1  0.5360700000000  0.4573040000000  0.4927520000000 1.0
C      1  0.4281180000000  0.4513750000000  0.4303050000000 1.0
C      1  0.4449780000000  0.4305870000000  0.4760700000000 1.0
C      1  0.4888050000000  0.5278010000000  0.5330160000000 1.0
C      1  0.5646460000000  0.5060420000000  0.4858410000000 1.0
C      1  0.4517150000000  0.4539120000000  0.5933030000000 1.0
C      1  0.4209530000000  0.5234010000000  0.4780460000000 1.0
C      1  0.5483380000000  0.5959750000000  0.5290800000000 1.0
C      1  0.4348430000000  0.5775920000000  0.4471320000000 1.0
C      1  0.5514730000000  0.5609850000000  0.4490080000000 1.0
C      1  0.4462050000000  0.5102620000000  0.5282430000000 1.0
C      1  0.5049140000000  0.5037100000000  0.5741390000000 1.0
C      1  0.4802400000000  0.5663290000000  0.4182330000000 1.0
C      1  0.5279800000000  0.4593290000000  0.6014530000000 1.0
C      1  0.4255220000000  0.4273630000000  0.4987740000000 1.0
C      1  0.5268320000000  0.4091560000000  0.5577320000000 1.0
C      1  0.4981140000000  0.5958400000000  0.4762060000000 1.0
C      1  0.4182300000000  0.5539680000000  0.5174180000000 1.0
C      1  0.4619210000000  0.5471650000000  0.4340420000000 1.0
C      1  0.5488760000000  0.4644220000000  0.5159980000000 1.0
C      1  0.4556780000000  0.5910030000000  0.4597740000000 1.0
C      1  0.5730610000000  0.4181270000000  0.4971590000000 1.0
C      1  0.5076390000000  0.5127720000000  0.4451340000000 1.0
C      1  0.4916340000000  0.4406690000000  0.4732630000000 1.0
C      1  0.5150690000000  0.3928350000000  0.4891140000000 1.0
C      1  0.4945040000000  0.5013480000000  0.3938050000000 1.0
C      1  0.6068260000000  0.5404260000000  0.5173950000000 1.0
C      1  0.4684560000000  0.4398780000000  0.4915410000000 1.0
C      1  0.4352620000000  0.5585530000000  0.4316540000000 1.0
C      1  0.4086430000000  0.5348390000000  0.5420380000000 1.0
END
