TITL C-3909768-8671-38 58.6136819065066 125000 -20310.9444724781 0 0 135 (C1) n - 1
REM
REM in /home/nfs/bkarasulu/CARBON/AIRSS/Generating-Clusters/ReaxFF-fromJPCA2015/Units_Real/with-SteepDescent/Only-C1/SD-CG/Try1-3A/FIRE-CG
REM
REM
REM
REM
REM
REM ./C.cell (11c1c37f851c82e70ff6c80c92926a4b)
REM
REM compiler GCC version 9.2.1 20190827 (Red Hat 9.2.1-1)
REM options -cpp -mtune=generic -march=x86-64 -g -O0 -fpre-include=/usr/include/finclude/math-vector-fortran.h
REM seed 779493744 -691083818 1876697375 623302263 1132775835 -409771155 891459994 -324848050 1968550541 -519129317 485470910 678621354 -1362763602 1670280350 -729071810 1250148239 217606083 1759969938 2062690462 -1347514403 -42969640 -716044729 -2104228932 55819106 -296723075 1390681951 1988313385 864292151 -971555427 -1173585914 379588077 -1870802263 -1309750855
REM
CELL 1.54180   50.00000   50.00000   50.00000   90.00000   90.00000   90.00000
LATT -1
SFAC C  
C      1  0.5330930000000  0.5401270000000  0.4360950000000 1.0
C      1  0.5571470000000  0.5529740000000  0.4494780000000 1.0
C      1  0.4515540000000  0.5573070000000  0.5248270000000 1.0
C      1  0.5186840000000  0.5558000000000  0.5524540000000 1.0
C      1  0.4898980000000  0.4820060000000  0.4453270000000 1.0
C      1  0.4586760000000  0.5018910000000  0.5263120000000 1.0
C      1  0.5093530000000  0.4772880000000  0.5829890000000 1.0
C      1  0.4364360000000  0.5556900000000  0.4963020000000 1.0
C      1  0.5366430000000  0.4178390000000  0.5509290000000 1.0
C      1  0.4243850000000  0.4991770000000  0.5670020000000 1.0
C      1  0.4377840000000  0.4732890000000  0.4847460000000 1.0
C      1  0.5143100000000  0.4908790000000  0.4854230000000 1.0
C      1  0.3982660000000  0.5250740000000  0.4698410000000 1.0
C      1  0.5441860000000  0.4865000000000  0.4101610000000 1.0
C      1  0.5787420000000  0.5341670000000  0.4569130000000 1.0
C      1  0.4452750000000  0.4544680000000  0.4364670000000 1.0
C      1  0.5589950000000  0.4244330000000  0.4868040000000 1.0
C      1  0.5075410000000  0.5496090000000  0.4933660000000 1.0
C      1  0.5407400000000  0.5019700000000  0.5180170000000 1.0
C      1  0.4486310000000  0.3976180000000  0.5151350000000 1.0
C      1  0.5200660000000  0.4303630000000  0.5696100000000 1.0
C      1  0.5110040000000  0.4120100000000  0.5079660000000 1.0
C      1  0.4585740000000  0.4659070000000  0.5813150000000 1.0
C      1  0.5648770000000  0.5181240000000  0.5328460000000 1.0
C      1  0.5514010000000  0.5764070000000  0.4932220000000 1.0
C      1  0.4644810000000  0.5881630000000  0.5267980000000 1.0
C      1  0.5147130000000  0.5041370000000  0.5940820000000 1.0
C      1  0.4579700000000  0.3985810000000  0.5441250000000 1.0
C      1  0.5401130000000  0.5512640000000  0.5311010000000 1.0
C      1  0.4919280000000  0.4148970000000  0.4849530000000 1.0
C      1  0.4094390000000  0.4926840000000  0.5222310000000 1.0
C      1  0.4866710000000  0.4575260000000  0.4570340000000 1.0
C      1  0.5875090000000  0.4508880000000  0.5150150000000 1.0
C      1  0.4658900000000  0.4214300000000  0.5610390000000 1.0
C      1  0.4490530000000  0.4982480000000  0.4702650000000 1.0
C      1  0.4976500000000  0.4694940000000  0.4033310000000 1.0
C      1  0.5177930000000  0.4884510000000  0.3965040000000 1.0
C      1  0.4060900000000  0.5050270000000  0.4503480000000 1.0
C      1  0.5707360000000  0.4876340000000  0.5652190000000 1.0
C      1  0.5340810000000  0.5305360000000  0.4084260000000 1.0
C      1  0.4458450000000  0.4923150000000  0.5854320000000 1.0
C      1  0.4314090000000  0.5127770000000  0.5256880000000 1.0
C      1  0.4770020000000  0.4880610000000  0.4192980000000 1.0
C      1  0.5619920000000  0.4585410000000  0.5274880000000 1.0
C      1  0.5153960000000  0.4974080000000  0.5347060000000 1.0
C      1  0.5230710000000  0.4643230000000  0.4915470000000 1.0
C      1  0.4745920000000  0.5175880000000  0.5076510000000 1.0
C      1  0.4719110000000  0.5118420000000  0.4791460000000 1.0
C      1  0.4587760000000  0.5641540000000  0.5775240000000 1.0
C      1  0.5476140000000  0.5764800000000  0.4638650000000 1.0
C      1  0.3946970000000  0.4944680000000  0.4744820000000 1.0
C      1  0.5549230000000  0.4934190000000  0.4595900000000 1.0
C      1  0.5381000000000  0.5217470000000  0.5895390000000 1.0
C      1  0.5619220000000  0.4188240000000  0.5389780000000 1.0
C      1  0.5477160000000  0.4475530000000  0.4429250000000 1.0
C      1  0.4444920000000  0.5538960000000  0.4557950000000 1.0
C      1  0.4772210000000  0.5889830000000  0.4209560000000 1.0
C      1  0.5890060000000  0.4924470000000  0.4883770000000 1.0
C      1  0.4691710000000  0.5824430000000  0.5674920000000 1.0
C      1  0.4866640000000  0.5596480000000  0.4228320000000 1.0
C      1  0.5277250000000  0.5323730000000  0.4813600000000 1.0
C      1  0.5056700000000  0.6093480000000  0.4633890000000 1.0
C      1  0.5718690000000  0.5294390000000  0.5594560000000 1.0
C      1  0.5134970000000  0.4039820000000  0.4666600000000 1.0
C      1  0.4603440000000  0.4076360000000  0.4893790000000 1.0
C      1  0.5367160000000  0.5066980000000  0.4884220000000 1.0
C      1  0.5333150000000  0.4096750000000  0.4874150000000 1.0
C      1  0.4774340000000  0.5424250000000  0.5221650000000 1.0
C      1  0.5875440000000  0.5450920000000  0.5020610000000 1.0
C      1  0.4435520000000  0.4263100000000  0.4783400000000 1.0
C      1  0.5930430000000  0.4798690000000  0.5140670000000 1.0
C      1  0.4171100000000  0.5406290000000  0.4842340000000 1.0
C      1  0.4950750000000  0.4839970000000  0.5199350000000 1.0
C      1  0.5570150000000  0.4624760000000  0.5712030000000 1.0
C      1  0.5297680000000  0.4571510000000  0.5790730000000 1.0
C      1  0.5058160000000  0.4426420000000  0.4101630000000 1.0
C      1  0.4986860000000  0.4321040000000  0.5247110000000 1.0
C      1  0.5120160000000  0.4109620000000  0.4379840000000 1.0
C      1  0.5567660000000  0.5125690000000  0.4134770000000 1.0
C      1  0.5748690000000  0.4245970000000  0.5113640000000 1.0
C      1  0.4471350000000  0.4438750000000  0.5660030000000 1.0
C      1  0.5740620000000  0.4738840000000  0.4716740000000 1.0
C      1  0.4832480000000  0.4741690000000  0.5680770000000 1.0
C      1  0.4953700000000  0.4264280000000  0.5528960000000 1.0
C      1  0.5024360000000  0.5155650000000  0.5534680000000 1.0
C      1  0.4093980000000  0.4814680000000  0.4954570000000 1.0
C      1  0.5732550000000  0.5691270000000  0.5110470000000 1.0
C      1  0.4985400000000  0.4485470000000  0.4831720000000 1.0
C      1  0.4450180000000  0.5351860000000  0.4356670000000 1.0
C      1  0.4862620000000  0.6053820000000  0.4835300000000 1.0
C      1  0.4349480000000  0.4452190000000  0.5187510000000 1.0
C      1  0.4465650000000  0.5394830000000  0.5839550000000 1.0
C      1  0.4679820000000  0.5395330000000  0.4182280000000 1.0
C      1  0.4990430000000  0.5026680000000  0.4627800000000 1.0
C      1  0.4348640000000  0.4480940000000  0.4634530000000 1.0
C      1  0.5618920000000  0.5566990000000  0.5661730000000 1.0
C      1  0.5099380000000  0.5169810000000  0.3991880000000 1.0
C      1  0.4582280000000  0.5672020000000  0.4772250000000 1.0
C      1  0.4865460000000  0.6057640000000  0.4426260000000 1.0
C      1  0.5594610000000  0.5725740000000  0.5395430000000 1.0
C      1  0.4835040000000  0.5959560000000  0.5474670000000 1.0
C      1  0.4328400000000  0.4204850000000  0.5177030000000 1.0
C      1  0.5638750000000  0.4463680000000  0.4675500000000 1.0
C      1  0.4679050000000  0.5955600000000  0.4999670000000 1.0
C      1  0.4486440000000  0.4811660000000  0.4267330000000 1.0
C      1  0.4765410000000  0.4855220000000  0.5416040000000 1.0
C      1  0.5816580000000  0.4949780000000  0.5374120000000 1.0
C      1  0.4359950000000  0.5041310000000  0.4422550000000 1.0
C      1  0.4272750000000  0.4517200000000  0.5454770000000 1.0
C      1  0.5450270000000  0.4755840000000  0.4372040000000 1.0
C      1  0.4945650000000  0.5413720000000  0.5446450000000 1.0
C      1  0.5291830000000  0.4313190000000  0.4262770000000 1.0
C      1  0.5213240000000  0.5854110000000  0.4539380000000 1.0
C      1  0.4879160000000  0.5576490000000  0.4738920000000 1.0
C      1  0.4882560000000  0.4234120000000  0.4244620000000 1.0
C      1  0.5401480000000  0.4714330000000  0.5138180000000 1.0
C      1  0.5130260000000  0.5879730000000  0.5488770000000 1.0
C      1  0.4841680000000  0.5192280000000  0.4115160000000 1.0
C      1  0.4160990000000  0.4793750000000  0.5472930000000 1.0
C      1  0.4542290000000  0.4595800000000  0.5062020000000 1.0
C      1  0.4266530000000  0.5288580000000  0.5641300000000 1.0
C      1  0.5694750000000  0.5128720000000  0.4400990000000 1.0
C      1  0.4696860000000  0.4384210000000  0.4416870000000 1.0
C      1  0.4915010000000  0.5161750000000  0.5814190000000 1.0
C      1  0.5003190000000  0.5644460000000  0.4485710000000 1.0
C      1  0.4298580000000  0.5394440000000  0.5374550000000 1.0
C      1  0.5642460000000  0.5105880000000  0.5810650000000 1.0
C      1  0.5881010000000  0.5226380000000  0.4829220000000 1.0
C      1  0.5288820000000  0.5640130000000  0.5073440000000 1.0
C      1  0.4841510000000  0.4564340000000  0.5099640000000 1.0
C      1  0.5661240000000  0.4451400000000  0.5513190000000 1.0
C      1  0.5367250000000  0.5479340000000  0.5770370000000 1.0
C      1  0.5376060000000  0.5981330000000  0.5428830000000 1.0
C      1  0.4628700000000  0.5157170000000  0.5895860000000 1.0
C      1  0.5177010000000  0.5263530000000  0.4551290000000 1.0
END
