TITL C-3909640-4666-15 37.5705380033488 125000 -27996.5016887642 0 0 186 (C1) n - 1
REM
REM in /home/nfs/bkarasulu/CARBON/AIRSS/Generating-Clusters/ReaxFF-fromJPCA2015/Units_Real/with-SteepDescent/Only-C1/SD-CG/Try1-3A/FIRE-CG
REM
REM
REM
REM
REM
REM ./C.cell (11c1c37f851c82e70ff6c80c92926a4b)
REM
REM compiler GCC version 9.2.1 20190827 (Red Hat 9.2.1-1)
REM options -cpp -mtune=generic -march=x86-64 -g -O0 -fpre-include=/usr/include/finclude/math-vector-fortran.h
REM seed 1007255666 -864763184 984031796 -810081637 1275910312 1554611388 1738833671 443815096 193152130 933887487 1096053464 -1279351848 791429198 73242313 -72980341 -1668714317 -2121850217 -873775350 -517701902 -1631073262 577786258 -1893481517 366389724 1278959751 1070608004 2059960313 -894746934 1120900577 1194326005 -823436323 1401203553 1118662351 1538386793
REM
CELL 1.54180   50.00000   50.00000   50.00000   90.00000   90.00000   90.00000
LATT -1
SFAC C  
C      1  0.4777040000000  0.3973120000000  0.5377470000000 1.0
C      1  0.4914540000000  0.5171480000000  0.4915630000000 1.0
C      1  0.5751300000000  0.5055540000000  0.5248220000000 1.0
C      1  0.6002350000000  0.5569720000000  0.5115190000000 1.0
C      1  0.5511430000000  0.5453930000000  0.4291940000000 1.0
C      1  0.4444350000000  0.5629340000000  0.5703700000000 1.0
C      1  0.5747930000000  0.4014070000000  0.5016850000000 1.0
C      1  0.5279570000000  0.5794480000000  0.4250060000000 1.0
C      1  0.5006320000000  0.5830970000000  0.4182930000000 1.0
C      1  0.4758340000000  0.4225740000000  0.5568070000000 1.0
C      1  0.5485140000000  0.4042540000000  0.4665300000000 1.0
C      1  0.5247510000000  0.5244340000000  0.3781390000000 1.0
C      1  0.4474660000000  0.5751410000000  0.5441360000000 1.0
C      1  0.5312780000000  0.5269760000000  0.4431950000000 1.0
C      1  0.4799210000000  0.4778290000000  0.4777640000000 1.0
C      1  0.5352600000000  0.5513200000000  0.5685860000000 1.0
C      1  0.4501580000000  0.4465380000000  0.4166030000000 1.0
C      1  0.4652190000000  0.3959130000000  0.4662320000000 1.0
C      1  0.5305730000000  0.4019990000000  0.5359390000000 1.0
C      1  0.5574530000000  0.5370890000000  0.5549690000000 1.0
C      1  0.4605230000000  0.5900210000000  0.4883720000000 1.0
C      1  0.4349330000000  0.4020770000000  0.5035500000000 1.0
C      1  0.5139950000000  0.5005700000000  0.4086020000000 1.0
C      1  0.4610910000000  0.3930270000000  0.5145830000000 1.0
C      1  0.4341780000000  0.4712140000000  0.4231450000000 1.0
C      1  0.5032200000000  0.6037640000000  0.5021220000000 1.0
C      1  0.4334670000000  0.4983660000000  0.4634000000000 1.0
C      1  0.5359190000000  0.4600770000000  0.6069150000000 1.0
C      1  0.4480900000000  0.4264590000000  0.4369860000000 1.0
C      1  0.4794210000000  0.4442860000000  0.4142850000000 1.0
C      1  0.4770010000000  0.4713800000000  0.5745070000000 1.0
C      1  0.5591100000000  0.5029320000000  0.5879720000000 1.0
C      1  0.5752050000000  0.4131210000000  0.4742520000000 1.0
C      1  0.5599500000000  0.5658890000000  0.4464050000000 1.0
C      1  0.4997720000000  0.5546480000000  0.4094860000000 1.0
C      1  0.4488410000000  0.4509520000000  0.4929130000000 1.0
C      1  0.5477440000000  0.5287720000000  0.4732670000000 1.0
C      1  0.5787140000000  0.5347350000000  0.5736680000000 1.0
C      1  0.5046930000000  0.5445000000000  0.3803580000000 1.0
C      1  0.4667280000000  0.5649400000000  0.5902670000000 1.0
C      1  0.4265060000000  0.4255510000000  0.4564540000000 1.0
C      1  0.5860220000000  0.4710860000000  0.4613840000000 1.0
C      1  0.4444350000000  0.5251980000000  0.4784920000000 1.0
C      1  0.5284410000000  0.4951300000000  0.5186510000000 1.0
C      1  0.4937920000000  0.5466010000000  0.5017570000000 1.0
C      1  0.4080420000000  0.5479050000000  0.5269320000000 1.0
C      1  0.5254650000000  0.5982940000000  0.5536610000000 1.0
C      1  0.4953640000000  0.5914620000000  0.5577710000000 1.0
C      1  0.4173990000000  0.4516740000000  0.5275380000000 1.0
C      1  0.5076130000000  0.4725440000000  0.4799520000000 1.0
C      1  0.5923180000000  0.5188400000000  0.4422610000000 1.0
C      1  0.5432420000000  0.6030230000000  0.4892620000000 1.0
C      1  0.5361530000000  0.5386310000000  0.4971240000000 1.0
C      1  0.4488650000000  0.4675630000000  0.5815390000000 1.0
C      1  0.5045630000000  0.3912370000000  0.5283900000000 1.0
C      1  0.4928760000000  0.4364220000000  0.5333970000000 1.0
C      1  0.4544540000000  0.4349450000000  0.5445550000000 1.0
C      1  0.4373310000000  0.5628330000000  0.4440280000000 1.0
C      1  0.5196400000000  0.4957260000000  0.4900380000000 1.0
C      1  0.5154460000000  0.4763900000000  0.5395750000000 1.0
C      1  0.4415040000000  0.4429720000000  0.5667440000000 1.0
C      1  0.5786840000000  0.5738410000000  0.4968730000000 1.0
C      1  0.5379140000000  0.5032960000000  0.3911100000000 1.0
C      1  0.5877020000000  0.4479870000000  0.5395880000000 1.0
C      1  0.5994060000000  0.4447240000000  0.5156030000000 1.0
C      1  0.4286090000000  0.4685400000000  0.4814600000000 1.0
C      1  0.4952110000000  0.4924750000000  0.6097530000000 1.0
C      1  0.5227440000000  0.4234230000000  0.4211700000000 1.0
C      1  0.5356010000000  0.4500100000000  0.4181890000000 1.0
C      1  0.6143210000000  0.4717720000000  0.5045850000000 1.0
C      1  0.5424370000000  0.6112950000000  0.5346170000000 1.0
C      1  0.4917230000000  0.4679120000000  0.5975380000000 1.0
C      1  0.4755190000000  0.4491030000000  0.4834020000000 1.0
C      1  0.5460330000000  0.5789100000000  0.5614460000000 1.0
C      1  0.4939020000000  0.4201000000000  0.4204540000000 1.0
C      1  0.4580790000000  0.5195770000000  0.5540580000000 1.0
C      1  0.4932700000000  0.4395790000000  0.4607520000000 1.0
C      1  0.4013310000000  0.5414910000000  0.4637220000000 1.0
C      1  0.5171110000000  0.5350090000000  0.6046790000000 1.0
C      1  0.4139610000000  0.4768140000000  0.5089030000000 1.0
C      1  0.4466490000000  0.5307290000000  0.4085120000000 1.0
C      1  0.3900730000000  0.5217970000000  0.4817150000000 1.0
C      1  0.4753920000000  0.4939430000000  0.5008830000000 1.0
C      1  0.5308500000000  0.4532380000000  0.5337770000000 1.0
C      1  0.5948710000000  0.5034420000000  0.5478650000000 1.0
C      1  0.4780160000000  0.3869570000000  0.4905150000000 1.0
C      1  0.4165250000000  0.4562920000000  0.5567710000000 1.0
C      1  0.5107540000000  0.5364310000000  0.5450570000000 1.0
C      1  0.4604230000000  0.5344330000000  0.5297210000000 1.0
C      1  0.4775990000000  0.5972880000000  0.4645440000000 1.0
C      1  0.4253320000000  0.5407800000000  0.5744680000000 1.0
C      1  0.3934780000000  0.4701370000000  0.4566460000000 1.0
C      1  0.4726690000000  0.5264430000000  0.4699860000000 1.0
C      1  0.4297950000000  0.5674410000000  0.5211020000000 1.0
C      1  0.3962140000000  0.5063780000000  0.5509380000000 1.0
C      1  0.6097600000000  0.5372610000000  0.4914990000000 1.0
C      1  0.4781190000000  0.5895480000000  0.4370270000000 1.0
C      1  0.4861650000000  0.5007090000000  0.4136750000000 1.0
C      1  0.6064720000000  0.4771900000000  0.4781170000000 1.0
C      1  0.4815770000000  0.5442100000000  0.4496770000000 1.0
C      1  0.4271560000000  0.5457350000000  0.4225530000000 1.0
C      1  0.5578740000000  0.6188880000000  0.5101620000000 1.0
C      1  0.4641660000000  0.5665850000000  0.4418150000000 1.0
C      1  0.5444010000000  0.4111990000000  0.4378970000000 1.0
C      1  0.4501450000000  0.4942780000000  0.5425050000000 1.0
C      1  0.5288210000000  0.4983760000000  0.4311740000000 1.0
C      1  0.5483890000000  0.4988980000000  0.4803180000000 1.0
C      1  0.5300710000000  0.6073440000000  0.4645150000000 1.0
C      1  0.4355650000000  0.5178960000000  0.5898450000000 1.0
C      1  0.5702080000000  0.5534860000000  0.4699790000000 1.0
C      1  0.4790570000000  0.4887530000000  0.4391170000000 1.0
C      1  0.6011680000000  0.5339540000000  0.5571050000000 1.0
C      1  0.5195750000000  0.5072030000000  0.6155260000000 1.0
C      1  0.4727540000000  0.5898870000000  0.5395760000000 1.0
C      1  0.4690580000000  0.4800210000000  0.5262570000000 1.0
C      1  0.4875490000000  0.4785760000000  0.5487640000000 1.0
C      1  0.4281260000000  0.5548070000000  0.4705250000000 1.0
C      1  0.5414050000000  0.4894370000000  0.6066430000000 1.0
C      1  0.3830340000000  0.5067710000000  0.5248660000000 1.0
C      1  0.5323200000000  0.3920170000000  0.4884510000000 1.0
C      1  0.5783880000000  0.4590590000000  0.5630740000000 1.0
C      1  0.5762690000000  0.4889570000000  0.5699700000000 1.0
C      1  0.4117700000000  0.5047450000000  0.4432840000000 1.0
C      1  0.5053290000000  0.5405550000000  0.4346290000000 1.0
C      1  0.5316540000000  0.4269700000000  0.5537790000000 1.0
C      1  0.5029340000000  0.6082120000000  0.4738710000000 1.0
C      1  0.4768120000000  0.5979710000000  0.5115310000000 1.0
C      1  0.5684210000000  0.5741060000000  0.5427310000000 1.0
C      1  0.5433620000000  0.5896440000000  0.4456360000000 1.0
C      1  0.5965200000000  0.4895890000000  0.4404150000000 1.0
C      1  0.5933050000000  0.4224000000000  0.4972850000000 1.0
C      1  0.5941810000000  0.5564990000000  0.5404110000000 1.0
C      1  0.5779890000000  0.4802320000000  0.4191740000000 1.0
C      1  0.5502000000000  0.4574180000000  0.5124280000000 1.0
C      1  0.5225070000000  0.4703440000000  0.4343630000000 1.0
C      1  0.3910510000000  0.5306850000000  0.5102910000000 1.0
C      1  0.4138600000000  0.4199620000000  0.5164670000000 1.0
C      1  0.4291630000000  0.4896730000000  0.5844640000000 1.0
C      1  0.4630350000000  0.5249560000000  0.5824900000000 1.0
C      1  0.5265970000000  0.5844020000000  0.5057560000000 1.0
C      1  0.5654670000000  0.4523430000000  0.4214340000000 1.0
C      1  0.5524300000000  0.4435400000000  0.5922010000000 1.0
C      1  0.4085180000000  0.4833210000000  0.5652920000000 1.0
C      1  0.5317670000000  0.5244610000000  0.5212650000000 1.0
C      1  0.5182520000000  0.5591520000000  0.4940300000000 1.0
C      1  0.4669050000000  0.5158060000000  0.3964700000000 1.0
C      1  0.5170380000000  0.4460790000000  0.4770580000000 1.0
C      1  0.5420880000000  0.5336510000000  0.5921250000000 1.0
C      1  0.4071430000000  0.5336910000000  0.5527400000000 1.0
C      1  0.4937570000000  0.4613890000000  0.4369530000000 1.0
C      1  0.5453040000000  0.4507330000000  0.4840760000000 1.0
C      1  0.4374850000000  0.5736290000000  0.4936990000000 1.0
C      1  0.4917240000000  0.5786260000000  0.5835690000000 1.0
C      1  0.3849500000000  0.4856180000000  0.5041480000000 1.0
C      1  0.4498860000000  0.4873000000000  0.4411590000000 1.0
C      1  0.5581400000000  0.5278230000000  0.5286150000000 1.0
C      1  0.5072880000000  0.4308410000000  0.5708600000000 1.0
C      1  0.5571740000000  0.4728910000000  0.4694640000000 1.0
C      1  0.5024670000000  0.5197110000000  0.5655400000000 1.0
C      1  0.4386410000000  0.4048920000000  0.4744050000000 1.0
C      1  0.4481430000000  0.4517600000000  0.5220500000000 1.0
C      1  0.4768230000000  0.4152070000000  0.4460390000000 1.0
C      1  0.5473930000000  0.3966720000000  0.5129070000000 1.0
C      1  0.5823630000000  0.6064950000000  0.4992320000000 1.0
C      1  0.5109480000000  0.4476240000000  0.5943090000000 1.0
C      1  0.4892520000000  0.4423020000000  0.5116010000000 1.0
C      1  0.5575300000000  0.5762800000000  0.5171550000000 1.0
C      1  0.5651660000000  0.5025360000000  0.4063730000000 1.0
C      1  0.4828260000000  0.5264920000000  0.3717100000000 1.0
C      1  0.4863280000000  0.5469240000000  0.5290070000000 1.0
C      1  0.5719900000000  0.5259480000000  0.4222220000000 1.0
C      1  0.6136880000000  0.4905690000000  0.5266460000000 1.0
C      1  0.4435010000000  0.5218550000000  0.5085870000000 1.0
C      1  0.5570320000000  0.4865450000000  0.5124960000000 1.0
C      1  0.4043010000000  0.5320550000000  0.4367840000000 1.0
C      1  0.4877980000000  0.5103820000000  0.5872040000000 1.0
C      1  0.3938410000000  0.4071930000000  0.5087000000000 1.0
C      1  0.4114500000000  0.4491850000000  0.4662040000000 1.0
C      1  0.4067790000000  0.4784860000000  0.4313040000000 1.0
C      1  0.4313550000000  0.4996000000000  0.5206800000000 1.0
C      1  0.5659130000000  0.4295330000000  0.4382440000000 1.0
C      1  0.4920320000000  0.5504530000000  0.5936960000000 1.0
C      1  0.5945850000000  0.5368390000000  0.4654240000000 1.0
C      1  0.5611520000000  0.4345120000000  0.5676150000000 1.0
C      1  0.5057850000000  0.3866950000000  0.4987350000000 1.0
C      1  0.3851370000000  0.4922810000000  0.4762810000000 1.0
END
