TITL C-3909788-9832-2 -3.37405662322716 125000 -7447.21587844283 0 0 50 (C1) n - 1
REM
REM in /home/nfs/bkarasulu/CARBON/AIRSS/Generating-Clusters/ReaxFF-fromJPCA2015/Units_Real/with-SteepDescent/Only-C1/SD-CG/Try1-3A/FIRE-CG
REM
REM
REM
REM
REM
REM ./C.cell (11c1c37f851c82e70ff6c80c92926a4b)
REM
REM compiler GCC version 9.2.1 20190827 (Red Hat 9.2.1-1)
REM options -cpp -mtune=generic -march=x86-64 -g -O0 -fpre-include=/usr/include/finclude/math-vector-fortran.h
REM seed -877348086 -1571518007 -1582856356 609138310 -1471293055 1237453429 317519153 1381902736 1087439317 -217448215 -1993223178 1016278277 -358864273 857402945 -1918109352 -308536973 1452722840 926658618 -363045030 -460092737 1578412561 -1888125139 -599394201 -1995469645 -571960427 61826868 1344110002 -1661396577 -1640503299 -295421312 1642087033 2064326336 -1443782566
REM
CELL 1.54180   50.00000   50.00000   50.00000   90.00000   90.00000   90.00000
LATT -1
SFAC C  
C      1  0.4569280000000  0.4950240000000  0.4704960000000 1.0
C      1  0.5214030000000  0.5199370000000  0.4902640000000 1.0
C      1  0.4444170000000  0.4810570000000  0.4907500000000 1.0
C      1  0.5373330000000  0.5424830000000  0.4845630000000 1.0
C      1  0.4425550000000  0.4571690000000  0.5288640000000 1.0
C      1  0.5074570000000  0.4443990000000  0.5567650000000 1.0
C      1  0.5142150000000  0.4890060000000  0.4196230000000 1.0
C      1  0.5387020000000  0.4779970000000  0.4526230000000 1.0
C      1  0.4859290000000  0.4568610000000  0.4711600000000 1.0
C      1  0.5483080000000  0.5433020000000  0.5436520000000 1.0
C      1  0.5620590000000  0.5294250000000  0.5255490000000 1.0
C      1  0.4877010000000  0.4232960000000  0.5497290000000 1.0
C      1  0.5505780000000  0.4847050000000  0.5050710000000 1.0
C      1  0.4722170000000  0.4953870000000  0.4484110000000 1.0
C      1  0.5164090000000  0.4665090000000  0.4361040000000 1.0
C      1  0.4841240000000  0.4304140000000  0.5202060000000 1.0
C      1  0.4601610000000  0.4557790000000  0.4853430000000 1.0
C      1  0.5267580000000  0.5345180000000  0.5458560000000 1.0
C      1  0.5663190000000  0.5300510000000  0.4833740000000 1.0
C      1  0.4484940000000  0.4785470000000  0.5456500000000 1.0
C      1  0.5266490000000  0.4490680000000  0.5338440000000 1.0
C      1  0.5479840000000  0.5035750000000  0.4392970000000 1.0
C      1  0.4813900000000  0.5239330000000  0.4509100000000 1.0
C      1  0.5032070000000  0.5166460000000  0.5427510000000 1.0
C      1  0.5244490000000  0.5641160000000  0.4689660000000 1.0
C      1  0.4881960000000  0.4687850000000  0.4452870000000 1.0
C      1  0.5372410000000  0.4736560000000  0.4813870000000 1.0
C      1  0.5054550000000  0.4994250000000  0.4964740000000 1.0
C      1  0.5236840000000  0.5152520000000  0.4226710000000 1.0
C      1  0.4881720000000  0.5142870000000  0.5141570000000 1.0
C      1  0.5085000000000  0.4442340000000  0.5117870000000 1.0
C      1  0.4433890000000  0.5520300000000  0.5576630000000 1.0
C      1  0.4371030000000  0.4827780000000  0.5195520000000 1.0
C      1  0.4983820000000  0.4727370000000  0.5601050000000 1.0
C      1  0.5086990000000  0.4652980000000  0.4898000000000 1.0
C      1  0.5178850000000  0.4889370000000  0.5468040000000 1.0
C      1  0.4783440000000  0.5144370000000  0.5632370000000 1.0
C      1  0.4592340000000  0.5343760000000  0.5621960000000 1.0
C      1  0.4407440000000  0.5602250000000  0.5351440000000 1.0
C      1  0.5384070000000  0.4759770000000  0.5307920000000 1.0
C      1  0.4721710000000  0.4862280000000  0.5610280000000 1.0
C      1  0.4590400000000  0.4420920000000  0.5107770000000 1.0
C      1  0.5034760000000  0.5337610000000  0.4334770000000 1.0
C      1  0.4772290000000  0.5428750000000  0.4726190000000 1.0
C      1  0.4950750000000  0.5653610000000  0.4676110000000 1.0
C      1  0.5665290000000  0.5097660000000  0.5056960000000 1.0
C      1  0.5602060000000  0.5186840000000  0.4591130000000 1.0
C      1  0.5111040000000  0.5601410000000  0.4433360000000 1.0
C      1  0.4542420000000  0.5501290000000  0.5178120000000 1.0
C      1  0.4717490000000  0.5353230000000  0.5016520000000 1.0
END
