TITL C-3909780-8184-1 -0.910169550696928 125000 -9465.44343494098 0 0 63 (C1) n - 1
REM
REM in /home/nfs/bkarasulu/CARBON/AIRSS/Generating-Clusters/ReaxFF-fromJPCA2015/Units_Real/with-SteepDescent/Only-C1/SD-CG/Try1-3A/FIRE-CG
REM
REM
REM
REM
REM
REM ./C.cell (11c1c37f851c82e70ff6c80c92926a4b)
REM
REM compiler GCC version 9.2.1 20190827 (Red Hat 9.2.1-1)
REM options -cpp -mtune=generic -march=x86-64 -g -O0 -fpre-include=/usr/include/finclude/math-vector-fortran.h
REM seed 1392878684 -640812900 -1544387868 -2100501424 219755491 -2109737842 -305615529 -1317529823 1818504925 161232569 147366345 -817436729 -1412558707 -1679433157 319599261 1443790572 453003887 2011411000 80825629 1672252757 -15154055 -1908991405 -1504802088 2010017939 1700307102 -836607672 893691347 -1123804718 -576888354 -1943465362 1005735162 -1041724894 857968698
REM
CELL 1.54180   50.00000   50.00000   50.00000   90.00000   90.00000   90.00000
LATT -1
SFAC C  
C      1  0.5030250000000  0.5296640000000  0.5662640000000 1.0
C      1  0.4962280000000  0.5755170000000  0.5134610000000 1.0
C      1  0.5248430000000  0.5197450000000  0.5471260000000 1.0
C      1  0.5668940000000  0.5266660000000  0.4801230000000 1.0
C      1  0.5669880000000  0.5047420000000  0.4605040000000 1.0
C      1  0.4879830000000  0.5069480000000  0.5749930000000 1.0
C      1  0.4756330000000  0.4265730000000  0.4709180000000 1.0
C      1  0.5312430000000  0.4925000000000  0.5624620000000 1.0
C      1  0.4876800000000  0.4273880000000  0.5258510000000 1.0
C      1  0.4460150000000  0.5143770000000  0.4506150000000 1.0
C      1  0.4983940000000  0.5210280000000  0.4363690000000 1.0
C      1  0.5465100000000  0.5624050000000  0.5247340000000 1.0
C      1  0.5286300000000  0.5151300000000  0.4975770000000 1.0
C      1  0.5437430000000  0.4906930000000  0.4459790000000 1.0
C      1  0.5688700000000  0.4898250000000  0.5205320000000 1.0
C      1  0.5216980000000  0.4435040000000  0.4637770000000 1.0
C      1  0.5846270000000  0.4828380000000  0.4705580000000 1.0
C      1  0.5195560000000  0.5001840000000  0.4322170000000 1.0
C      1  0.4845200000000  0.4164230000000  0.4991190000000 1.0
C      1  0.5268130000000  0.5793530000000  0.5108590000000 1.0
C      1  0.4745800000000  0.5598720000000  0.4996860000000 1.0
C      1  0.4324960000000  0.5425120000000  0.4887930000000 1.0
C      1  0.5470790000000  0.5349770000000  0.5331290000000 1.0
C      1  0.5460400000000  0.4626010000000  0.4531440000000 1.0
C      1  0.4734680000000  0.4837790000000  0.4390220000000 1.0
C      1  0.4838560000000  0.5516730000000  0.5612290000000 1.0
C      1  0.4477210000000  0.5562330000000  0.5100600000000 1.0
C      1  0.4369300000000  0.4677990000000  0.4796470000000 1.0
C      1  0.4807670000000  0.5057120000000  0.4870370000000 1.0
C      1  0.5302610000000  0.4346290000000  0.4924350000000 1.0
C      1  0.4469630000000  0.4621740000000  0.5059380000000 1.0
C      1  0.4567320000000  0.5382030000000  0.5586220000000 1.0
C      1  0.5490930000000  0.5705070000000  0.4953430000000 1.0
C      1  0.5506200000000  0.5498780000000  0.4745870000000 1.0
C      1  0.4777780000000  0.5379770000000  0.4778730000000 1.0
C      1  0.4907610000000  0.5652480000000  0.5378590000000 1.0
C      1  0.4519480000000  0.4448890000000  0.4681620000000 1.0
C      1  0.5535720000000  0.4490790000000  0.4994780000000 1.0
C      1  0.5253650000000  0.5337250000000  0.4748980000000 1.0
C      1  0.4842220000000  0.4523430000000  0.5398690000000 1.0
C      1  0.5347110000000  0.4676390000000  0.5482710000000 1.0
C      1  0.5061170000000  0.4835930000000  0.5746080000000 1.0
C      1  0.4701930000000  0.5117510000000  0.4331290000000 1.0
C      1  0.4803710000000  0.4826280000000  0.4690910000000 1.0
C      1  0.5067690000000  0.4592830000000  0.5566500000000 1.0
C      1  0.4350770000000  0.4986030000000  0.4734350000000 1.0
C      1  0.5578430000000  0.5172550000000  0.5101780000000 1.0
C      1  0.5013250000000  0.5385720000000  0.4588390000000 1.0
C      1  0.4976950000000  0.4264620000000  0.4521280000000 1.0
C      1  0.4274130000000  0.5143730000000  0.4963420000000 1.0
C      1  0.4854320000000  0.4969510000000  0.5134910000000 1.0
C      1  0.5098760000000  0.5098830000000  0.5184770000000 1.0
C      1  0.5019220000000  0.4768020000000  0.4333620000000 1.0
C      1  0.5061790000000  0.4704390000000  0.4621260000000 1.0
C      1  0.4598080000000  0.5099700000000  0.5648280000000 1.0
C      1  0.5114950000000  0.4193390000000  0.5084000000000 1.0
C      1  0.4478570000000  0.4950720000000  0.5430090000000 1.0
C      1  0.5549200000000  0.4655360000000  0.5250240000000 1.0
C      1  0.4411020000000  0.5403430000000  0.5344270000000 1.0
C      1  0.4334240000000  0.5132530000000  0.5258880000000 1.0
C      1  0.4654550000000  0.4744470000000  0.5280050000000 1.0
C      1  0.5657640000000  0.4592830000000  0.4741450000000 1.0
C      1  0.4491060000000  0.5392140000000  0.4652980000000 1.0
END
