TITL C-3909648-4458-16 1.20946181648052 125000 -4684.73537268782 0 0 33 (C1) n - 1
REM
REM in /home/nfs/bkarasulu/CARBON/AIRSS/Generating-Clusters/ReaxFF-fromJPCA2015/Units_Real/with-SteepDescent/Only-C1/SD-CG/Try1-3A/FIRE-CG
REM
REM
REM
REM
REM
REM ./C.cell (11c1c37f851c82e70ff6c80c92926a4b)
REM
REM compiler GCC version 9.2.1 20190827 (Red Hat 9.2.1-1)
REM options -cpp -mtune=generic -march=x86-64 -g -O0 -fpre-include=/usr/include/finclude/math-vector-fortran.h
REM seed 2115332118 -1392901626 1971417195 -1862002793 -1500947694 164376127 1073247565 1084193035 416565502 -54425171 1091153259 -1017085906 -1069467666 1997530644 -557468465 108894510 783507981 270624297 -685692209 -1377219538 83265469 365963168 674221449 1640602163 -203163812 -698743982 1026477425 444344703 -760289158 -1726334299 296909125 -753890377 220858132
REM
CELL 1.54180   50.00000   50.00000   50.00000   90.00000   90.00000   90.00000
LATT -1
SFAC C  
C      1  0.4973350000000  0.4927910000000  0.4764380000000 1.0
C      1  0.5429570000000  0.4633790000000  0.5110160000000 1.0
C      1  0.4520710000000  0.4738070000000  0.5044190000000 1.0
C      1  0.5007060000000  0.4692110000000  0.4925530000000 1.0
C      1  0.4514950000000  0.4718620000000  0.5482540000000 1.0
C      1  0.4383440000000  0.4873910000000  0.5288870000000 1.0
C      1  0.4498280000000  0.5122300000000  0.5393080000000 1.0
C      1  0.5100570000000  0.4790170000000  0.4527720000000 1.0
C      1  0.4792170000000  0.4612720000000  0.5083080000000 1.0
C      1  0.5725580000000  0.4982910000000  0.4323870000000 1.0
C      1  0.4984280000000  0.5511480000000  0.5140610000000 1.0
C      1  0.5237380000000  0.5388950000000  0.4718480000000 1.0
C      1  0.4970060000000  0.5192310000000  0.5431420000000 1.0
C      1  0.5183080000000  0.4580560000000  0.4724500000000 1.0
C      1  0.5609090000000  0.5013710000000  0.4551700000000 1.0
C      1  0.4971910000000  0.5448580000000  0.4841930000000 1.0
C      1  0.5419330000000  0.5200220000000  0.5222310000000 1.0
C      1  0.5609360000000  0.4869400000000  0.4830020000000 1.0
C      1  0.4728630000000  0.5314650000000  0.4742510000000 1.0
C      1  0.4503620000000  0.5371570000000  0.5232960000000 1.0
C      1  0.5497740000000  0.5266930000000  0.4724470000000 1.0
C      1  0.4710930000000  0.5013210000000  0.4633600000000 1.0
C      1  0.4789860000000  0.4739020000000  0.5542160000000 1.0
C      1  0.4946580000000  0.4623140000000  0.5320370000000 1.0
C      1  0.4493150000000  0.4852170000000  0.4780770000000 1.0
C      1  0.4759260000000  0.5048130000000  0.5536260000000 1.0
C      1  0.5262830000000  0.4608310000000  0.5333270000000 1.0
C      1  0.4872990000000  0.4864490000000  0.4368090000000 1.0
C      1  0.4730980000000  0.5582090000000  0.5274300000000 1.0
C      1  0.5563950000000  0.5125260000000  0.4980320000000 1.0
C      1  0.5175340000000  0.5337130000000  0.5324700000000 1.0
C      1  0.5456350000000  0.4618120000000  0.4836750000000 1.0
C      1  0.4577610000000  0.5338050000000  0.4965080000000 1.0
END
