TITL C-3909779-8285-11 1.04630498517467 125000 -17987.1874660233 0 0 120 (C1) n - 1
REM
REM in /home/nfs/bkarasulu/CARBON/AIRSS/Generating-Clusters/ReaxFF-fromJPCA2015/Units_Real/with-SteepDescent/Only-C1/SD-CG/Try1-3A/FIRE-CG
REM
REM
REM
REM
REM
REM ./C.cell (11c1c37f851c82e70ff6c80c92926a4b)
REM
REM compiler GCC version 9.2.1 20190827 (Red Hat 9.2.1-1)
REM options -cpp -mtune=generic -march=x86-64 -g -O0 -fpre-include=/usr/include/finclude/math-vector-fortran.h
REM seed 60450596 174161650 1033249913 1637775918 -623244332 -1216794647 616519119 -937978555 -552353928 -759304109 254948392 -1364071479 -1632629205 -892258523 -534734143 263183432 -95678510 -276199070 -1497205636 199064029 152880222 1823020041 -1533886446 -1779563308 -1111386717 -1365974972 -412428549 -477622817 1867583473 1420814992 494457952 891065408 1905529851
REM
CELL 1.54180   50.00000   50.00000   50.00000   90.00000   90.00000   90.00000
LATT -1
SFAC C  
C      1  0.5528510000000  0.5605480000000  0.5699360000000 1.0
C      1  0.4428160000000  0.5541790000000  0.5426520000000 1.0
C      1  0.4758940000000  0.5350500000000  0.5138520000000 1.0
C      1  0.5192030000000  0.4962360000000  0.4079590000000 1.0
C      1  0.5373270000000  0.5673790000000  0.5198840000000 1.0
C      1  0.5020190000000  0.5551050000000  0.4798850000000 1.0
C      1  0.5069940000000  0.4993910000000  0.5049160000000 1.0
C      1  0.5136320000000  0.4443380000000  0.5253260000000 1.0
C      1  0.4837870000000  0.5250690000000  0.4148410000000 1.0
C      1  0.5058120000000  0.5664920000000  0.5887520000000 1.0
C      1  0.4450230000000  0.5413760000000  0.4396990000000 1.0
C      1  0.4890190000000  0.5812540000000  0.4835190000000 1.0
C      1  0.5107070000000  0.5264250000000  0.5922040000000 1.0
C      1  0.5754390000000  0.4751580000000  0.5387350000000 1.0
C      1  0.4478020000000  0.4936250000000  0.4273950000000 1.0
C      1  0.4857510000000  0.4283300000000  0.4611580000000 1.0
C      1  0.5612060000000  0.5068380000000  0.4373910000000 1.0
C      1  0.5334740000000  0.4607020000000  0.5112920000000 1.0
C      1  0.4308590000000  0.4730820000000  0.5316770000000 1.0
C      1  0.5087910000000  0.5388160000000  0.5441480000000 1.0
C      1  0.4961260000000  0.4789040000000  0.4111180000000 1.0
C      1  0.4210760000000  0.5706900000000  0.5403560000000 1.0
C      1  0.5395350000000  0.4267140000000  0.4478550000000 1.0
C      1  0.5500620000000  0.5045170000000  0.5157820000000 1.0
C      1  0.5540740000000  0.5542110000000  0.4593660000000 1.0
C      1  0.4333150000000  0.4695540000000  0.4343350000000 1.0
C      1  0.4023740000000  0.4994800000000  0.4656580000000 1.0
C      1  0.5129280000000  0.4247220000000  0.5468380000000 1.0
C      1  0.4656310000000  0.4437240000000  0.5123610000000 1.0
C      1  0.4324340000000  0.4341200000000  0.4815770000000 1.0
C      1  0.4652000000000  0.5143430000000  0.4994000000000 1.0
C      1  0.4177960000000  0.4942660000000  0.5464140000000 1.0
C      1  0.4736230000000  0.5465970000000  0.4355720000000 1.0
C      1  0.4770940000000  0.4376190000000  0.4349540000000 1.0
C      1  0.5369080000000  0.5761810000000  0.4671450000000 1.0
C      1  0.5499700000000  0.4544230000000  0.4562750000000 1.0
C      1  0.5086370000000  0.4760230000000  0.5953840000000 1.0
C      1  0.5797060000000  0.4911130000000  0.4559960000000 1.0
C      1  0.5609440000000  0.5316110000000  0.5758510000000 1.0
C      1  0.4383580000000  0.5036680000000  0.5655710000000 1.0
C      1  0.4822570000000  0.4825370000000  0.5823310000000 1.0
C      1  0.4989900000000  0.4064690000000  0.5013060000000 1.0
C      1  0.4474650000000  0.5313790000000  0.5641730000000 1.0
C      1  0.5717090000000  0.5303900000000  0.5485920000000 1.0
C      1  0.5009940000000  0.5219400000000  0.5649960000000 1.0
C      1  0.5526260000000  0.5345800000000  0.4365990000000 1.0
C      1  0.4098190000000  0.5218130000000  0.4487470000000 1.0
C      1  0.5267880000000  0.4889350000000  0.5226330000000 1.0
C      1  0.5441420000000  0.4436710000000  0.5675070000000 1.0
C      1  0.5234720000000  0.4968900000000  0.4792060000000 1.0
C      1  0.5898060000000  0.4969160000000  0.4801860000000 1.0
C      1  0.5388200000000  0.4891490000000  0.5658360000000 1.0
C      1  0.5041800000000  0.5301930000000  0.5176490000000 1.0
C      1  0.5416590000000  0.4218180000000  0.5463650000000 1.0
C      1  0.5204550000000  0.4512350000000  0.5845430000000 1.0
C      1  0.4430490000000  0.5163560000000  0.4809340000000 1.0
C      1  0.5455790000000  0.4899280000000  0.4197500000000 1.0
C      1  0.5174840000000  0.5653540000000  0.5428740000000 1.0
C      1  0.4990080000000  0.4513490000000  0.4203570000000 1.0
C      1  0.5012210000000  0.4315170000000  0.5742100000000 1.0
C      1  0.4222590000000  0.5316170000000  0.4936360000000 1.0
C      1  0.5802610000000  0.4441770000000  0.4845930000000 1.0
C      1  0.5332410000000  0.5435190000000  0.4163900000000 1.0
C      1  0.5469240000000  0.5136270000000  0.4898170000000 1.0
C      1  0.4112700000000  0.4897640000000  0.5178030000000 1.0
C      1  0.4226710000000  0.5799690000000  0.5160890000000 1.0
C      1  0.5178590000000  0.5939830000000  0.4817330000000 1.0
C      1  0.4357820000000  0.5809350000000  0.4910830000000 1.0
C      1  0.4201780000000  0.5582490000000  0.4798730000000 1.0
C      1  0.5635620000000  0.5360710000000  0.4812300000000 1.0
C      1  0.4766730000000  0.5766780000000  0.4265260000000 1.0
C      1  0.4527210000000  0.4815850000000  0.5798490000000 1.0
C      1  0.4531850000000  0.4506620000000  0.4453590000000 1.0
C      1  0.4841550000000  0.4903620000000  0.4594390000000 1.0
C      1  0.4173450000000  0.4494430000000  0.4674180000000 1.0
C      1  0.4733120000000  0.4981240000000  0.4145510000000 1.0
C      1  0.5760030000000  0.5042090000000  0.5291200000000 1.0
C      1  0.5225480000000  0.5014480000000  0.6024120000000 1.0
C      1  0.5635100000000  0.4574630000000  0.5192720000000 1.0
C      1  0.5798800000000  0.4608730000000  0.4617600000000 1.0
C      1  0.4646490000000  0.5799710000000  0.4997170000000 1.0
C      1  0.5729520000000  0.4312360000000  0.5087950000000 1.0
C      1  0.4583450000000  0.4628730000000  0.5385250000000 1.0
C      1  0.5487740000000  0.4155610000000  0.5184300000000 1.0
C      1  0.4404170000000  0.5147230000000  0.4471640000000 1.0
C      1  0.4669740000000  0.4698640000000  0.4656210000000 1.0
C      1  0.5255990000000  0.5742390000000  0.5703340000000 1.0
C      1  0.4856240000000  0.4778030000000  0.5543540000000 1.0
C      1  0.5951850000000  0.5103050000000  0.5041330000000 1.0
C      1  0.4719680000000  0.4344550000000  0.5770730000000 1.0
C      1  0.4731580000000  0.5316130000000  0.5764650000000 1.0
C      1  0.5113010000000  0.4918470000000  0.5517700000000 1.0
C      1  0.5919390000000  0.5379200000000  0.4930250000000 1.0
C      1  0.5358880000000  0.5958660000000  0.5043620000000 1.0
C      1  0.5282960000000  0.4654540000000  0.4789940000000 1.0
C      1  0.5261470000000  0.4408780000000  0.4249910000000 1.0
C      1  0.5189510000000  0.5502310000000  0.5041270000000 1.0
C      1  0.4050000000000  0.5072110000000  0.4943640000000 1.0
C      1  0.4887450000000  0.5460880000000  0.5977030000000 1.0
C      1  0.5285560000000  0.4062190000000  0.4986380000000 1.0
C      1  0.4796390000000  0.4913920000000  0.5049560000000 1.0
C      1  0.4198300000000  0.5493230000000  0.4519800000000 1.0
C      1  0.5079830000000  0.4430280000000  0.4768770000000 1.0
C      1  0.5114500000000  0.5242930000000  0.4081800000000 1.0
C      1  0.4957650000000  0.4351280000000  0.5077540000000 1.0
C      1  0.4934660000000  0.5378680000000  0.4591800000000 1.0
C      1  0.4108880000000  0.4733870000000  0.4538940000000 1.0
C      1  0.5267990000000  0.4182620000000  0.4721370000000 1.0
C      1  0.4523250000000  0.4542760000000  0.5667860000000 1.0
C      1  0.5286270000000  0.5719600000000  0.4128230000000 1.0
C      1  0.4768660000000  0.4104210000000  0.4823580000000 1.0
C      1  0.5592940000000  0.4681890000000  0.5617200000000 1.0
C      1  0.5027270000000  0.5103490000000  0.4586040000000 1.0
C      1  0.5463970000000  0.4616040000000  0.4263170000000 1.0
C      1  0.5471570000000  0.5073640000000  0.5867150000000 1.0
C      1  0.4632130000000  0.5596780000000  0.5213820000000 1.0
C      1  0.4667660000000  0.4677980000000  0.4949480000000 1.0
C      1  0.4526000000000  0.4215980000000  0.4954930000000 1.0
C      1  0.5019200000000  0.5863690000000  0.4170730000000 1.0
C      1  0.5607640000000  0.5563060000000  0.5424590000000 1.0
END
