TITL C-3909645-4886-5 112.942719517489 125000 -27893.4428467784 0 0 187 (C1) n - 1
REM
REM in /home/nfs/bkarasulu/CARBON/AIRSS/Generating-Clusters/ReaxFF-fromJPCA2015/Units_Real/with-SteepDescent/Only-C1/SD-CG/Try1-3A/FIRE-CG
REM
REM
REM
REM
REM
REM ./C.cell (11c1c37f851c82e70ff6c80c92926a4b)
REM
REM compiler GCC version 9.2.1 20190827 (Red Hat 9.2.1-1)
REM options -cpp -mtune=generic -march=x86-64 -g -O0 -fpre-include=/usr/include/finclude/math-vector-fortran.h
REM seed 1299029600 748313930 -702361841 -2013782524 -298843848 1805617188 -668299160 -1534785997 906362187 1492428783 -1007387618 1795159189 -1763343985 1903884762 -224292254 -523086989 -1240104090 -1359101877 821450443 -991816853 -378289028 -673539570 1942039069 1413769514 2016724398 498381178 -1356327023 1179379146 -596924530 2039254911 -1706692861 1393115366 -373804410
REM
CELL 1.54180   50.00000   50.00000   50.00000   90.00000   90.00000   90.00000
LATT -1
SFAC C  
C      1  0.4587120000000  0.5964170000000  0.5381810000000 1.0
C      1  0.4299320000000  0.5941990000000  0.4853350000000 1.0
C      1  0.4510660000000  0.5368440000000  0.4134160000000 1.0
C      1  0.4461930000000  0.4137920000000  0.5545130000000 1.0
C      1  0.5458480000000  0.5447630000000  0.4336990000000 1.0
C      1  0.5259870000000  0.4427880000000  0.5911760000000 1.0
C      1  0.3903900000000  0.4767540000000  0.5218290000000 1.0
C      1  0.4994590000000  0.5549240000000  0.3999990000000 1.0
C      1  0.4172740000000  0.4630130000000  0.5302610000000 1.0
C      1  0.5045340000000  0.4078410000000  0.4423810000000 1.0
C      1  0.4485900000000  0.5473430000000  0.4804500000000 1.0
C      1  0.4310190000000  0.4271000000000  0.4404450000000 1.0
C      1  0.4760820000000  0.5609730000000  0.5665610000000 1.0
C      1  0.4634610000000  0.4867060000000  0.4147530000000 1.0
C      1  0.5089790000000  0.4478790000000  0.5160280000000 1.0
C      1  0.4589400000000  0.4980570000000  0.4893570000000 1.0
C      1  0.4641940000000  0.5505840000000  0.5208390000000 1.0
C      1  0.4157400000000  0.4378550000000  0.4872040000000 1.0
C      1  0.4867850000000  0.6067340000000  0.5405240000000 1.0
C      1  0.5413620000000  0.5217240000000  0.3843660000000 1.0
C      1  0.5220790000000  0.4481110000000  0.4700140000000 1.0
C      1  0.5866540000000  0.4489140000000  0.5680240000000 1.0
C      1  0.5065130000000  0.4932470000000  0.5779910000000 1.0
C      1  0.5137600000000  0.5038870000000  0.6038920000000 1.0
C      1  0.5198780000000  0.5362030000000  0.4639540000000 1.0
C      1  0.4914210000000  0.4683220000000  0.4987120000000 1.0
C      1  0.4901130000000  0.5197010000000  0.6098440000000 1.0
C      1  0.5863780000000  0.4966550000000  0.4289240000000 1.0
C      1  0.5731550000000  0.4245700000000  0.5603290000000 1.0
C      1  0.4931020000000  0.4044460000000  0.5437630000000 1.0
C      1  0.4654030000000  0.4538030000000  0.4914430000000 1.0
C      1  0.4331090000000  0.4899930000000  0.5267840000000 1.0
C      1  0.4220590000000  0.4799130000000  0.4265130000000 1.0
C      1  0.4707770000000  0.6095370000000  0.4621140000000 1.0
C      1  0.6052430000000  0.4823230000000  0.5007810000000 1.0
C      1  0.5392960000000  0.5186240000000  0.6042710000000 1.0
C      1  0.5256480000000  0.4847400000000  0.4282700000000 1.0
C      1  0.5172540000000  0.4255130000000  0.4188480000000 1.0
C      1  0.4007430000000  0.5503300000000  0.4655530000000 1.0
C      1  0.5561680000000  0.4231770000000  0.4479420000000 1.0
C      1  0.4560500000000  0.4785650000000  0.5964570000000 1.0
C      1  0.5518130000000  0.5143710000000  0.5284110000000 1.0
C      1  0.4925240000000  0.4266440000000  0.5240030000000 1.0
C      1  0.5498990000000  0.5344730000000  0.4075630000000 1.0
C      1  0.5558160000000  0.3976050000000  0.4924630000000 1.0
C      1  0.4393800000000  0.5163910000000  0.5950320000000 1.0
C      1  0.4122410000000  0.5756580000000  0.4728660000000 1.0
C      1  0.5164040000000  0.4673340000000  0.5707720000000 1.0
C      1  0.4797320000000  0.3868380000000  0.4914300000000 1.0
C      1  0.5944080000000  0.4830900000000  0.4536790000000 1.0
C      1  0.5848260000000  0.4568960000000  0.5386300000000 1.0
C      1  0.4346440000000  0.5472940000000  0.4353960000000 1.0
C      1  0.4420310000000  0.4374980000000  0.5701010000000 1.0
C      1  0.4845860000000  0.5598020000000  0.4441220000000 1.0
C      1  0.4319810000000  0.5171610000000  0.5209410000000 1.0
C      1  0.5672420000000  0.5355520000000  0.4555260000000 1.0
C      1  0.4745220000000  0.4399670000000  0.4681150000000 1.0
C      1  0.5178560000000  0.5825190000000  0.5762330000000 1.0
C      1  0.6082520000000  0.5450850000000  0.4863310000000 1.0
C      1  0.4192770000000  0.4643070000000  0.4762930000000 1.0
C      1  0.5204090000000  0.5209250000000  0.4877880000000 1.0
C      1  0.6123050000000  0.4949550000000  0.4749570000000 1.0
C      1  0.4374500000000  0.5931350000000  0.5158110000000 1.0
C      1  0.4138380000000  0.5298770000000  0.4464400000000 1.0
C      1  0.5121200000000  0.5266820000000  0.3936650000000 1.0
C      1  0.4984860000000  0.5749130000000  0.4622200000000 1.0
C      1  0.5807810000000  0.5871570000000  0.5060210000000 1.0
C      1  0.4966090000000  0.5132760000000  0.5564470000000 1.0
C      1  0.5063070000000  0.5709130000000  0.4237740000000 1.0
C      1  0.5155900000000  0.5604590000000  0.4792590000000 1.0
C      1  0.4517830000000  0.5634350000000  0.4546290000000 1.0
C      1  0.5970850000000  0.5252260000000  0.5602380000000 1.0
C      1  0.5416080000000  0.4753240000000  0.5540740000000 1.0
C      1  0.5087500000000  0.6169330000000  0.4686610000000 1.0
C      1  0.5154350000000  0.5077740000000  0.4144990000000 1.0
C      1  0.3909530000000  0.4950220000000  0.4990660000000 1.0
C      1  0.5668550000000  0.4838710000000  0.4098580000000 1.0
C      1  0.5115010000000  0.5108060000000  0.5316460000000 1.0
C      1  0.5880760000000  0.5705220000000  0.4842240000000 1.0
C      1  0.4242690000000  0.4578610000000  0.5612220000000 1.0
C      1  0.5376360000000  0.4994490000000  0.4805910000000 1.0
C      1  0.5916680000000  0.5226610000000  0.4421950000000 1.0
C      1  0.4513540000000  0.5756570000000  0.5565570000000 1.0
C      1  0.4911860000000  0.6001480000000  0.4708570000000 1.0
C      1  0.5705300000000  0.4418340000000  0.4917770000000 1.0
C      1  0.4243150000000  0.5276270000000  0.5769600000000 1.0
C      1  0.5007740000000  0.5465830000000  0.6065410000000 1.0
C      1  0.5786550000000  0.4727120000000  0.5816750000000 1.0
C      1  0.4257630000000  0.5419070000000  0.5036410000000 1.0
C      1  0.4245260000000  0.5631350000000  0.5502900000000 1.0
C      1  0.5490170000000  0.3989620000000  0.4634720000000 1.0
C      1  0.4716730000000  0.4631770000000  0.5403900000000 1.0
C      1  0.5330090000000  0.4942580000000  0.4530270000000 1.0
C      1  0.5107250000000  0.5691400000000  0.5060940000000 1.0
C      1  0.5455160000000  0.5852760000000  0.4595140000000 1.0
C      1  0.5137590000000  0.5988150000000  0.5513900000000 1.0
C      1  0.4255410000000  0.4539090000000  0.4333600000000 1.0
C      1  0.5403300000000  0.5667330000000  0.5857430000000 1.0
C      1  0.5380600000000  0.3976900000000  0.5364280000000 1.0
C      1  0.6142710000000  0.5426030000000  0.5134810000000 1.0
C      1  0.5649830000000  0.4110810000000  0.5367160000000 1.0
C      1  0.5799600000000  0.5700860000000  0.5512160000000 1.0
C      1  0.4690570000000  0.5098030000000  0.5504630000000 1.0
C      1  0.4546790000000  0.5276650000000  0.5351060000000 1.0
C      1  0.4063830000000  0.4886090000000  0.4738730000000 1.0
C      1  0.4897660000000  0.5896050000000  0.5017200000000 1.0
C      1  0.4719060000000  0.4052090000000  0.5648010000000 1.0
C      1  0.4130480000000  0.5008570000000  0.4479830000000 1.0
C      1  0.5994370000000  0.4813220000000  0.5299840000000 1.0
C      1  0.5438110000000  0.4347310000000  0.4234460000000 1.0
C      1  0.4748950000000  0.3987430000000  0.4406840000000 1.0
C      1  0.4819380000000  0.5086870000000  0.4449500000000 1.0
C      1  0.4472410000000  0.5946270000000  0.4613010000000 1.0
C      1  0.3892560000000  0.5237700000000  0.5393860000000 1.0
C      1  0.5673290000000  0.5598870000000  0.5750580000000 1.0
C      1  0.5216540000000  0.4782300000000  0.3830580000000 1.0
C      1  0.5325350000000  0.3899810000000  0.5084310000000 1.0
C      1  0.4673550000000  0.4756940000000  0.3883640000000 1.0
C      1  0.5343480000000  0.4945980000000  0.5294140000000 1.0
C      1  0.4545240000000  0.3959930000000  0.5037410000000 1.0
C      1  0.5473150000000  0.4641510000000  0.4181640000000 1.0
C      1  0.4894780000000  0.4813650000000  0.4531970000000 1.0
C      1  0.4699260000000  0.5692440000000  0.5088790000000 1.0
C      1  0.5352790000000  0.6034170000000  0.5319650000000 1.0
C      1  0.5787140000000  0.5331790000000  0.5811450000000 1.0
C      1  0.5944230000000  0.5464340000000  0.5381160000000 1.0
C      1  0.4087050000000  0.5392680000000  0.5582360000000 1.0
C      1  0.5367020000000  0.4543370000000  0.5146260000000 1.0
C      1  0.5068290000000  0.4728620000000  0.4753200000000 1.0
C      1  0.5127090000000  0.4192820000000  0.5829860000000 1.0
C      1  0.5159290000000  0.5558850000000  0.5317490000000 1.0
C      1  0.5332860000000  0.5722640000000  0.4358880000000 1.0
C      1  0.5474620000000  0.4918850000000  0.3867470000000 1.0
C      1  0.5184080000000  0.4021400000000  0.5566250000000 1.0
C      1  0.4572340000000  0.4176560000000  0.4284390000000 1.0
C      1  0.5454650000000  0.5574300000000  0.5294850000000 1.0
C      1  0.5928710000000  0.4979490000000  0.5533980000000 1.0
C      1  0.5212420000000  0.3920010000000  0.4633240000000 1.0
C      1  0.5550180000000  0.4541560000000  0.5383470000000 1.0
C      1  0.4815440000000  0.4943800000000  0.5044780000000 1.0
C      1  0.5738230000000  0.4859470000000  0.4719260000000 1.0
C      1  0.3986650000000  0.5424760000000  0.4936270000000 1.0
C      1  0.4636750000000  0.5050320000000  0.6053140000000 1.0
C      1  0.4538210000000  0.4863260000000  0.5465320000000 1.0
C      1  0.3852360000000  0.5220610000000  0.5091070000000 1.0
C      1  0.4220480000000  0.4370250000000  0.5148830000000 1.0
C      1  0.5270710000000  0.6127930000000  0.5060950000000 1.0
C      1  0.4959060000000  0.4649730000000  0.3873970000000 1.0
C      1  0.4657300000000  0.3857160000000  0.4648600000000 1.0
C      1  0.4941280000000  0.5694280000000  0.5884510000000 1.0
C      1  0.5340070000000  0.4808810000000  0.5034140000000 1.0
C      1  0.5342370000000  0.6078560000000  0.4765080000000 1.0
C      1  0.4829360000000  0.4218000000000  0.5862060000000 1.0
C      1  0.4883360000000  0.4588600000000  0.5631740000000 1.0
C      1  0.5642640000000  0.5099750000000  0.5919610000000 1.0
C      1  0.4663520000000  0.4413380000000  0.5209440000000 1.0
C      1  0.6088660000000  0.5226480000000  0.4662200000000 1.0
C      1  0.5299270000000  0.5460910000000  0.6038780000000 1.0
C      1  0.5629090000000  0.5112670000000  0.4750290000000 1.0
C      1  0.5640480000000  0.5367010000000  0.5270710000000 1.0
C      1  0.4239490000000  0.5684720000000  0.5220190000000 1.0
C      1  0.4424780000000  0.4174740000000  0.5242960000000 1.0
C      1  0.5517090000000  0.4425420000000  0.4690110000000 1.0
C      1  0.4983290000000  0.5176280000000  0.5066740000000 1.0
C      1  0.5010770000000  0.4304620000000  0.4636520000000 1.0
C      1  0.5711590000000  0.4172500000000  0.5073340000000 1.0
C      1  0.4726000000000  0.4413750000000  0.4208730000000 1.0
C      1  0.4439010000000  0.4735580000000  0.4830390000000 1.0
C      1  0.4400540000000  0.4760570000000  0.4013280000000 1.0
C      1  0.5098670000000  0.3880810000000  0.4896760000000 1.0
C      1  0.4404830000000  0.3955370000000  0.4783120000000 1.0
C      1  0.4624740000000  0.5128440000000  0.4256430000000 1.0
C      1  0.4359680000000  0.4794770000000  0.5760810000000 1.0
C      1  0.4972510000000  0.4403290000000  0.4046590000000 1.0
C      1  0.4978380000000  0.5466920000000  0.5534860000000 1.0
C      1  0.4703880000000  0.5533200000000  0.3970450000000 1.0
C      1  0.5627180000000  0.5852510000000  0.5311140000000 1.0
C      1  0.4744010000000  0.4577970000000  0.4452660000000 1.0
C      1  0.4693080000000  0.4482470000000  0.5840450000000 1.0
C      1  0.5659610000000  0.4896210000000  0.5715390000000 1.0
C      1  0.4252970000000  0.4184250000000  0.4679390000000 1.0
C      1  0.4947180000000  0.5329840000000  0.4495750000000 1.0
C      1  0.4986230000000  0.6143680000000  0.5155820000000 1.0
C      1  0.5667350000000  0.5663550000000  0.4652680000000 1.0
C      1  0.4640480000000  0.5249410000000  0.4852180000000 1.0
C      1  0.3851140000000  0.4965360000000  0.5407200000000 1.0
C      1  0.5796210000000  0.4700290000000  0.4950670000000 1.0
END
