TITL C-3909768-8671-3 78.7693499420493 125000 -26935.8611441934 0 0 180 (C1) n - 1
REM
REM in /home/nfs/bkarasulu/CARBON/AIRSS/Generating-Clusters/ReaxFF-fromJPCA2015/Units_Real/with-SteepDescent/Only-C1/SD-CG/Try1-3A/FIRE-CG
REM
REM
REM
REM
REM
REM ./C.cell (11c1c37f851c82e70ff6c80c92926a4b)
REM
REM compiler GCC version 9.2.1 20190827 (Red Hat 9.2.1-1)
REM options -cpp -mtune=generic -march=x86-64 -g -O0 -fpre-include=/usr/include/finclude/math-vector-fortran.h
REM seed -1053018030 -196809531 870914536 1113259219 615728662 -319560708 -2032962369 901268895 2052997507 -254386812 116988903 -2119648017 1862333281 -1077960650 1679801685 -1523064883 1040944018 -464457544 870402840 -2040017700 1261847885 -1331307375 -1224814455 1690997019 1110863599 -691010813 -1355335417 32993318 1289669363 180207127 -1468057429 -205754930 2006428735
REM
CELL 1.54180   50.00000   50.00000   50.00000   90.00000   90.00000   90.00000
LATT -1
SFAC C  
C      1  0.4819330000000  0.4631950000000  0.6093430000000 1.0
C      1  0.4368000000000  0.5529880000000  0.4171660000000 1.0
C      1  0.4928170000000  0.5900380000000  0.4096330000000 1.0
C      1  0.5079570000000  0.5428830000000  0.3938510000000 1.0
C      1  0.5568370000000  0.5240120000000  0.5631740000000 1.0
C      1  0.4537520000000  0.4976180000000  0.5283830000000 1.0
C      1  0.5916250000000  0.4768970000000  0.5360060000000 1.0
C      1  0.4032670000000  0.4614780000000  0.4892780000000 1.0
C      1  0.4707410000000  0.4852580000000  0.5708080000000 1.0
C      1  0.5862600000000  0.4482890000000  0.4580300000000 1.0
C      1  0.5049200000000  0.4559370000000  0.4113750000000 1.0
C      1  0.4925740000000  0.5573520000000  0.4684400000000 1.0
C      1  0.6013380000000  0.5221100000000  0.5148570000000 1.0
C      1  0.4217480000000  0.4483300000000  0.4419270000000 1.0
C      1  0.4489010000000  0.5092320000000  0.5041430000000 1.0
C      1  0.5341370000000  0.5023730000000  0.6010180000000 1.0
C      1  0.4172030000000  0.4838110000000  0.5742420000000 1.0
C      1  0.4712850000000  0.5133890000000  0.4508500000000 1.0
C      1  0.4444410000000  0.5040440000000  0.4582370000000 1.0
C      1  0.5983050000000  0.5047580000000  0.5387040000000 1.0
C      1  0.4639760000000  0.4362100000000  0.5564050000000 1.0
C      1  0.4446450000000  0.3950700000000  0.4783650000000 1.0
C      1  0.5043700000000  0.4955090000000  0.5981260000000 1.0
C      1  0.5255560000000  0.5673730000000  0.4329300000000 1.0
C      1  0.4695160000000  0.4735030000000  0.5333790000000 1.0
C      1  0.4699710000000  0.6068180000000  0.5363750000000 1.0
C      1  0.5412660000000  0.5873650000000  0.5614070000000 1.0
C      1  0.5413440000000  0.4445630000000  0.5043740000000 1.0
C      1  0.5761900000000  0.4100450000000  0.5110170000000 1.0
C      1  0.5178270000000  0.4709230000000  0.5290820000000 1.0
C      1  0.4604020000000  0.4748480000000  0.5957250000000 1.0
C      1  0.4372920000000  0.4436030000000  0.5689100000000 1.0
C      1  0.5315290000000  0.4942260000000  0.4175200000000 1.0
C      1  0.5668220000000  0.5499900000000  0.5403750000000 1.0
C      1  0.5318710000000  0.4536160000000  0.4588370000000 1.0
C      1  0.5480250000000  0.5418180000000  0.5201980000000 1.0
C      1  0.4207630000000  0.5630360000000  0.5025240000000 1.0
C      1  0.4354290000000  0.4658070000000  0.5864300000000 1.0
C      1  0.5522380000000  0.4320600000000  0.4259780000000 1.0
C      1  0.5509660000000  0.4789000000000  0.6002860000000 1.0
C      1  0.6065200000000  0.4697370000000  0.4622130000000 1.0
C      1  0.4880680000000  0.5941690000000  0.5550060000000 1.0
C      1  0.4771480000000  0.5653420000000  0.5149450000000 1.0
C      1  0.5895330000000  0.5479090000000  0.5195140000000 1.0
C      1  0.5247760000000  0.5505360000000  0.5969090000000 1.0
C      1  0.5666050000000  0.4570590000000  0.4205440000000 1.0
C      1  0.6098210000000  0.4797450000000  0.4893230000000 1.0
C      1  0.4814440000000  0.5252430000000  0.5466630000000 1.0
C      1  0.5137650000000  0.4099640000000  0.4389380000000 1.0
C      1  0.4083140000000  0.4657810000000  0.4608920000000 1.0
C      1  0.4872170000000  0.5618740000000  0.4003200000000 1.0
C      1  0.5803220000000  0.5688710000000  0.5022260000000 1.0
C      1  0.5204300000000  0.5910350000000  0.3995370000000 1.0
C      1  0.4597900000000  0.4726620000000  0.4254110000000 1.0
C      1  0.4399020000000  0.4035890000000  0.5282380000000 1.0
C      1  0.4857970000000  0.5167640000000  0.6053870000000 1.0
C      1  0.5249240000000  0.4619420000000  0.4842700000000 1.0
C      1  0.4689220000000  0.5005060000000  0.4252640000000 1.0
C      1  0.5182210000000  0.5502610000000  0.4824610000000 1.0
C      1  0.4384320000000  0.4251720000000  0.4788190000000 1.0
C      1  0.5750180000000  0.4354130000000  0.4993190000000 1.0
C      1  0.5795510000000  0.4230580000000  0.4723050000000 1.0
C      1  0.5545320000000  0.4490970000000  0.5546980000000 1.0
C      1  0.5427050000000  0.5278380000000  0.5903090000000 1.0
C      1  0.5621360000000  0.5498430000000  0.4072720000000 1.0
C      1  0.4970930000000  0.3914040000000  0.4852860000000 1.0
C      1  0.4948000000000  0.5121280000000  0.5243290000000 1.0
C      1  0.5910780000000  0.4659190000000  0.5080750000000 1.0
C      1  0.5428300000000  0.5427740000000  0.4684910000000 1.0
C      1  0.4653880000000  0.3951350000000  0.4590380000000 1.0
C      1  0.5300090000000  0.4195750000000  0.4615450000000 1.0
C      1  0.4050940000000  0.5158890000000  0.4315370000000 1.0
C      1  0.4259170000000  0.5606100000000  0.4424930000000 1.0
C      1  0.5958080000000  0.5020650000000  0.5893060000000 1.0
C      1  0.4180440000000  0.5325860000000  0.4135120000000 1.0
C      1  0.5509540000000  0.5011090000000  0.4346890000000 1.0
C      1  0.5630830000000  0.3958440000000  0.5286520000000 1.0
C      1  0.5748370000000  0.4842440000000  0.4285970000000 1.0
C      1  0.5642570000000  0.5782780000000  0.5455460000000 1.0
C      1  0.4046840000000  0.5372720000000  0.4526550000000 1.0
C      1  0.5097960000000  0.4166130000000  0.4901040000000 1.0
C      1  0.5975780000000  0.4922450000000  0.4462310000000 1.0
C      1  0.5120930000000  0.4280120000000  0.5658320000000 1.0
C      1  0.4605660000000  0.4373460000000  0.5011470000000 1.0
C      1  0.4678410000000  0.6020250000000  0.4847920000000 1.0
C      1  0.5089200000000  0.4582910000000  0.4407920000000 1.0
C      1  0.4744480000000  0.5184710000000  0.4038380000000 1.0
C      1  0.5007720000000  0.5137990000000  0.3933660000000 1.0
C      1  0.5288270000000  0.6119380000000  0.4929500000000 1.0
C      1  0.4295600000000  0.5414820000000  0.5663630000000 1.0
C      1  0.4890260000000  0.5215040000000  0.4991870000000 1.0
C      1  0.4693440000000  0.4626020000000  0.4546610000000 1.0
C      1  0.3877550000000  0.4840220000000  0.5345570000000 1.0
C      1  0.5132900000000  0.4875580000000  0.4014600000000 1.0
C      1  0.5344890000000  0.4544560000000  0.6011830000000 1.0
C      1  0.5477150000000  0.5601290000000  0.4468870000000 1.0
C      1  0.5299550000000  0.4186420000000  0.5075090000000 1.0
C      1  0.5073610000000  0.4567960000000  0.6106830000000 1.0
C      1  0.5781670000000  0.4653270000000  0.5593950000000 1.0
C      1  0.4983190000000  0.5549940000000  0.5808320000000 1.0
C      1  0.4533240000000  0.5532300000000  0.5784690000000 1.0
C      1  0.4983150000000  0.4769740000000  0.5693290000000 1.0
C      1  0.4142510000000  0.5136950000000  0.5682780000000 1.0
C      1  0.3947260000000  0.5076570000000  0.5498270000000 1.0
C      1  0.5769500000000  0.5646110000000  0.4734280000000 1.0
C      1  0.5029600000000  0.6189300000000  0.5015170000000 1.0
C      1  0.4423400000000  0.4281620000000  0.4477880000000 1.0
C      1  0.5351510000000  0.5993370000000  0.4662280000000 1.0
C      1  0.4884830000000  0.4384160000000  0.5031850000000 1.0
C      1  0.4508810000000  0.4908370000000  0.4821930000000 1.0
C      1  0.5667010000000  0.4765480000000  0.4895230000000 1.0
C      1  0.4043180000000  0.5257830000000  0.4773920000000 1.0
C      1  0.4039650000000  0.5131910000000  0.5043220000000 1.0
C      1  0.4870910000000  0.4410480000000  0.4500200000000 1.0
C      1  0.4304520000000  0.4715720000000  0.4265420000000 1.0
C      1  0.5375350000000  0.4395160000000  0.5761760000000 1.0
C      1  0.5003090000000  0.5457050000000  0.5532730000000 1.0
C      1  0.5881630000000  0.5430440000000  0.4546400000000 1.0
C      1  0.5769340000000  0.4781950000000  0.5860410000000 1.0
C      1  0.4162470000000  0.4417470000000  0.5496800000000 1.0
C      1  0.4804750000000  0.3857790000000  0.5089070000000 1.0
C      1  0.5435910000000  0.5135190000000  0.4644560000000 1.0
C      1  0.5407500000000  0.4567530000000  0.5298070000000 1.0
C      1  0.5118720000000  0.4038100000000  0.5482090000000 1.0
C      1  0.4758230000000  0.4495760000000  0.4112100000000 1.0
C      1  0.4918810000000  0.4480990000000  0.5660290000000 1.0
C      1  0.4518610000000  0.3879710000000  0.5062180000000 1.0
C      1  0.5057150000000  0.5629070000000  0.5302270000000 1.0
C      1  0.4684740000000  0.5462340000000  0.4183550000000 1.0
C      1  0.6074880000000  0.5088650000000  0.4890840000000 1.0
C      1  0.5200500000000  0.5061270000000  0.4614510000000 1.0
C      1  0.5310970000000  0.5603940000000  0.4044820000000 1.0
C      1  0.5154840000000  0.5922910000000  0.4458660000000 1.0
C      1  0.5421880000000  0.5054390000000  0.5454190000000 1.0
C      1  0.4658670000000  0.5410420000000  0.4999290000000 1.0
C      1  0.4866900000000  0.3954480000000  0.5365260000000 1.0
C      1  0.4153420000000  0.5544390000000  0.5437040000000 1.0
C      1  0.4450490000000  0.5722900000000  0.4607870000000 1.0
C      1  0.5148230000000  0.4937010000000  0.5442630000000 1.0
C      1  0.5177440000000  0.5911290000000  0.5416630000000 1.0
C      1  0.4057590000000  0.5436450000000  0.5181020000000 1.0
C      1  0.4552560000000  0.4490930000000  0.5268480000000 1.0
C      1  0.5994740000000  0.5170090000000  0.4620860000000 1.0
C      1  0.5509570000000  0.5128580000000  0.5183960000000 1.0
C      1  0.4661600000000  0.5118960000000  0.5668470000000 1.0
C      1  0.5366250000000  0.5995970000000  0.5186210000000 1.0
C      1  0.4559350000000  0.5818190000000  0.5312280000000 1.0
C      1  0.5534180000000  0.5002810000000  0.4924810000000 1.0
C      1  0.4277410000000  0.5034730000000  0.5211840000000 1.0
C      1  0.3924230000000  0.4829880000000  0.5061620000000 1.0
C      1  0.4768470000000  0.5735110000000  0.5736280000000 1.0
C      1  0.4214980000000  0.4922920000000  0.4439320000000 1.0
C      1  0.4620520000000  0.4075940000000  0.5461740000000 1.0
C      1  0.5615870000000  0.4627590000000  0.4645360000000 1.0
C      1  0.4274760000000  0.5773250000000  0.5282810000000 1.0
C      1  0.4827070000000  0.5774470000000  0.4878900000000 1.0
C      1  0.4937990000000  0.4605270000000  0.5207730000000 1.0
C      1  0.5234440000000  0.4280920000000  0.4183080000000 1.0
C      1  0.4638820000000  0.5964770000000  0.4561830000000 1.0
C      1  0.4169160000000  0.4358040000000  0.4980610000000 1.0
C      1  0.4442430000000  0.5561180000000  0.4852850000000 1.0
C      1  0.5873200000000  0.5154890000000  0.5642220000000 1.0
C      1  0.4614290000000  0.5277470000000  0.5910780000000 1.0
C      1  0.5635640000000  0.5880840000000  0.5188820000000 1.0
C      1  0.4790130000000  0.5421690000000  0.4475410000000 1.0
C      1  0.5374500000000  0.5697640000000  0.5826020000000 1.0
C      1  0.5582160000000  0.4176210000000  0.4524730000000 1.0
C      1  0.5237230000000  0.5524170000000  0.5101270000000 1.0
C      1  0.4875430000000  0.5979570000000  0.4387740000000 1.0
C      1  0.5348190000000  0.4000970000000  0.5296500000000 1.0
C      1  0.4670530000000  0.4292980000000  0.4305750000000 1.0
C      1  0.4976600000000  0.5050280000000  0.4734000000000 1.0
C      1  0.5579050000000  0.5826190000000  0.4607960000000 1.0
C      1  0.4730230000000  0.4739060000000  0.4794790000000 1.0
C      1  0.4031530000000  0.4673950000000  0.5544730000000 1.0
C      1  0.5013500000000  0.4794440000000  0.4851390000000 1.0
C      1  0.5785180000000  0.5447160000000  0.4278010000000 1.0
C      1  0.4926350000000  0.3937930000000  0.4557840000000 1.0
C      1  0.4764360000000  0.6188910000000  0.5088680000000 1.0
C      1  0.4192060000000  0.4251790000000  0.5248740000000 1.0
END
