TITL C-3909651-5577-19 15.6587111057748 125000 -26861.5475397035 0 0 182 (C1) n - 1
REM
REM in /home/nfs/bkarasulu/CARBON/AIRSS/Generating-Clusters/ReaxFF-fromJPCA2015/Units_Real/with-SteepDescent/Only-C1/SD-CG/Try1-3A/FIRE-CG
REM
REM
REM
REM
REM
REM ./C.cell (11c1c37f851c82e70ff6c80c92926a4b)
REM
REM compiler GCC version 9.2.1 20190827 (Red Hat 9.2.1-1)
REM options -cpp -mtune=generic -march=x86-64 -g -O0 -fpre-include=/usr/include/finclude/math-vector-fortran.h
REM seed 2124038233 1073324923 1346141856 726205909 -57659411 -1326097986 722880858 -949110368 1120466586 -1790330030 2062756157 -2101694702 -1048673331 -1026273362 859603280 -671683286 461931501 1551544144 818045699 -1724338532 343181234 1800721511 -943338614 -439417897 1353895742 542119759 -889673057 -292352267 1343058296 2030392282 -1115865736 1288514353 -909757079
REM
CELL 1.54180   50.00000   50.00000   50.00000   90.00000   90.00000   90.00000
LATT -1
SFAC C  
C      1  0.5179480000000  0.5638100000000  0.5872560000000 1.0
C      1  0.4442880000000  0.4430410000000  0.4317750000000 1.0
C      1  0.4416460000000  0.4247090000000  0.5127470000000 1.0
C      1  0.4742340000000  0.4149350000000  0.5557990000000 1.0
C      1  0.4686900000000  0.5459510000000  0.5945860000000 1.0
C      1  0.4968020000000  0.5010940000000  0.6167940000000 1.0
C      1  0.5576230000000  0.5706480000000  0.5569500000000 1.0
C      1  0.4473050000000  0.5895770000000  0.4330350000000 1.0
C      1  0.4848530000000  0.4160780000000  0.4250980000000 1.0
C      1  0.5598080000000  0.5314850000000  0.5852560000000 1.0
C      1  0.5457120000000  0.5246810000000  0.5011350000000 1.0
C      1  0.5147020000000  0.5928140000000  0.4674060000000 1.0
C      1  0.5679450000000  0.4388420000000  0.5677010000000 1.0
C      1  0.4800110000000  0.5718570000000  0.5242070000000 1.0
C      1  0.5367280000000  0.4501130000000  0.4031960000000 1.0
C      1  0.4700040000000  0.4997360000000  0.4910690000000 1.0
C      1  0.5223380000000  0.5435520000000  0.5410080000000 1.0
C      1  0.5032440000000  0.5797900000000  0.5117410000000 1.0
C      1  0.4694820000000  0.5522570000000  0.4591380000000 1.0
C      1  0.4805980000000  0.3998620000000  0.4947320000000 1.0
C      1  0.5642970000000  0.5824550000000  0.4658620000000 1.0
C      1  0.4577090000000  0.5000430000000  0.3941030000000 1.0
C      1  0.4715390000000  0.4408820000000  0.4207690000000 1.0
C      1  0.5891970000000  0.5387440000000  0.5411380000000 1.0
C      1  0.5551320000000  0.3967000000000  0.4842420000000 1.0
C      1  0.5549590000000  0.5824780000000  0.4955200000000 1.0
C      1  0.3954920000000  0.4584550000000  0.4688530000000 1.0
C      1  0.5273150000000  0.4153900000000  0.5627860000000 1.0
C      1  0.5100080000000  0.4341950000000  0.5166580000000 1.0
C      1  0.4495560000000  0.4808260000000  0.6044770000000 1.0
C      1  0.4574400000000  0.5036030000000  0.4429490000000 1.0
C      1  0.4141510000000  0.5452160000000  0.4396590000000 1.0
C      1  0.4347670000000  0.5763890000000  0.4961770000000 1.0
C      1  0.4024190000000  0.4319890000000  0.4812820000000 1.0
C      1  0.4148360000000  0.5110500000000  0.5012680000000 1.0
C      1  0.5058600000000  0.5277530000000  0.5213040000000 1.0
C      1  0.4463890000000  0.5528040000000  0.4825940000000 1.0
C      1  0.4701800000000  0.4324800000000  0.5839470000000 1.0
C      1  0.4800640000000  0.4836210000000  0.3916450000000 1.0
C      1  0.5632530000000  0.4814060000000  0.5863090000000 1.0
C      1  0.4337980000000  0.5023610000000  0.5937410000000 1.0
C      1  0.3965820000000  0.5112450000000  0.5297620000000 1.0
C      1  0.5579340000000  0.4309350000000  0.4462950000000 1.0
C      1  0.5046740000000  0.5734100000000  0.4852590000000 1.0
C      1  0.4216770000000  0.4866020000000  0.5706580000000 1.0
C      1  0.4372900000000  0.4967970000000  0.4191430000000 1.0
C      1  0.5497220000000  0.5057780000000  0.5943400000000 1.0
C      1  0.4941730000000  0.6262670000000  0.4979440000000 1.0
C      1  0.5390460000000  0.4790690000000  0.5455820000000 1.0
C      1  0.5391260000000  0.4761330000000  0.4357500000000 1.0
C      1  0.4637000000000  0.4461270000000  0.5127890000000 1.0
C      1  0.5800220000000  0.5646760000000  0.5374940000000 1.0
C      1  0.4969080000000  0.5477070000000  0.6007800000000 1.0
C      1  0.4379280000000  0.5305510000000  0.4999120000000 1.0
C      1  0.5076010000000  0.5859340000000  0.4395930000000 1.0
C      1  0.4832970000000  0.5654550000000  0.4128370000000 1.0
C      1  0.4706630000000  0.4130010000000  0.4524060000000 1.0
C      1  0.4299850000000  0.4680530000000  0.4300130000000 1.0
C      1  0.5490260000000  0.4728430000000  0.4879830000000 1.0
C      1  0.4800200000000  0.5133890000000  0.5553560000000 1.0
C      1  0.5577420000000  0.5019810000000  0.4852220000000 1.0
C      1  0.4042630000000  0.5039780000000  0.4504060000000 1.0
C      1  0.4551410000000  0.5215970000000  0.6018040000000 1.0
C      1  0.5135700000000  0.4115700000000  0.4279950000000 1.0
C      1  0.5010670000000  0.5222060000000  0.4253840000000 1.0
C      1  0.5179310000000  0.5055970000000  0.5938220000000 1.0
C      1  0.4342490000000  0.5726140000000  0.5503360000000 1.0
C      1  0.4439820000000  0.5374790000000  0.5299990000000 1.0
C      1  0.4796980000000  0.4819430000000  0.4473490000000 1.0
C      1  0.4695480000000  0.4877530000000  0.5434510000000 1.0
C      1  0.5863540000000  0.4557720000000  0.5478240000000 1.0
C      1  0.5832870000000  0.5254630000000  0.4286580000000 1.0
C      1  0.5471730000000  0.5530780000000  0.4998810000000 1.0
C      1  0.4586690000000  0.4672270000000  0.4612790000000 1.0
C      1  0.4170180000000  0.5176520000000  0.4289740000000 1.0
C      1  0.5363500000000  0.4993320000000  0.4502550000000 1.0
C      1  0.5903780000000  0.5009130000000  0.4464830000000 1.0
C      1  0.5039930000000  0.5269310000000  0.3971300000000 1.0
C      1  0.4748200000000  0.4438050000000  0.4660460000000 1.0
C      1  0.5877300000000  0.5668920000000  0.4609170000000 1.0
C      1  0.4996460000000  0.4470910000000  0.4795380000000 1.0
C      1  0.5767220000000  0.4594790000000  0.4893130000000 1.0
C      1  0.4585180000000  0.5601700000000  0.5700430000000 1.0
C      1  0.5552860000000  0.4173460000000  0.5539440000000 1.0
C      1  0.4478640000000  0.4521670000000  0.5949190000000 1.0
C      1  0.5615090000000  0.4724290000000  0.4138290000000 1.0
C      1  0.5190550000000  0.4636820000000  0.5614400000000 1.0
C      1  0.4935240000000  0.4652420000000  0.5449340000000 1.0
C      1  0.4413250000000  0.4220800000000  0.4549860000000 1.0
C      1  0.4288020000000  0.4844580000000  0.5098690000000 1.0
C      1  0.4759710000000  0.5878490000000  0.5657730000000 1.0
C      1  0.5022800000000  0.3815680000000  0.5342790000000 1.0
C      1  0.4572740000000  0.4799400000000  0.5128660000000 1.0
C      1  0.4297940000000  0.5682960000000  0.4349000000000 1.0
C      1  0.5049710000000  0.4740320000000  0.4011700000000 1.0
C      1  0.4943950000000  0.4607610000000  0.4275870000000 1.0
C      1  0.4866260000000  0.4308520000000  0.5016680000000 1.0
C      1  0.4826510000000  0.5301390000000  0.5037020000000 1.0
C      1  0.4299690000000  0.4228280000000  0.4814640000000 1.0
C      1  0.5292950000000  0.4148850000000  0.5139270000000 1.0
C      1  0.5298550000000  0.4797790000000  0.5130580000000 1.0
C      1  0.4064780000000  0.5675760000000  0.4889060000000 1.0
C      1  0.5575580000000  0.5656740000000  0.4218300000000 1.0
C      1  0.5232280000000  0.4412760000000  0.5802880000000 1.0
C      1  0.5806100000000  0.4735720000000  0.4396630000000 1.0
C      1  0.5033930000000  0.4022020000000  0.5543890000000 1.0
C      1  0.5821620000000  0.5726740000000  0.5098610000000 1.0
C      1  0.4214050000000  0.4565850000000  0.5847210000000 1.0
C      1  0.5561950000000  0.5179660000000  0.4603360000000 1.0
C      1  0.4711670000000  0.4436090000000  0.5411840000000 1.0
C      1  0.4157180000000  0.5539770000000  0.5394840000000 1.0
C      1  0.5446650000000  0.5244960000000  0.5447350000000 1.0
C      1  0.5843070000000  0.4962330000000  0.5160650000000 1.0
C      1  0.4595930000000  0.4047730000000  0.5316610000000 1.0
C      1  0.5272870000000  0.4503210000000  0.4716010000000 1.0
C      1  0.5444180000000  0.5702440000000  0.4484380000000 1.0
C      1  0.4913450000000  0.4908000000000  0.4729550000000 1.0
C      1  0.4923580000000  0.5479020000000  0.4780430000000 1.0
C      1  0.5138330000000  0.5060250000000  0.4664530000000 1.0
C      1  0.4020630000000  0.5463500000000  0.4671470000000 1.0
C      1  0.5171460000000  0.6189140000000  0.4824400000000 1.0
C      1  0.5142760000000  0.5019720000000  0.4093060000000 1.0
C      1  0.5133750000000  0.5656870000000  0.4182720000000 1.0
C      1  0.5609540000000  0.5263690000000  0.4081330000000 1.0
C      1  0.5946230000000  0.4830700000000  0.4923540000000 1.0
C      1  0.5352460000000  0.5697330000000  0.5423750000000 1.0
C      1  0.5080270000000  0.5252240000000  0.6124940000000 1.0
C      1  0.5812580000000  0.4448540000000  0.5195550000000 1.0
C      1  0.4678750000000  0.5484840000000  0.5180500000000 1.0
C      1  0.5827890000000  0.5532970000000  0.4346530000000 1.0
C      1  0.5693880000000  0.4211260000000  0.5273280000000 1.0
C      1  0.4665720000000  0.5422800000000  0.4105380000000 1.0
C      1  0.4439880000000  0.4498100000000  0.5497620000000 1.0
C      1  0.5598450000000  0.4996490000000  0.4047110000000 1.0
C      1  0.4392770000000  0.5862090000000  0.5256930000000 1.0
C      1  0.5704200000000  0.5260890000000  0.5581300000000 1.0
C      1  0.4762210000000  0.3848820000000  0.5194530000000 1.0
C      1  0.5423560000000  0.3725920000000  0.4950030000000 1.0
C      1  0.4473390000000  0.4762970000000  0.5592760000000 1.0
C      1  0.4692480000000  0.4994060000000  0.6138860000000 1.0
C      1  0.5720770000000  0.4823240000000  0.5397730000000 1.0
C      1  0.4737900000000  0.5242380000000  0.3893070000000 1.0
C      1  0.5076590000000  0.5133860000000  0.5654320000000 1.0
C      1  0.4026880000000  0.5617250000000  0.5160350000000 1.0
C      1  0.4723620000000  0.5302030000000  0.4378160000000 1.0
C      1  0.5460800000000  0.5572340000000  0.5809540000000 1.0
C      1  0.5085340000000  0.4614740000000  0.5195860000000 1.0
C      1  0.4144030000000  0.4757320000000  0.4533140000000 1.0
C      1  0.5830560000000  0.4804480000000  0.5646350000000 1.0
C      1  0.5553940000000  0.4181810000000  0.5045200000000 1.0
C      1  0.5156390000000  0.4015940000000  0.4545010000000 1.0
C      1  0.5242080000000  0.5929580000000  0.5498890000000 1.0
C      1  0.5388880000000  0.4286500000000  0.4218990000000 1.0
C      1  0.4482960000000  0.4931990000000  0.4699070000000 1.0
C      1  0.6020940000000  0.5293620000000  0.4914190000000 1.0
C      1  0.5230170000000  0.5087970000000  0.5092390000000 1.0
C      1  0.4610470000000  0.5343980000000  0.5545020000000 1.0
C      1  0.5151850000000  0.6035170000000  0.5232000000000 1.0
C      1  0.4899850000000  0.3952990000000  0.4681080000000 1.0
C      1  0.4085670000000  0.4642460000000  0.5215120000000 1.0
C      1  0.5953250000000  0.5575570000000  0.4881880000000 1.0
C      1  0.4769760000000  0.5765070000000  0.4401850000000 1.0
C      1  0.5397640000000  0.5426100000000  0.4589960000000 1.0
C      1  0.5065460000000  0.5853040000000  0.5717710000000 1.0
C      1  0.4935640000000  0.4392520000000  0.5953460000000 1.0
C      1  0.3918630000000  0.4544070000000  0.4967910000000 1.0
C      1  0.5963790000000  0.5224290000000  0.5189430000000 1.0
C      1  0.5149830000000  0.5335220000000  0.4671540000000 1.0
C      1  0.5752650000000  0.4517400000000  0.4569360000000 1.0
C      1  0.5518980000000  0.4537050000000  0.5860130000000 1.0
C      1  0.5365950000000  0.5509910000000  0.4082420000000 1.0
C      1  0.4247380000000  0.4404880000000  0.5312860000000 1.0
C      1  0.5253140000000  0.3863330000000  0.5168640000000 1.0
C      1  0.5341840000000  0.6062370000000  0.5013350000000 1.0
C      1  0.3998060000000  0.5194050000000  0.4747070000000 1.0
C      1  0.5294120000000  0.5039040000000  0.5513700000000 1.0
C      1  0.4034450000000  0.4884970000000  0.5438380000000 1.0
C      1  0.4859940000000  0.6185010000000  0.5222800000000 1.0
C      1  0.6002550000000  0.5051620000000  0.4741690000000 1.0
C      1  0.5194270000000  0.4579870000000  0.4447490000000 1.0
C      1  0.4671730000000  0.5972720000000  0.5347260000000 1.0
C      1  0.5401240000000  0.4165270000000  0.4651550000000 1.0
END
