TITL C-3909789-4856-12 19.4231187058818 125000 -24871.5237343502 0 0 164 (C1) n - 1
REM
REM in /home/nfs/bkarasulu/CARBON/AIRSS/Generating-Clusters/ReaxFF-fromJPCA2015/Units_Real/with-SteepDescent/Only-C1/SD-CG/Try1-3A/FIRE-CG
REM
REM
REM
REM
REM
REM ./C.cell (11c1c37f851c82e70ff6c80c92926a4b)
REM
REM compiler GCC version 9.2.1 20190827 (Red Hat 9.2.1-1)
REM options -cpp -mtune=generic -march=x86-64 -g -O0 -fpre-include=/usr/include/finclude/math-vector-fortran.h
REM seed 13819262 1996191157 444264538 2075670563 603143959 1713357025 402086391 1110066439 -1784449283 -1468723959 859120830 -1989967055 -1334880709 821062699 438254126 425013869 -1022819688 902818816 374162499 -908478067 2109070406 -1495807431 1285880257 -480629206 2034454716 415001190 942505205 2043591527 -1870136229 -1604032863 1769414661 -650565910 2136834317
REM
CELL 1.54180   50.00000   50.00000   50.00000   90.00000   90.00000   90.00000
LATT -1
SFAC C  
C      1  0.5630270000000  0.4115370000000  0.4678660000000 1.0
C      1  0.5529390000000  0.5031200000000  0.5820640000000 1.0
C      1  0.4228560000000  0.4805720000000  0.4653500000000 1.0
C      1  0.3825810000000  0.4934550000000  0.5143160000000 1.0
C      1  0.4451600000000  0.4959210000000  0.4148120000000 1.0
C      1  0.4937170000000  0.6052950000000  0.4742500000000 1.0
C      1  0.5057020000000  0.4523550000000  0.4104450000000 1.0
C      1  0.5717010000000  0.5904750000000  0.4351550000000 1.0
C      1  0.4624910000000  0.5326300000000  0.4773250000000 1.0
C      1  0.5561900000000  0.4812520000000  0.5628810000000 1.0
C      1  0.5390820000000  0.5578590000000  0.4986750000000 1.0
C      1  0.5673580000000  0.5292490000000  0.5778020000000 1.0
C      1  0.5811940000000  0.5197320000000  0.4940370000000 1.0
C      1  0.4195320000000  0.5716780000000  0.4617440000000 1.0
C      1  0.4678630000000  0.5040380000000  0.5145530000000 1.0
C      1  0.3966330000000  0.5239690000000  0.4667480000000 1.0
C      1  0.4430170000000  0.4119080000000  0.5220640000000 1.0
C      1  0.4550190000000  0.4851430000000  0.6064970000000 1.0
C      1  0.4027850000000  0.4443270000000  0.5322760000000 1.0
C      1  0.4278810000000  0.4658210000000  0.5662000000000 1.0
C      1  0.5634740000000  0.5465800000000  0.4083480000000 1.0
C      1  0.4725880000000  0.5007830000000  0.5734630000000 1.0
C      1  0.4356400000000  0.4341200000000  0.4530380000000 1.0
C      1  0.5175580000000  0.4914150000000  0.4975260000000 1.0
C      1  0.5567130000000  0.5566580000000  0.5205260000000 1.0
C      1  0.4257600000000  0.4269860000000  0.5404120000000 1.0
C      1  0.5316470000000  0.5820380000000  0.5590300000000 1.0
C      1  0.4488010000000  0.4146510000000  0.4699190000000 1.0
C      1  0.5069000000000  0.4874390000000  0.6010680000000 1.0
C      1  0.5695320000000  0.4934400000000  0.4157370000000 1.0
C      1  0.4377680000000  0.5092950000000  0.5276300000000 1.0
C      1  0.4780050000000  0.4081530000000  0.4692880000000 1.0
C      1  0.4797510000000  0.4366700000000  0.5113050000000 1.0
C      1  0.5463480000000  0.5997700000000  0.5013070000000 1.0
C      1  0.5972820000000  0.4589120000000  0.4744520000000 1.0
C      1  0.4075520000000  0.5122110000000  0.4417840000000 1.0
C      1  0.4390760000000  0.5207010000000  0.4812000000000 1.0
C      1  0.4759220000000  0.5435280000000  0.4197920000000 1.0
C      1  0.5124790000000  0.4193680000000  0.5609540000000 1.0
C      1  0.4509540000000  0.5813980000000  0.4981680000000 1.0
C      1  0.5169300000000  0.4842780000000  0.5412460000000 1.0
C      1  0.4375320000000  0.5659430000000  0.5689020000000 1.0
C      1  0.5037500000000  0.5128820000000  0.4511080000000 1.0
C      1  0.4383170000000  0.4384270000000  0.5638140000000 1.0
C      1  0.4978420000000  0.4935760000000  0.4739480000000 1.0
C      1  0.4199980000000  0.5377300000000  0.5654540000000 1.0
C      1  0.5241150000000  0.4431420000000  0.5780630000000 1.0
C      1  0.4978370000000  0.5616270000000  0.5289270000000 1.0
C      1  0.4294810000000  0.4874050000000  0.5890250000000 1.0
C      1  0.4996110000000  0.5632990000000  0.4488140000000 1.0
C      1  0.3957830000000  0.5529240000000  0.5224420000000 1.0
C      1  0.5429760000000  0.5569680000000  0.5516190000000 1.0
C      1  0.5348680000000  0.4691590000000  0.4558820000000 1.0
C      1  0.5155700000000  0.5209320000000  0.4021630000000 1.0
C      1  0.4842390000000  0.4151490000000  0.5522490000000 1.0
C      1  0.4669390000000  0.4285950000000  0.5699760000000 1.0
C      1  0.4368950000000  0.4628680000000  0.5153300000000 1.0
C      1  0.6080340000000  0.5038340000000  0.5245850000000 1.0
C      1  0.5036440000000  0.5488880000000  0.5775580000000 1.0
C      1  0.4596170000000  0.4752160000000  0.5040400000000 1.0
C      1  0.4723750000000  0.4541850000000  0.4896980000000 1.0
C      1  0.5472710000000  0.5510290000000  0.5799420000000 1.0
C      1  0.4833420000000  0.5851490000000  0.5393110000000 1.0
C      1  0.5435560000000  0.4314410000000  0.4319140000000 1.0
C      1  0.4862740000000  0.4376050000000  0.4263110000000 1.0
C      1  0.5687850000000  0.4296230000000  0.4447210000000 1.0
C      1  0.5508130000000  0.4534680000000  0.5721620000000 1.0
C      1  0.4377430000000  0.4778830000000  0.5416720000000 1.0
C      1  0.5208340000000  0.4016610000000  0.4945010000000 1.0
C      1  0.5223850000000  0.4222350000000  0.4518210000000 1.0
C      1  0.4480890000000  0.5443640000000  0.4288870000000 1.0
C      1  0.5698640000000  0.5912190000000  0.4879190000000 1.0
C      1  0.3987850000000  0.5526680000000  0.4714580000000 1.0
C      1  0.4833330000000  0.5145730000000  0.5370210000000 1.0
C      1  0.5360420000000  0.4009270000000  0.4692730000000 1.0
C      1  0.5591730000000  0.5969470000000  0.4606440000000 1.0
C      1  0.4943380000000  0.4674880000000  0.5434230000000 1.0
C      1  0.5455910000000  0.5500520000000  0.4705850000000 1.0
C      1  0.5382570000000  0.5357490000000  0.4049080000000 1.0
C      1  0.5711200000000  0.4323410000000  0.5674550000000 1.0
C      1  0.5641920000000  0.4102170000000  0.5483540000000 1.0
C      1  0.5568730000000  0.4897060000000  0.4839520000000 1.0
C      1  0.5856700000000  0.5656050000000  0.4917170000000 1.0
C      1  0.4964570000000  0.4771020000000  0.3998660000000 1.0
C      1  0.5392530000000  0.4221360000000  0.5056170000000 1.0
C      1  0.4405520000000  0.4999910000000  0.4703220000000 1.0
C      1  0.5953390000000  0.4504390000000  0.5249290000000 1.0
C      1  0.5337410000000  0.4579930000000  0.4230420000000 1.0
C      1  0.5704640000000  0.5725050000000  0.4206340000000 1.0
C      1  0.4234810000000  0.5825500000000  0.4894180000000 1.0
C      1  0.5936690000000  0.4795850000000  0.5331140000000 1.0
C      1  0.5252530000000  0.5370570000000  0.5930700000000 1.0
C      1  0.4198920000000  0.5136540000000  0.5847560000000 1.0
C      1  0.4994770000000  0.4480290000000  0.5238600000000 1.0
C      1  0.4445510000000  0.5639860000000  0.4499270000000 1.0
C      1  0.5879440000000  0.4434860000000  0.4976450000000 1.0
C      1  0.4947940000000  0.6090310000000  0.5027910000000 1.0
C      1  0.5088470000000  0.5598620000000  0.5004110000000 1.0
C      1  0.4672660000000  0.5257380000000  0.5584620000000 1.0
C      1  0.4916070000000  0.5735250000000  0.4750960000000 1.0
C      1  0.5855740000000  0.5553680000000  0.5187250000000 1.0
C      1  0.5196510000000  0.5758720000000  0.4324810000000 1.0
C      1  0.5453730000000  0.4810770000000  0.4063610000000 1.0
C      1  0.4409850000000  0.5276670000000  0.5473120000000 1.0
C      1  0.4932940000000  0.4170050000000  0.4457910000000 1.0
C      1  0.4317240000000  0.5192280000000  0.4264980000000 1.0
C      1  0.5228530000000  0.4478730000000  0.5053190000000 1.0
C      1  0.5876000000000  0.4299210000000  0.5438570000000 1.0
C      1  0.6073980000000  0.5061110000000  0.4957050000000 1.0
C      1  0.5371410000000  0.4116060000000  0.5524890000000 1.0
C      1  0.5860980000000  0.4533960000000  0.4480550000000 1.0
C      1  0.4626750000000  0.5626830000000  0.4752010000000 1.0
C      1  0.5891540000000  0.5260540000000  0.4477070000000 1.0
C      1  0.5997270000000  0.5311910000000  0.5344370000000 1.0
C      1  0.5757410000000  0.5225330000000  0.4226620000000 1.0
C      1  0.4802620000000  0.4434000000000  0.5920900000000 1.0
C      1  0.3931350000000  0.5381450000000  0.5452140000000 1.0
C      1  0.4216830000000  0.4439310000000  0.4966080000000 1.0
C      1  0.5149060000000  0.5978360000000  0.5435980000000 1.0
C      1  0.5231550000000  0.6065880000000  0.5157070000000 1.0
C      1  0.4462640000000  0.4511830000000  0.4317880000000 1.0
C      1  0.5177220000000  0.4513410000000  0.4708690000000 1.0
C      1  0.6008720000000  0.4993320000000  0.4495350000000 1.0
C      1  0.4191090000000  0.4530140000000  0.4687280000000 1.0
C      1  0.4915250000000  0.5175620000000  0.4239940000000 1.0
C      1  0.5269230000000  0.5246100000000  0.4636270000000 1.0
C      1  0.5586680000000  0.5048040000000  0.5087310000000 1.0
C      1  0.5662590000000  0.4234310000000  0.4942000000000 1.0
C      1  0.5115030000000  0.5135980000000  0.5374100000000 1.0
C      1  0.4747550000000  0.4892760000000  0.4171600000000 1.0
C      1  0.4636480000000  0.5742330000000  0.5647590000000 1.0
C      1  0.4732300000000  0.4628670000000  0.4372020000000 1.0
C      1  0.4699790000000  0.5960720000000  0.5147620000000 1.0
C      1  0.4927710000000  0.5671080000000  0.4211040000000 1.0
C      1  0.4682420000000  0.4756650000000  0.5586790000000 1.0
C      1  0.4090250000000  0.4825630000000  0.4416100000000 1.0
C      1  0.5059220000000  0.4584170000000  0.5939890000000 1.0
C      1  0.4340700000000  0.4169780000000  0.4953380000000 1.0
C      1  0.4226800000000  0.5175850000000  0.5051990000000 1.0
C      1  0.5087460000000  0.5314790000000  0.4920070000000 1.0
C      1  0.5391590000000  0.5758370000000  0.4540820000000 1.0
C      1  0.5778720000000  0.5412340000000  0.4732900000000 1.0
C      1  0.5839870000000  0.5302480000000  0.5555250000000 1.0
C      1  0.3981590000000  0.5098580000000  0.4936780000000 1.0
C      1  0.3840860000000  0.5142470000000  0.5330370000000 1.0
C      1  0.4823830000000  0.5191800000000  0.4906200000000 1.0
C      1  0.5307860000000  0.4746050000000  0.5169450000000 1.0
C      1  0.4750270000000  0.5510080000000  0.5778530000000 1.0
C      1  0.4733930000000  0.4108280000000  0.5232090000000 1.0
C      1  0.5279610000000  0.5074020000000  0.5959990000000 1.0
C      1  0.5246010000000  0.5159250000000  0.5104210000000 1.0
C      1  0.5431470000000  0.4963760000000  0.4617640000000 1.0
C      1  0.4801230000000  0.4994440000000  0.6017970000000 1.0
C      1  0.4891010000000  0.4634450000000  0.4671070000000 1.0
C      1  0.3988250000000  0.5666970000000  0.4984480000000 1.0
C      1  0.5651820000000  0.4854470000000  0.5347720000000 1.0
C      1  0.4618470000000  0.4649060000000  0.5868930000000 1.0
C      1  0.4914210000000  0.4022260000000  0.4948110000000 1.0
C      1  0.6089090000000  0.4858790000000  0.4744880000000 1.0
C      1  0.5211520000000  0.4929050000000  0.3955490000000 1.0
C      1  0.5122460000000  0.5449850000000  0.5484710000000 1.0
C      1  0.3919860000000  0.4671210000000  0.5241030000000 1.0
C      1  0.4292730000000  0.4730450000000  0.4219160000000 1.0
C      1  0.5875820000000  0.4784500000000  0.4329560000000 1.0
END
