TITL C-3909788-9832-30 62.6070665355039 125000 -21858.2024428501 0 0 150 (C1) n - 1
REM
REM in /home/nfs/bkarasulu/CARBON/AIRSS/Generating-Clusters/ReaxFF-fromJPCA2015/Units_Real/with-SteepDescent/Only-C1/SD-CG/Try1-3A/FIRE-CG
REM
REM
REM
REM
REM
REM ./C.cell (11c1c37f851c82e70ff6c80c92926a4b)
REM
REM compiler GCC version 9.2.1 20190827 (Red Hat 9.2.1-1)
REM options -cpp -mtune=generic -march=x86-64 -g -O0 -fpre-include=/usr/include/finclude/math-vector-fortran.h
REM seed -2108523613 -326941494 -392153184 465369011 -218032387 -766783836 -179095956 589614316 2079569341 1597469323 2142489832 -1653255744 -28663093 -594305943 -2136032049 -1273843938 -1693365335 -2053040140 -53881167 1728113007 1093491348 2084129000 1585970542 -511861634 -1564439426 -162080666 -14273250 -1884812785 1997825496 -1490051076 2078305058 866212115 -212922390
REM
CELL 1.54180   50.00000   50.00000   50.00000   90.00000   90.00000   90.00000
LATT -1
SFAC C  
C      1  0.5126470000000  0.5041670000000  0.4379410000000 1.0
C      1  0.4802820000000  0.4934590000000  0.4056760000000 1.0
C      1  0.4137620000000  0.5346390000000  0.4545990000000 1.0
C      1  0.4953090000000  0.5177750000000  0.4026410000000 1.0
C      1  0.5662710000000  0.4616040000000  0.4906090000000 1.0
C      1  0.5424540000000  0.4737730000000  0.4790860000000 1.0
C      1  0.5263610000000  0.4403970000000  0.5246880000000 1.0
C      1  0.4568220000000  0.5284730000000  0.4741810000000 1.0
C      1  0.4792670000000  0.5990550000000  0.5002890000000 1.0
C      1  0.4466410000000  0.4093110000000  0.4903980000000 1.0
C      1  0.4999730000000  0.5670920000000  0.4014940000000 1.0
C      1  0.5160710000000  0.5094290000000  0.5105920000000 1.0
C      1  0.5456840000000  0.4263710000000  0.5589510000000 1.0
C      1  0.5717500000000  0.4391350000000  0.5473200000000 1.0
C      1  0.5140280000000  0.5479870000000  0.5315310000000 1.0
C      1  0.4550250000000  0.5352560000000  0.4265500000000 1.0
C      1  0.5036930000000  0.6177520000000  0.4960330000000 1.0
C      1  0.4875250000000  0.5837390000000  0.5559480000000 1.0
C      1  0.5373050000000  0.4644890000000  0.4251320000000 1.0
C      1  0.4600600000000  0.5562280000000  0.5146470000000 1.0
C      1  0.5115860000000  0.5212950000000  0.5934970000000 1.0
C      1  0.4661510000000  0.5860380000000  0.4767020000000 1.0
C      1  0.4509060000000  0.5252050000000  0.5755240000000 1.0
C      1  0.5710100000000  0.4324750000000  0.5215160000000 1.0
C      1  0.5311990000000  0.5509230000000  0.4880480000000 1.0
C      1  0.5513260000000  0.5837590000000  0.5332410000000 1.0
C      1  0.4502330000000  0.5072500000000  0.4353540000000 1.0
C      1  0.5005070000000  0.4375710000000  0.4288870000000 1.0
C      1  0.4668010000000  0.4657530000000  0.5629930000000 1.0
C      1  0.4405870000000  0.4556170000000  0.5624680000000 1.0
C      1  0.4395650000000  0.5755250000000  0.4795620000000 1.0
C      1  0.5591780000000  0.5640570000000  0.4517320000000 1.0
C      1  0.5246640000000  0.5601890000000  0.4138000000000 1.0
C      1  0.4726010000000  0.3995080000000  0.4785720000000 1.0
C      1  0.4038240000000  0.4892170000000  0.5367230000000 1.0
C      1  0.4974400000000  0.4783440000000  0.4747030000000 1.0
C      1  0.5861400000000  0.5571980000000  0.4945740000000 1.0
C      1  0.4760960000000  0.4958790000000  0.5181270000000 1.0
C      1  0.5410340000000  0.4236290000000  0.4534130000000 1.0
C      1  0.4627770000000  0.4722420000000  0.4170420000000 1.0
C      1  0.6098680000000  0.5293620000000  0.5325830000000 1.0
C      1  0.5722860000000  0.5234240000000  0.4223890000000 1.0
C      1  0.4463250000000  0.5231100000000  0.5466490000000 1.0
C      1  0.5120100000000  0.5489750000000  0.5597480000000 1.0
C      1  0.4345060000000  0.4266750000000  0.5338750000000 1.0
C      1  0.5197330000000  0.5997650000000  0.5127520000000 1.0
C      1  0.5356890000000  0.5330720000000  0.4655420000000 1.0
C      1  0.5399260000000  0.5008680000000  0.5597970000000 1.0
C      1  0.4067590000000  0.5095660000000  0.4950940000000 1.0
C      1  0.5687850000000  0.5733960000000  0.5113980000000 1.0
C      1  0.5148950000000  0.5777700000000  0.5659940000000 1.0
C      1  0.4768960000000  0.4471460000000  0.5103180000000 1.0
C      1  0.5410520000000  0.4564620000000  0.5839470000000 1.0
C      1  0.5955430000000  0.4989050000000  0.5101220000000 1.0
C      1  0.4792430000000  0.4700270000000  0.5327700000000 1.0
C      1  0.4439280000000  0.5008930000000  0.5908780000000 1.0
C      1  0.5395120000000  0.5239540000000  0.5810400000000 1.0
C      1  0.5472050000000  0.4151220000000  0.4807280000000 1.0
C      1  0.4706460000000  0.5623540000000  0.5647570000000 1.0
C      1  0.4012780000000  0.4687190000000  0.5154680000000 1.0
C      1  0.4967000000000  0.4133010000000  0.5443810000000 1.0
C      1  0.4288100000000  0.5608220000000  0.4565400000000 1.0
C      1  0.5716650000000  0.5512100000000  0.4660050000000 1.0
C      1  0.4589090000000  0.5479390000000  0.5418060000000 1.0
C      1  0.4894560000000  0.5494350000000  0.4426110000000 1.0
C      1  0.4727020000000  0.5952560000000  0.5304490000000 1.0
C      1  0.5337040000000  0.5717720000000  0.4412890000000 1.0
C      1  0.5268250000000  0.4446110000000  0.5687130000000 1.0
C      1  0.4248360000000  0.4493030000000  0.5133420000000 1.0
C      1  0.4910070000000  0.4720870000000  0.5951380000000 1.0
C      1  0.4510970000000  0.5461590000000  0.4514690000000 1.0
C      1  0.4350300000000  0.5666440000000  0.5081440000000 1.0
C      1  0.4139290000000  0.4823970000000  0.4396990000000 1.0
C      1  0.3977790000000  0.4819870000000  0.4893460000000 1.0
C      1  0.5124810000000  0.4917130000000  0.5988550000000 1.0
C      1  0.5812280000000  0.4685060000000  0.5494440000000 1.0
C      1  0.5437240000000  0.5730270000000  0.5602180000000 1.0
C      1  0.4491780000000  0.4291390000000  0.5585990000000 1.0
C      1  0.5794540000000  0.4863050000000  0.4357530000000 1.0
C      1  0.4102880000000  0.5463540000000  0.5205680000000 1.0
C      1  0.5099850000000  0.4628790000000  0.4290830000000 1.0
C      1  0.4145260000000  0.4422060000000  0.4654070000000 1.0
C      1  0.4924220000000  0.4475090000000  0.5780590000000 1.0
C      1  0.4349170000000  0.4663590000000  0.4270020000000 1.0
C      1  0.5478980000000  0.5036320000000  0.4744980000000 1.0
C      1  0.5243480000000  0.5776290000000  0.5248720000000 1.0
C      1  0.5894330000000  0.4660960000000  0.4714790000000 1.0
C      1  0.4517230000000  0.4087030000000  0.5188360000000 1.0
C      1  0.4795180000000  0.4202900000000  0.5211200000000 1.0
C      1  0.5998720000000  0.5353630000000  0.5069820000000 1.0
C      1  0.4630110000000  0.5014210000000  0.4622730000000 1.0
C      1  0.3862310000000  0.5531530000000  0.5186870000000 1.0
C      1  0.5381220000000  0.4831980000000  0.5887120000000 1.0
C      1  0.4838590000000  0.5768770000000  0.4533510000000 1.0
C      1  0.5654010000000  0.4873740000000  0.5142860000000 1.0
C      1  0.4950240000000  0.3991480000000  0.4587960000000 1.0
C      1  0.4208310000000  0.5105170000000  0.4379510000000 1.0
C      1  0.5061130000000  0.4808640000000  0.5418600000000 1.0
C      1  0.4547860000000  0.4800740000000  0.4817730000000 1.0
C      1  0.4662720000000  0.4819570000000  0.5853470000000 1.0
C      1  0.5478120000000  0.5158270000000  0.4090030000000 1.0
C      1  0.4613430000000  0.4400760000000  0.4564810000000 1.0
C      1  0.5804570000000  0.4588620000000  0.4445370000000 1.0
C      1  0.5503310000000  0.5527280000000  0.5092370000000 1.0
C      1  0.6003210000000  0.4891380000000  0.5382200000000 1.0
C      1  0.4985500000000  0.5333130000000  0.5127980000000 1.0
C      1  0.5123170000000  0.5787480000000  0.4607610000000 1.0
C      1  0.4443580000000  0.5907010000000  0.5287940000000 1.0
C      1  0.4042910000000  0.5164370000000  0.5232890000000 1.0
C      1  0.5579480000000  0.5298870000000  0.5213700000000 1.0
C      1  0.4399840000000  0.4805720000000  0.5071790000000 1.0
C      1  0.5707410000000  0.5310030000000  0.5479660000000 1.0
C      1  0.5351770000000  0.4933820000000  0.4242060000000 1.0
C      1  0.5159110000000  0.4382750000000  0.4991470000000 1.0
C      1  0.6030080000000  0.4906700000000  0.4808700000000 1.0
C      1  0.4935920000000  0.4970140000000  0.4953870000000 1.0
C      1  0.5585440000000  0.4843970000000  0.5425800000000 1.0
C      1  0.4251550000000  0.5267810000000  0.4798550000000 1.0
C      1  0.5004240000000  0.3943950000000  0.4867920000000 1.0
C      1  0.5261070000000  0.4147900000000  0.5394970000000 1.0
C      1  0.5543790000000  0.4459090000000  0.4393690000000 1.0
C      1  0.5235840000000  0.4101070000000  0.4983790000000 1.0
C      1  0.5493670000000  0.5080470000000  0.5056160000000 1.0
C      1  0.5539280000000  0.5453750000000  0.5681700000000 1.0
C      1  0.5136140000000  0.4174680000000  0.4450760000000 1.0
C      1  0.4264290000000  0.4311660000000  0.4893870000000 1.0
C      1  0.4484280000000  0.5029000000000  0.5239090000000 1.0
C      1  0.4956310000000  0.4828720000000  0.4462950000000 1.0
C      1  0.4808430000000  0.5421620000000  0.4145500000000 1.0
C      1  0.4030910000000  0.4691090000000  0.4640230000000 1.0
C      1  0.5681960000000  0.4297020000000  0.4949020000000 1.0
C      1  0.5954970000000  0.5146980000000  0.5523820000000 1.0
C      1  0.4790380000000  0.4253760000000  0.5645530000000 1.0
C      1  0.4788320000000  0.5461750000000  0.4952490000000 1.0
C      1  0.5241040000000  0.4597430000000  0.5442390000000 1.0
C      1  0.5056920000000  0.5637880000000  0.4851190000000 1.0
C      1  0.4221450000000  0.4959450000000  0.5736350000000 1.0
C      1  0.4761910000000  0.5399250000000  0.5842400000000 1.0
C      1  0.4665650000000  0.4526290000000  0.4835730000000 1.0
C      1  0.4153190000000  0.4736530000000  0.5594800000000 1.0
C      1  0.5191180000000  0.4605140000000  0.4812100000000 1.0
C      1  0.4736300000000  0.4466130000000  0.4309830000000 1.0
C      1  0.5226690000000  0.5310770000000  0.4043100000000 1.0
C      1  0.5163450000000  0.5075510000000  0.5409500000000 1.0
C      1  0.6028960000000  0.5127420000000  0.4623310000000 1.0
C      1  0.5862060000000  0.5326190000000  0.4465140000000 1.0
C      1  0.5109450000000  0.5311200000000  0.4499290000000 1.0
C      1  0.5648590000000  0.4968280000000  0.4528530000000 1.0
C      1  0.4348210000000  0.4424590000000  0.4440210000000 1.0
C      1  0.4975310000000  0.5301470000000  0.5734110000000 1.0
END
