TITL C-3909647-4341-37 -11.9677142912603 125000 -13233.1280026429 0 0 88 (C1) n - 1
REM
REM in /home/nfs/bkarasulu/CARBON/AIRSS/Generating-Clusters/ReaxFF-fromJPCA2015/Units_Real/with-SteepDescent/Only-C1/SD-CG/Try1-3A/FIRE-CG
REM
REM
REM
REM
REM
REM ./C.cell (11c1c37f851c82e70ff6c80c92926a4b)
REM
REM compiler GCC version 9.2.1 20190827 (Red Hat 9.2.1-1)
REM options -cpp -mtune=generic -march=x86-64 -g -O0 -fpre-include=/usr/include/finclude/math-vector-fortran.h
REM seed 967739819 -636597137 1010910084 1074561319 -1086292576 -1070072615 -255145340 -1432940531 1903378531 -1253080740 1118283081 260385377 -238426330 -1738503084 -1312901303 -1633428292 1566917819 -923276451 -220748130 -1528475258 47224205 1952119229 1885122980 -379910566 422669426 1547193125 -247382959 732347770 574570626 1183784820 -98008360 -1138174080 1981395211
REM
CELL 1.54180   50.00000   50.00000   50.00000   90.00000   90.00000   90.00000
LATT -1
SFAC C  
C      1  0.5137170000000  0.5120870000000  0.5411970000000 1.0
C      1  0.5112590000000  0.5040730000000  0.4210150000000 1.0
C      1  0.4541850000000  0.4459170000000  0.4909470000000 1.0
C      1  0.5013700000000  0.5328970000000  0.4753500000000 1.0
C      1  0.5784070000000  0.5094770000000  0.5558290000000 1.0
C      1  0.5166500000000  0.5629860000000  0.5478240000000 1.0
C      1  0.5654270000000  0.4978630000000  0.4709340000000 1.0
C      1  0.4222870000000  0.5315860000000  0.4779950000000 1.0
C      1  0.4578110000000  0.4540170000000  0.4198880000000 1.0
C      1  0.5157900000000  0.4560720000000  0.5744020000000 1.0
C      1  0.5138990000000  0.5543410000000  0.4576160000000 1.0
C      1  0.4785100000000  0.4312290000000  0.4588870000000 1.0
C      1  0.4825780000000  0.5122820000000  0.5920970000000 1.0
C      1  0.5388890000000  0.4604200000000  0.4440320000000 1.0
C      1  0.4276380000000  0.4842040000000  0.4483040000000 1.0
C      1  0.5407440000000  0.5621370000000  0.4667060000000 1.0
C      1  0.5211580000000  0.4903040000000  0.4825580000000 1.0
C      1  0.4740140000000  0.4887950000000  0.4510120000000 1.0
C      1  0.5815610000000  0.4598200000000  0.5255650000000 1.0
C      1  0.4808170000000  0.5321330000000  0.5699430000000 1.0
C      1  0.5624540000000  0.5625970000000  0.5053650000000 1.0
C      1  0.4300600000000  0.4898560000000  0.5312900000000 1.0
C      1  0.4336220000000  0.5359860000000  0.4505120000000 1.0
C      1  0.4164620000000  0.4811250000000  0.4756050000000 1.0
C      1  0.5772410000000  0.5246020000000  0.4693610000000 1.0
C      1  0.5478430000000  0.4933280000000  0.4939410000000 1.0
C      1  0.4940330000000  0.5067980000000  0.5197770000000 1.0
C      1  0.4423700000000  0.5118690000000  0.4888990000000 1.0
C      1  0.5832310000000  0.4838660000000  0.5386250000000 1.0
C      1  0.4747320000000  0.5489500000000  0.5219930000000 1.0
C      1  0.5104050000000  0.5030610000000  0.5961950000000 1.0
C      1  0.5232960000000  0.4224200000000  0.4847170000000 1.0
C      1  0.5298640000000  0.5190030000000  0.5816730000000 1.0
C      1  0.5018360000000  0.4744110000000  0.5899470000000 1.0
C      1  0.4790320000000  0.4188510000000  0.5088900000000 1.0
C      1  0.5093330000000  0.5786270000000  0.5009310000000 1.0
C      1  0.5367420000000  0.4962950000000  0.5432580000000 1.0
C      1  0.5658850000000  0.5489970000000  0.4621660000000 1.0
C      1  0.4504660000000  0.5571520000000  0.4597160000000 1.0
C      1  0.4455370000000  0.5088250000000  0.5489020000000 1.0
C      1  0.5437190000000  0.5644370000000  0.5429620000000 1.0
C      1  0.4393250000000  0.4566370000000  0.4410280000000 1.0
C      1  0.4241990000000  0.4930940000000  0.5024360000000 1.0
C      1  0.4780520000000  0.4820260000000  0.5220610000000 1.0
C      1  0.5505600000000  0.4380950000000  0.5403790000000 1.0
C      1  0.5501010000000  0.4328730000000  0.4887300000000 1.0
C      1  0.5519860000000  0.4873090000000  0.4470400000000 1.0
C      1  0.4846590000000  0.4698270000000  0.4304970000000 1.0
C      1  0.5498060000000  0.4492640000000  0.4670000000000 1.0
C      1  0.4899630000000  0.5834760000000  0.4795040000000 1.0
C      1  0.4393100000000  0.5096970000000  0.4370990000000 1.0
C      1  0.5650020000000  0.4375470000000  0.5174390000000 1.0
C      1  0.5750920000000  0.5345710000000  0.5457220000000 1.0
C      1  0.4815330000000  0.5626350000000  0.4327350000000 1.0
C      1  0.5377760000000  0.5717580000000  0.4934400000000 1.0
C      1  0.4623740000000  0.5141130000000  0.4187850000000 1.0
C      1  0.5704690000000  0.5607320000000  0.5350910000000 1.0
C      1  0.4636420000000  0.5317190000000  0.5475810000000 1.0
C      1  0.5790490000000  0.5478620000000  0.4865640000000 1.0
C      1  0.5134740000000  0.5101110000000  0.4618060000000 1.0
C      1  0.4986160000000  0.5684300000000  0.5258030000000 1.0
C      1  0.5083370000000  0.4420490000000  0.5309250000000 1.0
C      1  0.4643420000000  0.4950380000000  0.4758310000000 1.0
C      1  0.4521700000000  0.5647650000000  0.5074120000000 1.0
C      1  0.4729640000000  0.4853180000000  0.5869910000000 1.0
C      1  0.4561270000000  0.4452570000000  0.5396320000000 1.0
C      1  0.4821450000000  0.4577230000000  0.5372620000000 1.0
C      1  0.4515470000000  0.4375810000000  0.4630520000000 1.0
C      1  0.4722660000000  0.5396120000000  0.4242450000000 1.0
C      1  0.5275990000000  0.4378530000000  0.5568890000000 1.0
C      1  0.5106940000000  0.5347210000000  0.5629560000000 1.0
C      1  0.4864140000000  0.4956760000000  0.4121710000000 1.0
C      1  0.4615560000000  0.5742700000000  0.4802930000000 1.0
C      1  0.5104070000000  0.4520500000000  0.4411210000000 1.0
C      1  0.5457770000000  0.4785340000000  0.5195090000000 1.0
C      1  0.4301180000000  0.5512580000000  0.4970050000000 1.0
C      1  0.4971020000000  0.5776790000000  0.4516780000000 1.0
C      1  0.5053780000000  0.4696540000000  0.4924630000000 1.0
C      1  0.5066370000000  0.4297890000000  0.4585720000000 1.0
C      1  0.4383620000000  0.4670020000000  0.5484410000000 1.0
C      1  0.5066350000000  0.4185510000000  0.5084690000000 1.0
C      1  0.4746940000000  0.4713060000000  0.4940240000000 1.0
C      1  0.4533180000000  0.4283720000000  0.5145660000000 1.0
C      1  0.5510520000000  0.5044040000000  0.5678140000000 1.0
C      1  0.5215300000000  0.4622120000000  0.5136650000000 1.0
C      1  0.5325840000000  0.5082850000000  0.4381150000000 1.0
C      1  0.4891720000000  0.5296330000000  0.5017230000000 1.0
C      1  0.4512110000000  0.4859400000000  0.5676130000000 1.0
END
