TITL C-3909772-8580-29 24.2595126022459 125000 -23815.1144032598 0 0 160 (C1) n - 1
REM
REM in /home/nfs/bkarasulu/CARBON/AIRSS/Generating-Clusters/ReaxFF-fromJPCA2015/Units_Real/with-SteepDescent/Only-C1/SD-CG/Try1-3A/FIRE-CG
REM
REM
REM
REM
REM
REM ./C.cell (11c1c37f851c82e70ff6c80c92926a4b)
REM
REM compiler GCC version 9.2.1 20190827 (Red Hat 9.2.1-1)
REM options -cpp -mtune=generic -march=x86-64 -g -O0 -fpre-include=/usr/include/finclude/math-vector-fortran.h
REM seed 298211599 -1489305525 346796165 -1981141681 -1078718763 -732464465 1826633582 1435713543 1029205176 -910317491 -2063772523 -341983333 -956070365 -1814177535 1697479134 1349722842 -414168464 -592037616 -291404866 -587636267 -1146196901 469475530 1575016788 1369797116 773606164 1276618807 1065998868 -2092581868 -1984096089 337319001 -815711235 1502076358 148215651
REM
CELL 1.54180   50.00000   50.00000   50.00000   90.00000   90.00000   90.00000
LATT -1
SFAC C  
C      1  0.4078050000000  0.5132030000000  0.4485490000000 1.0
C      1  0.4482430000000  0.5382290000000  0.4083000000000 1.0
C      1  0.5076550000000  0.4857780000000  0.5525770000000 1.0
C      1  0.5515090000000  0.4799360000000  0.5629550000000 1.0
C      1  0.5226040000000  0.5096690000000  0.4523780000000 1.0
C      1  0.4761140000000  0.5125010000000  0.3911820000000 1.0
C      1  0.5633810000000  0.4135550000000  0.5174540000000 1.0
C      1  0.4706780000000  0.5898950000000  0.5273720000000 1.0
C      1  0.5164150000000  0.4813350000000  0.6141560000000 1.0
C      1  0.5021790000000  0.4867540000000  0.5241170000000 1.0
C      1  0.3954740000000  0.5558810000000  0.5009200000000 1.0
C      1  0.4593390000000  0.5604020000000  0.5868770000000 1.0
C      1  0.5604790000000  0.5875630000000  0.5137390000000 1.0
C      1  0.5679610000000  0.4988370000000  0.5780950000000 1.0
C      1  0.4357700000000  0.5470060000000  0.4334830000000 1.0
C      1  0.5261070000000  0.4646430000000  0.5626840000000 1.0
C      1  0.4245160000000  0.5725000000000  0.5465920000000 1.0
C      1  0.5620850000000  0.4658570000000  0.4081190000000 1.0
C      1  0.6016780000000  0.4778030000000  0.5137930000000 1.0
C      1  0.5809980000000  0.4947710000000  0.4402420000000 1.0
C      1  0.4320080000000  0.4877560000000  0.5809200000000 1.0
C      1  0.5925470000000  0.4860780000000  0.5664290000000 1.0
C      1  0.5362610000000  0.4482810000000  0.5075060000000 1.0
C      1  0.4068460000000  0.4400280000000  0.5103090000000 1.0
C      1  0.5319210000000  0.5656800000000  0.5726830000000 1.0
C      1  0.5767180000000  0.4421890000000  0.5426030000000 1.0
C      1  0.5169430000000  0.5950890000000  0.4437210000000 1.0
C      1  0.5027310000000  0.3970910000000  0.4822150000000 1.0
C      1  0.5522440000000  0.4050740000000  0.4760510000000 1.0
C      1  0.4226580000000  0.4894530000000  0.4366340000000 1.0
C      1  0.4294740000000  0.4341970000000  0.4921470000000 1.0
C      1  0.4959570000000  0.4018660000000  0.4526710000000 1.0
C      1  0.4303070000000  0.4561280000000  0.5857600000000 1.0
C      1  0.4105080000000  0.5056270000000  0.5678460000000 1.0
C      1  0.5444470000000  0.4141530000000  0.4494420000000 1.0
C      1  0.5512770000000  0.5621470000000  0.4825030000000 1.0
C      1  0.5949840000000  0.4702840000000  0.4866040000000 1.0
C      1  0.5301990000000  0.3957110000000  0.4932550000000 1.0
C      1  0.5521130000000  0.4797790000000  0.4704030000000 1.0
C      1  0.5175120000000  0.4318340000000  0.3868720000000 1.0
C      1  0.5466880000000  0.5496710000000  0.5322290000000 1.0
C      1  0.4295320000000  0.5738320000000  0.4894190000000 1.0
C      1  0.4702350000000  0.4137510000000  0.5613510000000 1.0
C      1  0.4636090000000  0.5330880000000  0.5961450000000 1.0
C      1  0.4871560000000  0.5494030000000  0.5581750000000 1.0
C      1  0.4785430000000  0.5041630000000  0.4731910000000 1.0
C      1  0.5165080000000  0.4209140000000  0.4438010000000 1.0
C      1  0.5136560000000  0.4498950000000  0.4498330000000 1.0
C      1  0.4918780000000  0.4619440000000  0.5151950000000 1.0
C      1  0.4849750000000  0.4895710000000  0.4357680000000 1.0
C      1  0.5434830000000  0.5442080000000  0.5868450000000 1.0
C      1  0.4196480000000  0.4753950000000  0.4619250000000 1.0
C      1  0.4884950000000  0.5021530000000  0.5672890000000 1.0
C      1  0.5356400000000  0.4030800000000  0.5204450000000 1.0
C      1  0.5188000000000  0.5880800000000  0.5405010000000 1.0
C      1  0.5238380000000  0.5997660000000  0.4736820000000 1.0
C      1  0.4651470000000  0.4596930000000  0.5197950000000 1.0
C      1  0.5272660000000  0.5301690000000  0.4068330000000 1.0
C      1  0.4569520000000  0.5336630000000  0.4490210000000 1.0
C      1  0.4908290000000  0.5914310000000  0.4481740000000 1.0
C      1  0.5047380000000  0.5487280000000  0.4109580000000 1.0
C      1  0.5319310000000  0.5023670000000  0.4210970000000 1.0
C      1  0.4750090000000  0.4165560000000  0.4402980000000 1.0
C      1  0.5839380000000  0.4936230000000  0.4697690000000 1.0
C      1  0.4498880000000  0.4786210000000  0.5057840000000 1.0
C      1  0.4563190000000  0.4594550000000  0.4119260000000 1.0
C      1  0.5076000000000  0.4417000000000  0.5044220000000 1.0
C      1  0.4636620000000  0.5054900000000  0.5534080000000 1.0
C      1  0.4049940000000  0.4976090000000  0.4723690000000 1.0
C      1  0.4194000000000  0.5295570000000  0.5815730000000 1.0
C      1  0.5568880000000  0.4383710000000  0.4437950000000 1.0
C      1  0.4779140000000  0.5400290000000  0.4016160000000 1.0
C      1  0.5113820000000  0.4549870000000  0.3967610000000 1.0
C      1  0.6064090000000  0.5827540000000  0.4291600000000 1.0
C      1  0.5631770000000  0.5272950000000  0.5748180000000 1.0
C      1  0.5348880000000  0.4751100000000  0.4066320000000 1.0
C      1  0.5860360000000  0.5695480000000  0.5130580000000 1.0
C      1  0.3973970000000  0.4941160000000  0.5166140000000 1.0
C      1  0.4995240000000  0.5992720000000  0.4887040000000 1.0
C      1  0.5101680000000  0.5826470000000  0.5676410000000 1.0
C      1  0.5995350000000  0.4950140000000  0.5378670000000 1.0
C      1  0.5490170000000  0.5908660000000  0.4875180000000 1.0
C      1  0.4543510000000  0.5715830000000  0.4754890000000 1.0
C      1  0.4136040000000  0.5043090000000  0.5383580000000 1.0
C      1  0.5872910000000  0.4424900000000  0.4772400000000 1.0
C      1  0.4394200000000  0.5157660000000  0.5962600000000 1.0
C      1  0.5608800000000  0.5110710000000  0.4250370000000 1.0
C      1  0.5444590000000  0.5777000000000  0.5358570000000 1.0
C      1  0.5831520000000  0.4677580000000  0.4302000000000 1.0
C      1  0.5399480000000  0.5217990000000  0.4888860000000 1.0
C      1  0.5835520000000  0.4448530000000  0.4485470000000 1.0
C      1  0.5535710000000  0.5381830000000  0.4167230000000 1.0
C      1  0.5177490000000  0.5734430000000  0.4223180000000 1.0
C      1  0.4775440000000  0.4274120000000  0.5858750000000 1.0
C      1  0.5699000000000  0.5374010000000  0.5457030000000 1.0
C      1  0.4643740000000  0.5056630000000  0.4484970000000 1.0
C      1  0.4072320000000  0.5589100000000  0.4750660000000 1.0
C      1  0.4517220000000  0.5311040000000  0.5489760000000 1.0
C      1  0.6021310000000  0.5633170000000  0.4433060000000 1.0
C      1  0.4632280000000  0.4517760000000  0.4594180000000 1.0
C      1  0.4887060000000  0.4650120000000  0.4524290000000 1.0
C      1  0.5435080000000  0.4718000000000  0.4965660000000 1.0
C      1  0.4089820000000  0.5569090000000  0.5259860000000 1.0
C      1  0.4478150000000  0.4158360000000  0.5057340000000 1.0
C      1  0.5164230000000  0.4136700000000  0.5411240000000 1.0
C      1  0.5563320000000  0.4372730000000  0.5258830000000 1.0
C      1  0.3935940000000  0.4645570000000  0.5199130000000 1.0
C      1  0.4382240000000  0.5264470000000  0.4965370000000 1.0
C      1  0.5072800000000  0.5492510000000  0.4730710000000 1.0
C      1  0.4759660000000  0.5929170000000  0.4715970000000 1.0
C      1  0.4637020000000  0.5035280000000  0.4981930000000 1.0
C      1  0.4365230000000  0.5512120000000  0.5671870000000 1.0
C      1  0.4219750000000  0.4403000000000  0.5625570000000 1.0
C      1  0.5332730000000  0.5559650000000  0.4605340000000 1.0
C      1  0.4810690000000  0.5736970000000  0.5734290000000 1.0
C      1  0.4118820000000  0.5086700000000  0.4966320000000 1.0
C      1  0.5885890000000  0.4599440000000  0.5567590000000 1.0
C      1  0.4547090000000  0.4439550000000  0.5959870000000 1.0
C      1  0.4490800000000  0.4847370000000  0.5575510000000 1.0
C      1  0.5224710000000  0.5058940000000  0.6170460000000 1.0
C      1  0.5404310000000  0.4598040000000  0.4518620000000 1.0
C      1  0.5397220000000  0.5059490000000  0.4716770000000 1.0
C      1  0.4934440000000  0.4182930000000  0.4955670000000 1.0
C      1  0.4405200000000  0.4845700000000  0.4143310000000 1.0
C      1  0.5059370000000  0.5554960000000  0.5021990000000 1.0
C      1  0.4535400000000  0.5424610000000  0.4757580000000 1.0
C      1  0.5956830000000  0.5581390000000  0.5376710000000 1.0
C      1  0.5548190000000  0.4948860000000  0.5380220000000 1.0
C      1  0.5114170000000  0.4588190000000  0.6038500000000 1.0
C      1  0.4808080000000  0.4639990000000  0.3977570000000 1.0
C      1  0.4349910000000  0.5527120000000  0.5119260000000 1.0
C      1  0.4878970000000  0.4076870000000  0.5386710000000 1.0
C      1  0.5510020000000  0.4856640000000  0.5150220000000 1.0
C      1  0.4436170000000  0.4230320000000  0.5532810000000 1.0
C      1  0.4694000000000  0.5480280000000  0.5338290000000 1.0
C      1  0.5920450000000  0.5251630000000  0.4781030000000 1.0
C      1  0.4983380000000  0.5870030000000  0.5171770000000 1.0
C      1  0.4363100000000  0.4853390000000  0.5324020000000 1.0
C      1  0.4034520000000  0.4452880000000  0.5395670000000 1.0
C      1  0.5211220000000  0.4349850000000  0.5617840000000 1.0
C      1  0.5910700000000  0.5439220000000  0.4990640000000 1.0
C      1  0.5065170000000  0.4359590000000  0.5874210000000 1.0
C      1  0.4480510000000  0.5096890000000  0.3999200000000 1.0
C      1  0.4895450000000  0.4902950000000  0.4060420000000 1.0
C      1  0.4907540000000  0.5364570000000  0.5177470000000 1.0
C      1  0.4876160000000  0.5083240000000  0.5131120000000 1.0
C      1  0.4400090000000  0.4597960000000  0.4782920000000 1.0
C      1  0.5729580000000  0.4199350000000  0.4896110000000 1.0
C      1  0.4470730000000  0.5860420000000  0.5370500000000 1.0
C      1  0.4757090000000  0.4056330000000  0.5115250000000 1.0
C      1  0.4122250000000  0.5418190000000  0.4501170000000 1.0
C      1  0.4510360000000  0.4350310000000  0.5274360000000 1.0
C      1  0.5299210000000  0.5319220000000  0.6138580000000 1.0
C      1  0.4875970000000  0.5285220000000  0.5791720000000 1.0
C      1  0.5975770000000  0.5429680000000  0.4583490000000 1.0
C      1  0.4570250000000  0.4377930000000  0.4340400000000 1.0
C      1  0.5378580000000  0.5439320000000  0.5052100000000 1.0
C      1  0.5760060000000  0.5125130000000  0.5329770000000 1.0
C      1  0.4992160000000  0.5230080000000  0.4641520000000 1.0
C      1  0.5421900000000  0.5608560000000  0.4324140000000 1.0
END
