TITL C-3909770-7031-38 -9.63687002297589 125000 -10149.1453354094 0 0 69 (C1) n - 1
REM
REM in /home/nfs/bkarasulu/CARBON/AIRSS/Generating-Clusters/ReaxFF-fromJPCA2015/Units_Real/with-SteepDescent/Only-C1/SD-CG/Try1-3A/FIRE-CG
REM
REM
REM
REM
REM
REM ./C.cell (11c1c37f851c82e70ff6c80c92926a4b)
REM
REM compiler GCC version 9.2.1 20190827 (Red Hat 9.2.1-1)
REM options -cpp -mtune=generic -march=x86-64 -g -O0 -fpre-include=/usr/include/finclude/math-vector-fortran.h
REM seed 1248296551 1726229062 925982772 424935090 1353041688 1971618945 -1025663184 903287415 2139774768 1076252760 2111782050 -748225650 1544922280 1409748012 -1643335266 -1135596048 -927348236 870185172 111915691 376542721 -171921307 -1562036833 478826054 711084674 -1937401485 358901638 1145667700 -2140337766 370558791 -1794958448 1468758994 -335060997 -920624729
REM
CELL 1.54180   50.00000   50.00000   50.00000   90.00000   90.00000   90.00000
LATT -1
SFAC C  
C      1  0.5312490000000  0.5238680000000  0.5770350000000 1.0
C      1  0.5148800000000  0.5012810000000  0.4699710000000 1.0
C      1  0.5350110000000  0.4400710000000  0.4810150000000 1.0
C      1  0.5251190000000  0.4896220000000  0.4226040000000 1.0
C      1  0.4720820000000  0.4317960000000  0.4682210000000 1.0
C      1  0.5611560000000  0.4655490000000  0.5185720000000 1.0
C      1  0.4119030000000  0.5130020000000  0.4859750000000 1.0
C      1  0.4899690000000  0.4699910000000  0.5553380000000 1.0
C      1  0.4640870000000  0.4932430000000  0.4590360000000 1.0
C      1  0.5595370000000  0.4527700000000  0.4910770000000 1.0
C      1  0.4228660000000  0.4864500000000  0.4789520000000 1.0
C      1  0.4756840000000  0.5706780000000  0.5030970000000 1.0
C      1  0.4592160000000  0.5085140000000  0.5522420000000 1.0
C      1  0.4482320000000  0.4491110000000  0.4735370000000 1.0
C      1  0.4341980000000  0.5399020000000  0.5189090000000 1.0
C      1  0.5550640000000  0.5489680000000  0.5385350000000 1.0
C      1  0.4735800000000  0.5634090000000  0.4765320000000 1.0
C      1  0.5668560000000  0.5365270000000  0.4868280000000 1.0
C      1  0.4416970000000  0.4744060000000  0.4591470000000 1.0
C      1  0.5166110000000  0.4443760000000  0.5032250000000 1.0
C      1  0.4241180000000  0.4954100000000  0.5341390000000 1.0
C      1  0.5338440000000  0.4868520000000  0.4863150000000 1.0
C      1  0.5017590000000  0.5180600000000  0.5228360000000 1.0
C      1  0.4609520000000  0.5202440000000  0.4491890000000 1.0
C      1  0.4845040000000  0.4988490000000  0.5642760000000 1.0
C      1  0.5439560000000  0.5034090000000  0.5582700000000 1.0
C      1  0.5674810000000  0.5034000000000  0.4425040000000 1.0
C      1  0.5385990000000  0.5349520000000  0.4389870000000 1.0
C      1  0.4980630000000  0.5232110000000  0.4802710000000 1.0
C      1  0.5203210000000  0.4504020000000  0.4561580000000 1.0
C      1  0.5443460000000  0.4569310000000  0.5418850000000 1.0
C      1  0.5798450000000  0.4939930000000  0.4655080000000 1.0
C      1  0.5172050000000  0.4590600000000  0.5552270000000 1.0
C      1  0.5041810000000  0.5445180000000  0.5323500000000 1.0
C      1  0.4810990000000  0.5646880000000  0.5297350000000 1.0
C      1  0.5399610000000  0.5690740000000  0.5045140000000 1.0
C      1  0.4861580000000  0.5232530000000  0.4389460000000 1.0
C      1  0.4714430000000  0.5211820000000  0.4938200000000 1.0
C      1  0.4426200000000  0.4802110000000  0.4999710000000 1.0
C      1  0.4440770000000  0.4841230000000  0.5505080000000 1.0
C      1  0.4580130000000  0.4417670000000  0.5259530000000 1.0
C      1  0.4288590000000  0.5363220000000  0.4903530000000 1.0
C      1  0.4436330000000  0.4513460000000  0.5023650000000 1.0
C      1  0.5064130000000  0.5139110000000  0.5727590000000 1.0
C      1  0.5731070000000  0.4921120000000  0.5139870000000 1.0
C      1  0.5115340000000  0.5283830000000  0.4322770000000 1.0
C      1  0.4997170000000  0.4217140000000  0.5088850000000 1.0
C      1  0.5164570000000  0.4733180000000  0.5061410000000 1.0
C      1  0.5406410000000  0.4743500000000  0.5642420000000 1.0
C      1  0.4789220000000  0.4143180000000  0.4915470000000 1.0
C      1  0.4690050000000  0.4918550000000  0.4900170000000 1.0
C      1  0.5483110000000  0.5111730000000  0.4235080000000 1.0
C      1  0.4536670000000  0.5394580000000  0.4731350000000 1.0
C      1  0.4947580000000  0.4444210000000  0.4581400000000 1.0
C      1  0.5647110000000  0.5541030000000  0.5102070000000 1.0
C      1  0.4100620000000  0.5070090000000  0.5139310000000 1.0
C      1  0.5009100000000  0.5517970000000  0.4742560000000 1.0
C      1  0.5791460000000  0.5100290000000  0.4911400000000 1.0
C      1  0.4641000000000  0.4615790000000  0.5461250000000 1.0
C      1  0.4743550000000  0.4196410000000  0.5188850000000 1.0
C      1  0.4582090000000  0.5268300000000  0.5275780000000 1.0
C      1  0.5285430000000  0.5624170000000  0.4781870000000 1.0
C      1  0.5129690000000  0.4796310000000  0.4469960000000 1.0
C      1  0.5290440000000  0.5605330000000  0.5308830000000 1.0
C      1  0.5577260000000  0.4745590000000  0.4717050000000 1.0
C      1  0.4539290000000  0.5544760000000  0.5338310000000 1.0
C      1  0.5477930000000  0.5449700000000  0.4658200000000 1.0
C      1  0.4957660000000  0.4933070000000  0.5120200000000 1.0
C      1  0.5561730000000  0.5293150000000  0.5598740000000 1.0
END
