TITL C-3909653-6271-28 31.6620595485401 125000 -11440.1040749925 0 0 78 (C1) n - 1
REM
REM in /home/nfs/bkarasulu/CARBON/AIRSS/Generating-Clusters/ReaxFF-fromJPCA2015/Units_Real/with-SteepDescent/Only-C1/SD-CG/Try1-3A/FIRE-CG
REM
REM
REM
REM
REM
REM ./C.cell (11c1c37f851c82e70ff6c80c92926a4b)
REM
REM compiler GCC version 9.2.1 20190827 (Red Hat 9.2.1-1)
REM options -cpp -mtune=generic -march=x86-64 -g -O0 -fpre-include=/usr/include/finclude/math-vector-fortran.h
REM seed 493726312 1686587998 -1066325255 -1001142946 -2103769509 -968549653 -854192398 -649112013 1246980394 -937180472 -380208484 -1324852049 -623301667 -2052120341 2047730900 1890830939 1698890080 -988876221 518770053 -2011745633 -172594334 -925360195 -1235258702 -1881303706 -844735699 1771720472 -344055179 1762997352 161006901 -166319254 -823730751 1387089187 -979650769
REM
CELL 1.54180   50.00000   50.00000   50.00000   90.00000   90.00000   90.00000
LATT -1
SFAC C  
C      1  0.5511970000000  0.4318360000000  0.5310710000000 1.0
C      1  0.4400880000000  0.4968090000000  0.4496880000000 1.0
C      1  0.5765040000000  0.4988610000000  0.4713270000000 1.0
C      1  0.4912990000000  0.5258820000000  0.4364180000000 1.0
C      1  0.4827410000000  0.4238990000000  0.4742510000000 1.0
C      1  0.4708920000000  0.5370910000000  0.4831720000000 1.0
C      1  0.5164860000000  0.5219210000000  0.5201660000000 1.0
C      1  0.4756810000000  0.4613720000000  0.4388270000000 1.0
C      1  0.4443850000000  0.4386960000000  0.5015160000000 1.0
C      1  0.5193840000000  0.5140650000000  0.4747850000000 1.0
C      1  0.4209020000000  0.4877200000000  0.4958410000000 1.0
C      1  0.4720660000000  0.5304390000000  0.5611460000000 1.0
C      1  0.5445100000000  0.4628990000000  0.4512320000000 1.0
C      1  0.5167480000000  0.4697930000000  0.5304680000000 1.0
C      1  0.5698950000000  0.4566800000000  0.5399320000000 1.0
C      1  0.4845890000000  0.5530100000000  0.5096680000000 1.0
C      1  0.5203150000000  0.4892170000000  0.4877080000000 1.0
C      1  0.5220060000000  0.5463480000000  0.5729260000000 1.0
C      1  0.5786810000000  0.4844590000000  0.4946130000000 1.0
C      1  0.4804610000000  0.5022370000000  0.5668680000000 1.0
C      1  0.5111030000000  0.4257520000000  0.4731110000000 1.0
C      1  0.5154460000000  0.5636850000000  0.4876540000000 1.0
C      1  0.4470110000000  0.5567030000000  0.5208460000000 1.0
C      1  0.4602230000000  0.4849080000000  0.4320330000000 1.0
C      1  0.5643240000000  0.5187550000000  0.5355170000000 1.0
C      1  0.4340240000000  0.5135830000000  0.5365820000000 1.0
C      1  0.5557970000000  0.4888890000000  0.4505680000000 1.0
C      1  0.4358380000000  0.4868700000000  0.5451380000000 1.0
C      1  0.5537070000000  0.5641040000000  0.4562180000000 1.0
C      1  0.5485130000000  0.4654150000000  0.5564080000000 1.0
C      1  0.4859510000000  0.4419450000000  0.5379440000000 1.0
C      1  0.5250780000000  0.4417440000000  0.4506830000000 1.0
C      1  0.4698860000000  0.4209730000000  0.4995560000000 1.0
C      1  0.5279670000000  0.5172620000000  0.5776750000000 1.0
C      1  0.5057720000000  0.4693210000000  0.4735760000000 1.0
C      1  0.4685350000000  0.5756990000000  0.5148390000000 1.0
C      1  0.4222030000000  0.4743380000000  0.5227830000000 1.0
C      1  0.5765070000000  0.4708830000000  0.5164580000000 1.0
C      1  0.5040590000000  0.4622890000000  0.4440050000000 1.0
C      1  0.4376460000000  0.4526430000000  0.5238250000000 1.0
C      1  0.5343640000000  0.5091330000000  0.4479070000000 1.0
C      1  0.5696120000000  0.5547510000000  0.4795880000000 1.0
C      1  0.5291860000000  0.4468920000000  0.5172860000000 1.0
C      1  0.4411320000000  0.5260930000000  0.4482410000000 1.0
C      1  0.4380380000000  0.4547890000000  0.4770230000000 1.0
C      1  0.4328350000000  0.5446390000000  0.4982380000000 1.0
C      1  0.4287080000000  0.4801880000000  0.4707470000000 1.0
C      1  0.5755130000000  0.5252900000000  0.4843740000000 1.0
C      1  0.5495910000000  0.5651380000000  0.5288430000000 1.0
C      1  0.4937260000000  0.5783290000000  0.4991360000000 1.0
C      1  0.5266850000000  0.5356870000000  0.4967030000000 1.0
C      1  0.5163680000000  0.4937050000000  0.5148030000000 1.0
C      1  0.4799890000000  0.4622270000000  0.5531350000000 1.0
C      1  0.4744230000000  0.4954870000000  0.4828100000000 1.0
C      1  0.5329170000000  0.5549360000000  0.4378010000000 1.0
C      1  0.5502030000000  0.5189070000000  0.5602950000000 1.0
C      1  0.4954140000000  0.5483830000000  0.5593110000000 1.0
C      1  0.4302700000000  0.5139630000000  0.5073980000000 1.0
C      1  0.5613190000000  0.5656060000000  0.5051850000000 1.0
C      1  0.4496670000000  0.5363750000000  0.5432030000000 1.0
C      1  0.4740060000000  0.5073710000000  0.4191950000000 1.0
C      1  0.4613050000000  0.4812920000000  0.5590980000000 1.0
C      1  0.4994770000000  0.5406740000000  0.5316160000000 1.0
C      1  0.5261380000000  0.5716470000000  0.4622210000000 1.0
C      1  0.5180670000000  0.4229750000000  0.5025020000000 1.0
C      1  0.4619900000000  0.5314750000000  0.4282890000000 1.0
C      1  0.4889420000000  0.5176360000000  0.4687550000000 1.0
C      1  0.5364110000000  0.5581530000000  0.5512290000000 1.0
C      1  0.4599250000000  0.5137380000000  0.4973140000000 1.0
C      1  0.5565470000000  0.5253760000000  0.5065640000000 1.0
C      1  0.4794240000000  0.4680690000000  0.4820600000000 1.0
C      1  0.4437440000000  0.5443370000000  0.4714910000000 1.0
C      1  0.5207650000000  0.4717760000000  0.5604950000000 1.0
C      1  0.5487220000000  0.4101610000000  0.5128090000000 1.0
C      1  0.5084410000000  0.4961690000000  0.5729030000000 1.0
C      1  0.4907900000000  0.4220550000000  0.5193740000000 1.0
C      1  0.4647220000000  0.4488000000000  0.4639220000000 1.0
C      1  0.5222070000000  0.5287840000000  0.4310970000000 1.0
END
