TITL C-3909647-4341-30 -0.604089109612738 125000 -18621.6900112351 0 0 124 (C1) n - 1
REM
REM in /home/nfs/bkarasulu/CARBON/AIRSS/Generating-Clusters/ReaxFF-fromJPCA2015/Units_Real/with-SteepDescent/Only-C1/SD-CG/Try1-3A/FIRE-CG
REM
REM
REM
REM
REM
REM ./C.cell (11c1c37f851c82e70ff6c80c92926a4b)
REM
REM compiler GCC version 9.2.1 20190827 (Red Hat 9.2.1-1)
REM options -cpp -mtune=generic -march=x86-64 -g -O0 -fpre-include=/usr/include/finclude/math-vector-fortran.h
REM seed -731413379 -102540832 1351843860 230563122 1003676683 1262598805 39035716 1883985389 -2002877970 1215312875 782784122 1021034392 -2011959523 1309347498 -1255632472 1759309312 -52862415 945802874 -120305037 -956440480 -1345076327 699050566 980435576 -2020884833 724647974 934974340 1113593943 -633095230 434221156 -1879921671 -185961940 -1357635210 -1419531782
REM
CELL 1.54180   50.00000   50.00000   50.00000   90.00000   90.00000   90.00000
LATT -1
SFAC C  
C      1  0.4470760000000  0.5479150000000  0.4453040000000 1.0
C      1  0.4636920000000  0.4908460000000  0.5010860000000 1.0
C      1  0.5408230000000  0.5512560000000  0.5657390000000 1.0
C      1  0.4503020000000  0.5260370000000  0.5692840000000 1.0
C      1  0.4405550000000  0.5762370000000  0.5160910000000 1.0
C      1  0.4354260000000  0.4555340000000  0.5045760000000 1.0
C      1  0.5603030000000  0.5814590000000  0.4553590000000 1.0
C      1  0.4285140000000  0.5025720000000  0.4407180000000 1.0
C      1  0.5873540000000  0.4714010000000  0.4984410000000 1.0
C      1  0.5580670000000  0.5886230000000  0.4821570000000 1.0
C      1  0.5452910000000  0.5056690000000  0.5139930000000 1.0
C      1  0.6034940000000  0.4610980000000  0.5402570000000 1.0
C      1  0.4676860000000  0.4948360000000  0.3969100000000 1.0
C      1  0.4521680000000  0.4573060000000  0.4336090000000 1.0
C      1  0.4568050000000  0.5545230000000  0.5644830000000 1.0
C      1  0.5351050000000  0.5069660000000  0.5897260000000 1.0
C      1  0.4782940000000  0.4521820000000  0.4210950000000 1.0
C      1  0.5027910000000  0.4608890000000  0.4902950000000 1.0
C      1  0.5303690000000  0.4924050000000  0.5381680000000 1.0
C      1  0.5233180000000  0.4401880000000  0.4370110000000 1.0
C      1  0.5056120000000  0.3949210000000  0.4822730000000 1.0
C      1  0.4612440000000  0.5272540000000  0.4648240000000 1.0
C      1  0.4834000000000  0.5579240000000  0.5749720000000 1.0
C      1  0.4231570000000  0.5273690000000  0.4812850000000 1.0
C      1  0.5806630000000  0.4540410000000  0.5555990000000 1.0
C      1  0.5890760000000  0.4937830000000  0.4791840000000 1.0
C      1  0.5696240000000  0.5388870000000  0.4792220000000 1.0
C      1  0.3948610000000  0.4781470000000  0.4976950000000 1.0
C      1  0.5380130000000  0.5704600000000  0.4400610000000 1.0
C      1  0.6021210000000  0.4845620000000  0.5194180000000 1.0
C      1  0.5762880000000  0.5108150000000  0.4294090000000 1.0
C      1  0.4864940000000  0.5792350000000  0.4491050000000 1.0
C      1  0.5814280000000  0.5205660000000  0.5485940000000 1.0
C      1  0.4449080000000  0.4173420000000  0.4930430000000 1.0
C      1  0.4855600000000  0.5441300000000  0.4154060000000 1.0
C      1  0.4946130000000  0.4351830000000  0.4376300000000 1.0
C      1  0.5441480000000  0.5326410000000  0.4648630000000 1.0
C      1  0.5638930000000  0.4571420000000  0.5105360000000 1.0
C      1  0.5265140000000  0.5344410000000  0.5849660000000 1.0
C      1  0.4985500000000  0.5738090000000  0.5558230000000 1.0
C      1  0.4903180000000  0.4165150000000  0.4852560000000 1.0
C      1  0.5380800000000  0.4946270000000  0.4873210000000 1.0
C      1  0.4321990000000  0.4628880000000  0.4710430000000 1.0
C      1  0.4383380000000  0.4406390000000  0.4531390000000 1.0
C      1  0.4833330000000  0.5786780000000  0.4783050000000 1.0
C      1  0.5354980000000  0.4630520000000  0.5296080000000 1.0
C      1  0.5590530000000  0.4702400000000  0.4503820000000 1.0
C      1  0.5403410000000  0.4103860000000  0.5067710000000 1.0
C      1  0.4985320000000  0.4689000000000  0.5766920000000 1.0
C      1  0.4861030000000  0.5101270000000  0.5911970000000 1.0
C      1  0.4273270000000  0.5176380000000  0.5309190000000 1.0
C      1  0.5146150000000  0.5835350000000  0.4525120000000 1.0
C      1  0.4864930000000  0.5243270000000  0.5289430000000 1.0
C      1  0.5922200000000  0.5120680000000  0.5223900000000 1.0
C      1  0.4941140000000  0.4473620000000  0.5566070000000 1.0
C      1  0.5176250000000  0.4112680000000  0.5266930000000 1.0
C      1  0.5458130000000  0.4620790000000  0.5748650000000 1.0
C      1  0.5248700000000  0.4813920000000  0.5776490000000 1.0
C      1  0.5386050000000  0.4650540000000  0.4301380000000 1.0
C      1  0.4121060000000  0.5318660000000  0.5105310000000 1.0
C      1  0.5079690000000  0.5079620000000  0.5338960000000 1.0
C      1  0.4500050000000  0.5124600000000  0.4070060000000 1.0
C      1  0.4482080000000  0.4842800000000  0.5734790000000 1.0
C      1  0.4348660000000  0.4271510000000  0.5166600000000 1.0
C      1  0.5270910000000  0.5718270000000  0.5505280000000 1.0
C      1  0.5483200000000  0.5170400000000  0.4219660000000 1.0
C      1  0.4336520000000  0.5576670000000  0.4712160000000 1.0
C      1  0.5582390000000  0.5094840000000  0.5886110000000 1.0
C      1  0.5341540000000  0.5888350000000  0.4980060000000 1.0
C      1  0.5598430000000  0.5581190000000  0.5257570000000 1.0
C      1  0.4817280000000  0.4176220000000  0.4588600000000 1.0
C      1  0.4489820000000  0.5120030000000  0.4838100000000 1.0
C      1  0.4132770000000  0.5033480000000  0.5522500000000 1.0
C      1  0.4193050000000  0.5590200000000  0.5099960000000 1.0
C      1  0.5416980000000  0.4446510000000  0.5529130000000 1.0
C      1  0.4969750000000  0.5361500000000  0.5899630000000 1.0
C      1  0.4588700000000  0.4674300000000  0.5166940000000 1.0
C      1  0.4637460000000  0.5034200000000  0.5557250000000 1.0
C      1  0.5168270000000  0.4293250000000  0.5496070000000 1.0
C      1  0.4889070000000  0.5322230000000  0.4688670000000 1.0
C      1  0.5266430000000  0.5116440000000  0.4700490000000 1.0
C      1  0.5327910000000  0.4906520000000  0.4174260000000 1.0
C      1  0.5011870000000  0.5085780000000  0.4584610000000 1.0
C      1  0.4106730000000  0.4746590000000  0.5464330000000 1.0
C      1  0.5498670000000  0.5335000000000  0.5155290000000 1.0
C      1  0.4856060000000  0.4820520000000  0.4844290000000 1.0
C      1  0.5073990000000  0.4566200000000  0.5181840000000 1.0
C      1  0.4290000000000  0.5077810000000  0.5767280000000 1.0
C      1  0.5751250000000  0.5672760000000  0.4757090000000 1.0
C      1  0.4392500000000  0.4346060000000  0.5463720000000 1.0
C      1  0.4321950000000  0.4595130000000  0.5588460000000 1.0
C      1  0.5803240000000  0.4898320000000  0.4506990000000 1.0
C      1  0.5721470000000  0.4733710000000  0.5740470000000 1.0
C      1  0.5865360000000  0.5189140000000  0.4939410000000 1.0
C      1  0.4718910000000  0.5615150000000  0.4314400000000 1.0
C      1  0.4349800000000  0.5263460000000  0.4255230000000 1.0
C      1  0.4523940000000  0.4822510000000  0.4503670000000 1.0
C      1  0.4057590000000  0.4795450000000  0.4719850000000 1.0
C      1  0.5323660000000  0.4049100000000  0.4790140000000 1.0
C      1  0.4571300000000  0.5708400000000  0.5401040000000 1.0
C      1  0.5793950000000  0.5028410000000  0.5719090000000 1.0
C      1  0.4912070000000  0.5510060000000  0.5159660000000 1.0
C      1  0.5270110000000  0.4523550000000  0.4764530000000 1.0
C      1  0.4101200000000  0.5067710000000  0.4621320000000 1.0
C      1  0.5340990000000  0.4279280000000  0.4616600000000 1.0
C      1  0.4927020000000  0.5530740000000  0.4881200000000 1.0
C      1  0.5550840000000  0.4338950000000  0.5075280000000 1.0
C      1  0.4809150000000  0.4873500000000  0.4580230000000 1.0
C      1  0.4863710000000  0.4742990000000  0.4024680000000 1.0
C      1  0.4496680000000  0.5744480000000  0.4874050000000 1.0
C      1  0.4765260000000  0.4843010000000  0.5895390000000 1.0
C      1  0.5083720000000  0.4938330000000  0.4031320000000 1.0
C      1  0.4965650000000  0.4021710000000  0.5091520000000 1.0
C      1  0.4571250000000  0.5114860000000  0.5282180000000 1.0
C      1  0.4082520000000  0.4672480000000  0.5180540000000 1.0
C      1  0.4836020000000  0.5727350000000  0.5326340000000 1.0
C      1  0.5455030000000  0.4714200000000  0.4750510000000 1.0
C      1  0.5391310000000  0.5792980000000  0.5250420000000 1.0
C      1  0.5113600000000  0.5908440000000  0.4803240000000 1.0
C      1  0.5387650000000  0.5412880000000  0.4375180000000 1.0
C      1  0.4527940000000  0.4178830000000  0.4656520000000 1.0
C      1  0.4980650000000  0.5238520000000  0.4006590000000 1.0
C      1  0.4818450000000  0.4563410000000  0.5308400000000 1.0
C      1  0.5664110000000  0.5456740000000  0.5522500000000 1.0
END
