TITL C-3909768-8671-20 115.24244140888 125000 -28461.4624010124 0 0 192 (C1) n - 1
REM
REM in /home/nfs/bkarasulu/CARBON/AIRSS/Generating-Clusters/ReaxFF-fromJPCA2015/Units_Real/with-SteepDescent/Only-C1/SD-CG/Try1-3A/FIRE-CG
REM
REM
REM
REM
REM
REM ./C.cell (11c1c37f851c82e70ff6c80c92926a4b)
REM
REM compiler GCC version 9.2.1 20190827 (Red Hat 9.2.1-1)
REM options -cpp -mtune=generic -march=x86-64 -g -O0 -fpre-include=/usr/include/finclude/math-vector-fortran.h
REM seed 1380501614 2095265099 1247353919 -823232535 -1810901592 -1467954285 -1887670018 -661918237 805049219 1284075849 736564741 -302227285 964472866 403419345 -576997477 -154522874 -1148910655 764806286 -279907226 -322636713 1684179708 543499553 -329125644 -71342845 -1837004028 536102625 -1365208107 1801729541 -1044513511 2028545852 318402225 -19370131 861824450
REM
CELL 1.54180   50.00000   50.00000   50.00000   90.00000   90.00000   90.00000
LATT -1
SFAC C  
C      1  0.5039330000000  0.5848920000000  0.4153940000000 1.0
C      1  0.5495100000000  0.4456740000000  0.5365480000000 1.0
C      1  0.4919900000000  0.5291590000000  0.4606030000000 1.0
C      1  0.5400270000000  0.5827660000000  0.5660070000000 1.0
C      1  0.5499540000000  0.5029950000000  0.5985990000000 1.0
C      1  0.4199510000000  0.5898790000000  0.4845680000000 1.0
C      1  0.5766660000000  0.4967850000000  0.4016150000000 1.0
C      1  0.4523000000000  0.4867330000000  0.4988250000000 1.0
C      1  0.3918460000000  0.5239290000000  0.4979900000000 1.0
C      1  0.4174900000000  0.4554050000000  0.5673820000000 1.0
C      1  0.4119810000000  0.4374890000000  0.4963320000000 1.0
C      1  0.5813260000000  0.5681130000000  0.4770010000000 1.0
C      1  0.4447360000000  0.5414030000000  0.5088450000000 1.0
C      1  0.5011210000000  0.4489820000000  0.5552840000000 1.0
C      1  0.5625580000000  0.5806410000000  0.5288320000000 1.0
C      1  0.5051960000000  0.5004310000000  0.4307670000000 1.0
C      1  0.5267970000000  0.4390890000000  0.5148670000000 1.0
C      1  0.4746830000000  0.4198520000000  0.4196610000000 1.0
C      1  0.4238620000000  0.5468230000000  0.4599420000000 1.0
C      1  0.4243690000000  0.5633520000000  0.5207460000000 1.0
C      1  0.4552190000000  0.5732150000000  0.5904260000000 1.0
C      1  0.4431000000000  0.4637720000000  0.4010680000000 1.0
C      1  0.5627540000000  0.4974190000000  0.5004830000000 1.0
C      1  0.4528070000000  0.4948850000000  0.5451820000000 1.0
C      1  0.4833910000000  0.3813370000000  0.5225850000000 1.0
C      1  0.4529270000000  0.4896750000000  0.3911030000000 1.0
C      1  0.6038850000000  0.4781750000000  0.4959170000000 1.0
C      1  0.5354100000000  0.5025000000000  0.4660270000000 1.0
C      1  0.5217270000000  0.5002810000000  0.6054850000000 1.0
C      1  0.4869660000000  0.5038010000000  0.4712890000000 1.0
C      1  0.5239080000000  0.5692270000000  0.5869040000000 1.0
C      1  0.5958170000000  0.5134940000000  0.4670250000000 1.0
C      1  0.5561840000000  0.5186440000000  0.3935360000000 1.0
C      1  0.5839640000000  0.4926690000000  0.5316590000000 1.0
C      1  0.4343350000000  0.5207170000000  0.5358540000000 1.0
C      1  0.4010990000000  0.4494340000000  0.4733540000000 1.0
C      1  0.5498460000000  0.5280800000000  0.5622910000000 1.0
C      1  0.4770240000000  0.4933480000000  0.4325340000000 1.0
C      1  0.5619480000000  0.5462630000000  0.4860850000000 1.0
C      1  0.5303840000000  0.4051240000000  0.5085920000000 1.0
C      1  0.5135870000000  0.5572910000000  0.4204090000000 1.0
C      1  0.5177910000000  0.4661440000000  0.4533370000000 1.0
C      1  0.5353610000000  0.5026370000000  0.5017580000000 1.0
C      1  0.5271490000000  0.5967530000000  0.5433330000000 1.0
C      1  0.4668750000000  0.5413560000000  0.4123130000000 1.0
C      1  0.4791270000000  0.5788060000000  0.4607550000000 1.0
C      1  0.4811320000000  0.4560010000000  0.6114380000000 1.0
C      1  0.6029270000000  0.5153280000000  0.5262380000000 1.0
C      1  0.5170210000000  0.5707600000000  0.5055280000000 1.0
C      1  0.5914550000000  0.4665740000000  0.5194340000000 1.0
C      1  0.5033260000000  0.4138250000000  0.4201990000000 1.0
C      1  0.5626880000000  0.5444450000000  0.4055950000000 1.0
C      1  0.4266080000000  0.4825770000000  0.5793160000000 1.0
C      1  0.4992440000000  0.5619840000000  0.5716040000000 1.0
C      1  0.4057900000000  0.5645240000000  0.4787190000000 1.0
C      1  0.4905100000000  0.4302710000000  0.5731570000000 1.0
C      1  0.5748140000000  0.4412040000000  0.5239860000000 1.0
C      1  0.3925140000000  0.5052840000000  0.5216070000000 1.0
C      1  0.4591040000000  0.3911980000000  0.5094040000000 1.0
C      1  0.4597650000000  0.4140510000000  0.4446000000000 1.0
C      1  0.5628820000000  0.5891430000000  0.4673960000000 1.0
C      1  0.5262160000000  0.4882810000000  0.5499960000000 1.0
C      1  0.5337570000000  0.5494400000000  0.4742030000000 1.0
C      1  0.4196670000000  0.4420200000000  0.4516330000000 1.0
C      1  0.5959530000000  0.5496570000000  0.4416190000000 1.0
C      1  0.4733200000000  0.5504380000000  0.5180440000000 1.0
C      1  0.4755180000000  0.4864740000000  0.5973220000000 1.0
C      1  0.4486680000000  0.4149950000000  0.5140170000000 1.0
C      1  0.4270360000000  0.5263120000000  0.5874570000000 1.0
C      1  0.4773100000000  0.5150140000000  0.6102620000000 1.0
C      1  0.5880940000000  0.4715910000000  0.4423070000000 1.0
C      1  0.5491710000000  0.4192890000000  0.5483390000000 1.0
C      1  0.4538900000000  0.4917980000000  0.5756150000000 1.0
C      1  0.6163800000000  0.5283800000000  0.4811470000000 1.0
C      1  0.5090520000000  0.5385180000000  0.5532890000000 1.0
C      1  0.4923620000000  0.4892610000000  0.5201250000000 1.0
C      1  0.5872070000000  0.4708810000000  0.4719310000000 1.0
C      1  0.4829450000000  0.5307550000000  0.5460240000000 1.0
C      1  0.5742270000000  0.4511640000000  0.4243660000000 1.0
C      1  0.4351090000000  0.5701310000000  0.4427590000000 1.0
C      1  0.4594700000000  0.5171810000000  0.4272320000000 1.0
C      1  0.5669300000000  0.5758550000000  0.5565900000000 1.0
C      1  0.5727930000000  0.5184320000000  0.4843700000000 1.0
C      1  0.5295600000000  0.5068960000000  0.3931650000000 1.0
C      1  0.4385380000000  0.5392760000000  0.5593450000000 1.0
C      1  0.3991780000000  0.5512150000000  0.5026070000000 1.0
C      1  0.4107290000000  0.5065810000000  0.5737410000000 1.0
C      1  0.4565740000000  0.6030020000000  0.5037220000000 1.0
C      1  0.4162240000000  0.4581130000000  0.5200710000000 1.0
C      1  0.4997340000000  0.4430860000000  0.5258240000000 1.0
C      1  0.5523370000000  0.4305570000000  0.4253400000000 1.0
C      1  0.4641170000000  0.4668050000000  0.4359270000000 1.0
C      1  0.5068840000000  0.3992180000000  0.4647290000000 1.0
C      1  0.5884270000000  0.5539800000000  0.5584120000000 1.0
C      1  0.4493020000000  0.4275030000000  0.5825610000000 1.0
C      1  0.4317300000000  0.5904660000000  0.5121180000000 1.0
C      1  0.5500520000000  0.4668280000000  0.5634480000000 1.0
C      1  0.5169550000000  0.5435210000000  0.4967830000000 1.0
C      1  0.5032020000000  0.4825520000000  0.5905190000000 1.0
C      1  0.5451480000000  0.4484950000000  0.4899080000000 1.0
C      1  0.4344040000000  0.5671610000000  0.5473290000000 1.0
C      1  0.4768390000000  0.4353190000000  0.4573920000000 1.0
C      1  0.5427490000000  0.6020510000000  0.4845180000000 1.0
C      1  0.5279600000000  0.4023360000000  0.5369570000000 1.0
C      1  0.4385140000000  0.5097650000000  0.4081060000000 1.0
C      1  0.5189050000000  0.6098450000000  0.4746300000000 1.0
C      1  0.5493370000000  0.4485150000000  0.5863800000000 1.0
C      1  0.4355620000000  0.4179620000000  0.4606290000000 1.0
C      1  0.5734100000000  0.5623520000000  0.4261930000000 1.0
C      1  0.4471910000000  0.5421710000000  0.4795530000000 1.0
C      1  0.5265740000000  0.5448300000000  0.6024480000000 1.0
C      1  0.4825930000000  0.6028780000000  0.5171040000000 1.0
C      1  0.4497210000000  0.4694160000000  0.5251450000000 1.0
C      1  0.4117350000000  0.5171630000000  0.4503900000000 1.0
C      1  0.5587500000000  0.4050210000000  0.4960390000000 1.0
C      1  0.5464860000000  0.4220640000000  0.5775320000000 1.0
C      1  0.5256390000000  0.4329920000000  0.4137270000000 1.0
C      1  0.5076080000000  0.4740650000000  0.5648100000000 1.0
C      1  0.5199900000000  0.4000160000000  0.4392320000000 1.0
C      1  0.4864300000000  0.3805730000000  0.4941260000000 1.0
C      1  0.5912710000000  0.5270620000000  0.5713130000000 1.0
C      1  0.4511540000000  0.4154080000000  0.5425950000000 1.0
C      1  0.4075170000000  0.5141110000000  0.5449720000000 1.0
C      1  0.4320530000000  0.4169320000000  0.4907560000000 1.0
C      1  0.4368970000000  0.5929550000000  0.4608120000000 1.0
C      1  0.4740480000000  0.5498760000000  0.5884210000000 1.0
C      1  0.4304950000000  0.4831420000000  0.4797340000000 1.0
C      1  0.4615240000000  0.4504820000000  0.4749750000000 1.0
C      1  0.4737030000000  0.4700600000000  0.4854220000000 1.0
C      1  0.5534200000000  0.5767290000000  0.4426770000000 1.0
C      1  0.5604620000000  0.4746960000000  0.4829630000000 1.0
C      1  0.4979270000000  0.4770380000000  0.4714340000000 1.0
C      1  0.4779300000000  0.4097180000000  0.5565740000000 1.0
C      1  0.6151820000000  0.5066520000000  0.5012920000000 1.0
C      1  0.5294140000000  0.4326150000000  0.5982770000000 1.0
C      1  0.5269450000000  0.4852230000000  0.4151130000000 1.0
C      1  0.5947260000000  0.5433110000000  0.5321030000000 1.0
C      1  0.4826340000000  0.5865420000000  0.5600070000000 1.0
C      1  0.5503090000000  0.5311380000000  0.5917270000000 1.0
C      1  0.5463890000000  0.5399150000000  0.5361600000000 1.0
C      1  0.4722620000000  0.5502610000000  0.4660050000000 1.0
C      1  0.5309180000000  0.5583260000000  0.4466150000000 1.0
C      1  0.4801040000000  0.5037730000000  0.5414590000000 1.0
C      1  0.4780130000000  0.5844160000000  0.4316120000000 1.0
C      1  0.4559800000000  0.5670860000000  0.4229700000000 1.0
C      1  0.5063520000000  0.5239750000000  0.6108960000000 1.0
C      1  0.5017020000000  0.5141900000000  0.3905180000000 1.0
C      1  0.4948580000000  0.6166140000000  0.4657610000000 1.0
C      1  0.3983720000000  0.4545190000000  0.5458550000000 1.0
C      1  0.5907040000000  0.4972820000000  0.4278290000000 1.0
C      1  0.5657490000000  0.4854880000000  0.5801060000000 1.0
C      1  0.4984260000000  0.6030910000000  0.5430040000000 1.0
C      1  0.4599380000000  0.4400980000000  0.6034750000000 1.0
C      1  0.4482550000000  0.5237410000000  0.6079920000000 1.0
C      1  0.5004880000000  0.4356210000000  0.6007160000000 1.0
C      1  0.4908230000000  0.4638880000000  0.3930730000000 1.0
C      1  0.5497510000000  0.4065780000000  0.4421360000000 1.0
C      1  0.5209240000000  0.4878180000000  0.5214680000000 1.0
C      1  0.5224680000000  0.4441020000000  0.4700910000000 1.0
C      1  0.4688390000000  0.4480420000000  0.4087930000000 1.0
C      1  0.5170710000000  0.4586940000000  0.4025560000000 1.0
C      1  0.4821370000000  0.4910280000000  0.3873230000000 1.0
C      1  0.5676040000000  0.4312380000000  0.4983440000000 1.0
C      1  0.4649810000000  0.5295470000000  0.5683850000000 1.0
C      1  0.4531920000000  0.5840840000000  0.5618760000000 1.0
C      1  0.4633550000000  0.6014030000000  0.4735560000000 1.0
C      1  0.5964390000000  0.5208250000000  0.4411900000000 1.0
C      1  0.4892760000000  0.5330930000000  0.5013230000000 1.0
C      1  0.4803490000000  0.5066770000000  0.4976090000000 1.0
C      1  0.5400350000000  0.4833840000000  0.4453180000000 1.0
C      1  0.5842460000000  0.4994710000000  0.5622230000000 1.0
C      1  0.5381390000000  0.5903280000000  0.5151210000000 1.0
C      1  0.3984280000000  0.4797400000000  0.5110760000000 1.0
C      1  0.4953410000000  0.5385860000000  0.4053440000000 1.0
C      1  0.5129730000000  0.3894460000000  0.4899680000000 1.0
C      1  0.6052580000000  0.5536780000000  0.4692360000000 1.0
C      1  0.5176650000000  0.5200220000000  0.4496540000000 1.0
C      1  0.4216660000000  0.4986930000000  0.4297700000000 1.0
C      1  0.5307790000000  0.5266810000000  0.5157110000000 1.0
C      1  0.4902100000000  0.5756820000000  0.5111940000000 1.0
C      1  0.3957010000000  0.5098070000000  0.4722290000000 1.0
C      1  0.5243530000000  0.5159220000000  0.5609340000000 1.0
C      1  0.4996480000000  0.3973920000000  0.5414080000000 1.0
C      1  0.4778350000000  0.4617510000000  0.5235160000000 1.0
C      1  0.4381740000000  0.4605040000000  0.4670450000000 1.0
C      1  0.5010160000000  0.4260740000000  0.4690570000000 1.0
C      1  0.4330130000000  0.4289910000000  0.5617450000000 1.0
C      1  0.5720620000000  0.4695500000000  0.4039950000000 1.0
C      1  0.5686760000000  0.5529640000000  0.5196710000000 1.0
C      1  0.4002840000000  0.4801410000000  0.4818810000000 1.0
C      1  0.4348740000000  0.4697670000000  0.4290360000000 1.0
C      1  0.5594760000000  0.4052630000000  0.4685660000000 1.0
END
