TITL C-3909649-7198-1 62.7073917424752 125000 -27143.3926895221 0 0 180 (C1) n - 1
REM
REM in /home/nfs/bkarasulu/CARBON/AIRSS/Generating-Clusters/ReaxFF-fromJPCA2015/Units_Real/with-SteepDescent/Only-C1/SD-CG/Try1-3A/FIRE-CG
REM
REM
REM
REM
REM
REM ./C.cell (11c1c37f851c82e70ff6c80c92926a4b)
REM
REM compiler GCC version 9.2.1 20190827 (Red Hat 9.2.1-1)
REM options -cpp -mtune=generic -march=x86-64 -g -O0 -fpre-include=/usr/include/finclude/math-vector-fortran.h
REM seed -2000153130 -933099522 -1573246706 -68889113 1229526775 -94297001 1943867697 -1034113519 -606543842 -1793843008 1691294930 1819011016 17305817 -892403892 1250923949 1398891575 -1940098450 -1685660704 -1424871339 1650629628 1464359014 -216650862 965545199 1706542127 -926585579 1721376925 -1464413326 -1628379759 -547138828 1764159744 -1119704968 -413266103 -251705977
REM
CELL 1.54180   50.00000   50.00000   50.00000   90.00000   90.00000   90.00000
LATT -1
SFAC C  
C      1  0.4992840000000  0.5667790000000  0.5033370000000 1.0
C      1  0.4746490000000  0.5892170000000  0.4313730000000 1.0
C      1  0.5959140000000  0.4748810000000  0.5291400000000 1.0
C      1  0.5120230000000  0.5140510000000  0.4988520000000 1.0
C      1  0.5928260000000  0.5672050000000  0.5293690000000 1.0
C      1  0.5591570000000  0.4137170000000  0.5372960000000 1.0
C      1  0.3942680000000  0.4866070000000  0.4800940000000 1.0
C      1  0.5102150000000  0.5130930000000  0.3913530000000 1.0
C      1  0.5957480000000  0.5285680000000  0.4674730000000 1.0
C      1  0.5446210000000  0.4531340000000  0.5236590000000 1.0
C      1  0.3976440000000  0.4748040000000  0.5513020000000 1.0
C      1  0.5418220000000  0.4877780000000  0.5950560000000 1.0
C      1  0.4006200000000  0.4434700000000  0.5084860000000 1.0
C      1  0.5539660000000  0.4026370000000  0.5083020000000 1.0
C      1  0.4196910000000  0.5178570000000  0.5718630000000 1.0
C      1  0.4667780000000  0.4861770000000  0.4666360000000 1.0
C      1  0.5088990000000  0.5605340000000  0.5579610000000 1.0
C      1  0.5506900000000  0.4393120000000  0.4241220000000 1.0
C      1  0.4196490000000  0.5413880000000  0.5520520000000 1.0
C      1  0.5525030000000  0.5862020000000  0.5491220000000 1.0
C      1  0.5888590000000  0.4537100000000  0.4888530000000 1.0
C      1  0.4881770000000  0.4540540000000  0.4617920000000 1.0
C      1  0.4263010000000  0.4089500000000  0.5309930000000 1.0
C      1  0.5587900000000  0.4139030000000  0.4820000000000 1.0
C      1  0.5837960000000  0.5516500000000  0.5522040000000 1.0
C      1  0.5777910000000  0.4524050000000  0.5185830000000 1.0
C      1  0.5143580000000  0.4255720000000  0.5681930000000 1.0
C      1  0.5331930000000  0.4729570000000  0.5400130000000 1.0
C      1  0.4341790000000  0.4792050000000  0.5272690000000 1.0
C      1  0.5632960000000  0.5853750000000  0.4531020000000 1.0
C      1  0.4432740000000  0.4738940000000  0.4606380000000 1.0
C      1  0.4369410000000  0.5210120000000  0.5951500000000 1.0
C      1  0.4666920000000  0.4761580000000  0.4928170000000 1.0
C      1  0.5717130000000  0.5875620000000  0.5272130000000 1.0
C      1  0.5437600000000  0.4840730000000  0.4940800000000 1.0
C      1  0.5112780000000  0.4837300000000  0.6031430000000 1.0
C      1  0.4782610000000  0.4006630000000  0.5379180000000 1.0
C      1  0.5775950000000  0.4350960000000  0.5436350000000 1.0
C      1  0.4344540000000  0.4950810000000  0.4193660000000 1.0
C      1  0.4874700000000  0.5513880000000  0.4818020000000 1.0
C      1  0.5242860000000  0.5344510000000  0.4031370000000 1.0
C      1  0.4238420000000  0.5674250000000  0.5094060000000 1.0
C      1  0.4920920000000  0.4467800000000  0.5693910000000 1.0
C      1  0.4466750000000  0.4484630000000  0.5857450000000 1.0
C      1  0.4788950000000  0.5200220000000  0.5781330000000 1.0
C      1  0.5176800000000  0.5225360000000  0.5456650000000 1.0
C      1  0.4528810000000  0.4107740000000  0.4690340000000 1.0
C      1  0.4095760000000  0.5464160000000  0.5235890000000 1.0
C      1  0.4635990000000  0.4248200000000  0.4463560000000 1.0
C      1  0.4715680000000  0.4887730000000  0.6164600000000 1.0
C      1  0.5585190000000  0.4692790000000  0.5827980000000 1.0
C      1  0.5716890000000  0.5764210000000  0.4792230000000 1.0
C      1  0.4895330000000  0.4650120000000  0.6122160000000 1.0
C      1  0.5514100000000  0.5238450000000  0.4054550000000 1.0
C      1  0.5229080000000  0.5507380000000  0.5986020000000 1.0
C      1  0.4520550000000  0.4709120000000  0.4207010000000 1.0
C      1  0.5155180000000  0.4090890000000  0.5275150000000 1.0
C      1  0.4650560000000  0.4902350000000  0.3815770000000 1.0
C      1  0.4632030000000  0.5079840000000  0.5533240000000 1.0
C      1  0.4949430000000  0.4971940000000  0.4430420000000 1.0
C      1  0.5606360000000  0.5251480000000  0.4991100000000 1.0
C      1  0.4837780000000  0.4427740000000  0.3972620000000 1.0
C      1  0.5707340000000  0.5272240000000  0.4273550000000 1.0
C      1  0.5115240000000  0.4101150000000  0.4565400000000 1.0
C      1  0.5120270000000  0.5836080000000  0.5769350000000 1.0
C      1  0.5206900000000  0.5607870000000  0.4429690000000 1.0
C      1  0.4415820000000  0.4499470000000  0.4447770000000 1.0
C      1  0.4823690000000  0.4651160000000  0.5494860000000 1.0
C      1  0.5908110000000  0.4783000000000  0.5576050000000 1.0
C      1  0.5660770000000  0.4854710000000  0.4219880000000 1.0
C      1  0.5762270000000  0.4422890000000  0.4417300000000 1.0
C      1  0.4520240000000  0.4110300000000  0.5456660000000 1.0
C      1  0.3895190000000  0.4996600000000  0.5066190000000 1.0
C      1  0.4131100000000  0.4262210000000  0.5510510000000 1.0
C      1  0.4611320000000  0.5292640000000  0.3963070000000 1.0
C      1  0.4229650000000  0.5136510000000  0.4393450000000 1.0
C      1  0.5224280000000  0.4885170000000  0.3974770000000 1.0
C      1  0.4012400000000  0.4582400000000  0.4824110000000 1.0
C      1  0.4163960000000  0.4195280000000  0.5050840000000 1.0
C      1  0.3926000000000  0.5292910000000  0.5064360000000 1.0
C      1  0.5033140000000  0.4757280000000  0.5312850000000 1.0
C      1  0.4831780000000  0.5130150000000  0.3853000000000 1.0
C      1  0.4922690000000  0.5050770000000  0.6037520000000 1.0
C      1  0.4070200000000  0.4905930000000  0.5286970000000 1.0
C      1  0.4607420000000  0.5381220000000  0.5951640000000 1.0
C      1  0.4979390000000  0.3949940000000  0.4753310000000 1.0
C      1  0.4702120000000  0.5108990000000  0.4737280000000 1.0
C      1  0.5332100000000  0.4616450000000  0.4297850000000 1.0
C      1  0.4520260000000  0.5701850000000  0.5195020000000 1.0
C      1  0.6021490000000  0.5210090000000  0.5199200000000 1.0
C      1  0.4910670000000  0.4189170000000  0.4376870000000 1.0
C      1  0.5282110000000  0.5360550000000  0.4569240000000 1.0
C      1  0.5421460000000  0.5760240000000  0.4338930000000 1.0
C      1  0.5782750000000  0.4342110000000  0.4699620000000 1.0
C      1  0.4756670000000  0.5956420000000  0.5496110000000 1.0
C      1  0.4260120000000  0.4192410000000  0.4772950000000 1.0
C      1  0.5576550000000  0.5906130000000  0.5017750000000 1.0
C      1  0.5507420000000  0.4961320000000  0.5420720000000 1.0
C      1  0.4507090000000  0.5978350000000  0.4801340000000 1.0
C      1  0.4264850000000  0.5789810000000  0.4820170000000 1.0
C      1  0.5509880000000  0.4951680000000  0.3994450000000 1.0
C      1  0.5561310000000  0.5590260000000  0.5614090000000 1.0
C      1  0.4685950000000  0.5481650000000  0.5231510000000 1.0
C      1  0.4736550000000  0.5219150000000  0.5297800000000 1.0
C      1  0.4639990000000  0.6045500000000  0.4552140000000 1.0
C      1  0.5444800000000  0.4860240000000  0.4428730000000 1.0
C      1  0.4520070000000  0.5268550000000  0.4866190000000 1.0
C      1  0.4315530000000  0.4737780000000  0.5900650000000 1.0
C      1  0.5036930000000  0.6014710000000  0.5551100000000 1.0
C      1  0.5285250000000  0.5991970000000  0.5376810000000 1.0
C      1  0.4443930000000  0.4941710000000  0.6057000000000 1.0
C      1  0.5457610000000  0.5401670000000  0.5868870000000 1.0
C      1  0.5924900000000  0.5549650000000  0.4814180000000 1.0
C      1  0.5912350000000  0.5246600000000  0.5464970000000 1.0
C      1  0.5036600000000  0.4039500000000  0.5514300000000 1.0
C      1  0.4137810000000  0.4890730000000  0.5719330000000 1.0
C      1  0.5307870000000  0.5486240000000  0.5400580000000 1.0
C      1  0.4388190000000  0.4282010000000  0.5663290000000 1.0
C      1  0.5003610000000  0.5683790000000  0.5994580000000 1.0
C      1  0.5319250000000  0.4220200000000  0.4098270000000 1.0
C      1  0.5249820000000  0.5563630000000  0.5115110000000 1.0
C      1  0.5955930000000  0.5159040000000  0.4411770000000 1.0
C      1  0.5015950000000  0.4241640000000  0.4096800000000 1.0
C      1  0.5052180000000  0.3807340000000  0.4980110000000 1.0
C      1  0.5399720000000  0.4220610000000  0.5563480000000 1.0
C      1  0.4647020000000  0.5977910000000  0.5230090000000 1.0
C      1  0.5201200000000  0.5089540000000  0.4449070000000 1.0
C      1  0.6010930000000  0.5486120000000  0.5083330000000 1.0
C      1  0.4387620000000  0.4845200000000  0.4990650000000 1.0
C      1  0.4390880000000  0.5597660000000  0.5596550000000 1.0
C      1  0.5018620000000  0.5078920000000  0.5261290000000 1.0
C      1  0.4856610000000  0.4708930000000  0.4348060000000 1.0
C      1  0.5228730000000  0.4356220000000  0.5163330000000 1.0
C      1  0.4768350000000  0.4484460000000  0.4886350000000 1.0
C      1  0.4751760000000  0.4473250000000  0.5931680000000 1.0
C      1  0.5777000000000  0.4544620000000  0.5678110000000 1.0
C      1  0.4799920000000  0.3887610000000  0.5110380000000 1.0
C      1  0.4593910000000  0.5773920000000  0.5681040000000 1.0
C      1  0.4710710000000  0.5647530000000  0.5924280000000 1.0
C      1  0.6033360000000  0.4935890000000  0.5083890000000 1.0
C      1  0.5003570000000  0.4526680000000  0.5076900000000 1.0
C      1  0.5020510000000  0.5340030000000  0.5654310000000 1.0
C      1  0.4645070000000  0.4630100000000  0.3940560000000 1.0
C      1  0.5995330000000  0.4795030000000  0.4817910000000 1.0
C      1  0.4587160000000  0.5445300000000  0.4211310000000 1.0
C      1  0.4941060000000  0.5231440000000  0.4797820000000 1.0
C      1  0.5365280000000  0.4236620000000  0.4652840000000 1.0
C      1  0.4756750000000  0.4074580000000  0.4883210000000 1.0
C      1  0.5866160000000  0.4685610000000  0.4342200000000 1.0
C      1  0.4588770000000  0.5543100000000  0.4807970000000 1.0
C      1  0.5187120000000  0.4922910000000  0.4849860000000 1.0
C      1  0.4024520000000  0.5068450000000  0.4597570000000 1.0
C      1  0.5121420000000  0.5949320000000  0.4621700000000 1.0
C      1  0.5546010000000  0.5124640000000  0.5862120000000 1.0
C      1  0.4431460000000  0.5059680000000  0.3935950000000 1.0
C      1  0.4167680000000  0.4427960000000  0.4626850000000 1.0
C      1  0.5985430000000  0.4885190000000  0.4529560000000 1.0
C      1  0.5050280000000  0.5957990000000  0.4922910000000 1.0
C      1  0.5557460000000  0.4752300000000  0.4694500000000 1.0
C      1  0.5101260000000  0.5554410000000  0.4179700000000 1.0
C      1  0.5577620000000  0.5007680000000  0.5148930000000 1.0
C      1  0.5353050000000  0.5381260000000  0.4916050000000 1.0
C      1  0.4567030000000  0.4807180000000  0.5476300000000 1.0
C      1  0.5291480000000  0.3889400000000  0.5127210000000 1.0
C      1  0.4356040000000  0.5408420000000  0.4393210000000 1.0
C      1  0.5307320000000  0.6002030000000  0.5088510000000 1.0
C      1  0.5700410000000  0.5136330000000  0.4737870000000 1.0
C      1  0.5384290000000  0.5999280000000  0.4501100000000 1.0
C      1  0.3992850000000  0.4484330000000  0.5376580000000 1.0
C      1  0.5559170000000  0.5277570000000  0.4516090000000 1.0
C      1  0.4813140000000  0.5629660000000  0.4218210000000 1.0
C      1  0.5116340000000  0.4651150000000  0.4771600000000 1.0
C      1  0.5374200000000  0.4526310000000  0.4696740000000 1.0
C      1  0.5101300000000  0.4700080000000  0.4158220000000 1.0
C      1  0.4371660000000  0.5602740000000  0.4616410000000 1.0
C      1  0.4735090000000  0.6043480000000  0.4962880000000 1.0
C      1  0.4912180000000  0.6052150000000  0.4466680000000 1.0
C      1  0.4062030000000  0.5273620000000  0.4801280000000 1.0
C      1  0.5736370000000  0.5043000000000  0.5617750000000 1.0
C      1  0.4287790000000  0.5128190000000  0.4938710000000 1.0
END
