TITL C-3909649-7198-12 119.868213998958 125000 -28242.5066981705 0 0 192 (C1) n - 1
REM
REM in /home/nfs/bkarasulu/CARBON/AIRSS/Generating-Clusters/ReaxFF-fromJPCA2015/Units_Real/with-SteepDescent/Only-C1/SD-CG/Try1-3A/FIRE-CG
REM
REM
REM
REM
REM
REM ./C.cell (11c1c37f851c82e70ff6c80c92926a4b)
REM
REM compiler GCC version 9.2.1 20190827 (Red Hat 9.2.1-1)
REM options -cpp -mtune=generic -march=x86-64 -g -O0 -fpre-include=/usr/include/finclude/math-vector-fortran.h
REM seed 833094325 -1857572160 -950543143 -752009109 1738517902 -326097969 162502313 -1906275389 309429428 -1706788280 364739785 1153000819 1122268507 441631632 203294756 -649983323 1910944150 2040608696 -2046656925 -1552251069 -946436244 165833292 601447361 1162688367 1998217930 2058758500 -1979393002 -1339140165 -1665020943 -1754445069 -575018233 285941192 1415267583
REM
CELL 1.54180   50.00000   50.00000   50.00000   90.00000   90.00000   90.00000
LATT -1
SFAC C  
C      1  0.6151430000000  0.5047770000000  0.4564670000000 1.0
C      1  0.4900620000000  0.4494920000000  0.4119280000000 1.0
C      1  0.5810220000000  0.5030840000000  0.5039510000000 1.0
C      1  0.5283510000000  0.4508780000000  0.5488430000000 1.0
C      1  0.5399010000000  0.5944150000000  0.5430450000000 1.0
C      1  0.5794440000000  0.5434980000000  0.5825160000000 1.0
C      1  0.4514800000000  0.4760820000000  0.4511200000000 1.0
C      1  0.5943140000000  0.4502850000000  0.5442030000000 1.0
C      1  0.5468340000000  0.4923040000000  0.4007330000000 1.0
C      1  0.4463590000000  0.4718060000000  0.4803450000000 1.0
C      1  0.4498280000000  0.5438700000000  0.5185960000000 1.0
C      1  0.5388310000000  0.6078810000000  0.4998540000000 1.0
C      1  0.4989030000000  0.4194840000000  0.5813870000000 1.0
C      1  0.4656650000000  0.4585740000000  0.3943940000000 1.0
C      1  0.4896690000000  0.4846500000000  0.5990590000000 1.0
C      1  0.4573300000000  0.5071790000000  0.5799890000000 1.0
C      1  0.5766000000000  0.5653310000000  0.5645880000000 1.0
C      1  0.5622220000000  0.4213720000000  0.4673080000000 1.0
C      1  0.4990720000000  0.4721150000000  0.4280870000000 1.0
C      1  0.4342910000000  0.4241460000000  0.5338000000000 1.0
C      1  0.5148640000000  0.3883190000000  0.5155910000000 1.0
C      1  0.4931200000000  0.6019330000000  0.4390070000000 1.0
C      1  0.5041720000000  0.4262550000000  0.4641940000000 1.0
C      1  0.4775200000000  0.5782940000000  0.5814430000000 1.0
C      1  0.3863680000000  0.5282940000000  0.4742280000000 1.0
C      1  0.4098320000000  0.4578590000000  0.4543590000000 1.0
C      1  0.4859900000000  0.5348050000000  0.4469470000000 1.0
C      1  0.4630210000000  0.6213880000000  0.4671390000000 1.0
C      1  0.5605000000000  0.4403840000000  0.5811190000000 1.0
C      1  0.4718400000000  0.3985940000000  0.5469790000000 1.0
C      1  0.5006130000000  0.4546660000000  0.5563960000000 1.0
C      1  0.5321200000000  0.4219820000000  0.4574440000000 1.0
C      1  0.4862890000000  0.4685830000000  0.5208130000000 1.0
C      1  0.4932990000000  0.5587750000000  0.4601830000000 1.0
C      1  0.5429040000000  0.3900840000000  0.5266230000000 1.0
C      1  0.4616260000000  0.4874430000000  0.6016660000000 1.0
C      1  0.4124320000000  0.4280990000000  0.5151270000000 1.0
C      1  0.4850870000000  0.5080190000000  0.4628950000000 1.0
C      1  0.4384310000000  0.5944280000000  0.4449190000000 1.0
C      1  0.4594310000000  0.6074460000000  0.5108820000000 1.0
C      1  0.4819540000000  0.5616610000000  0.4871030000000 1.0
C      1  0.4213580000000  0.5743130000000  0.4358270000000 1.0
C      1  0.6011510000000  0.4443390000000  0.5177040000000 1.0
C      1  0.4383600000000  0.4016490000000  0.4257540000000 1.0
C      1  0.4504840000000  0.4015760000000  0.5262290000000 1.0
C      1  0.4952770000000  0.5403230000000  0.4017020000000 1.0
C      1  0.5764710000000  0.5868970000000  0.5081250000000 1.0
C      1  0.5252990000000  0.5023080000000  0.3837070000000 1.0
C      1  0.4300060000000  0.5015050000000  0.5346990000000 1.0
C      1  0.5639710000000  0.4812410000000  0.4909990000000 1.0
C      1  0.5067200000000  0.5768790000000  0.4373480000000 1.0
C      1  0.4478380000000  0.4020780000000  0.4971200000000 1.0
C      1  0.4306440000000  0.5477250000000  0.4778770000000 1.0
C      1  0.4042120000000  0.4556790000000  0.5553280000000 1.0
C      1  0.5542470000000  0.5484790000000  0.4916880000000 1.0
C      1  0.4846950000000  0.4946430000000  0.5118760000000 1.0
C      1  0.4666160000000  0.5292560000000  0.4071180000000 1.0
C      1  0.5516830000000  0.5416270000000  0.5316880000000 1.0
C      1  0.5685030000000  0.5553610000000  0.4432180000000 1.0
C      1  0.6078750000000  0.4649890000000  0.4935070000000 1.0
C      1  0.5014010000000  0.4888490000000  0.3779030000000 1.0
C      1  0.5043000000000  0.4982620000000  0.4885720000000 1.0
C      1  0.5326760000000  0.5190830000000  0.5286980000000 1.0
C      1  0.5324000000000  0.5744160000000  0.6006990000000 1.0
C      1  0.4987530000000  0.3830140000000  0.4860890000000 1.0
C      1  0.4845780000000  0.5131070000000  0.5391320000000 1.0
C      1  0.4783340000000  0.4771400000000  0.3771300000000 1.0
C      1  0.4792850000000  0.4069340000000  0.4573230000000 1.0
C      1  0.4346760000000  0.6137740000000  0.4692590000000 1.0
C      1  0.4719270000000  0.4161640000000  0.5710270000000 1.0
C      1  0.4386790000000  0.5740370000000  0.5299700000000 1.0
C      1  0.5973600000000  0.5305950000000  0.5634200000000 1.0
C      1  0.5114830000000  0.4420090000000  0.5972310000000 1.0
C      1  0.5350430000000  0.5539980000000  0.5749640000000 1.0
C      1  0.4915860000000  0.5581930000000  0.5390510000000 1.0
C      1  0.4992650000000  0.5348210000000  0.5904830000000 1.0
C      1  0.5893020000000  0.5027240000000  0.5589850000000 1.0
C      1  0.5778750000000  0.4831870000000  0.5782620000000 1.0
C      1  0.5111840000000  0.5624820000000  0.4093970000000 1.0
C      1  0.4981560000000  0.3886050000000  0.5418690000000 1.0
C      1  0.3973300000000  0.4705340000000  0.5033040000000 1.0
C      1  0.5104660000000  0.5106590000000  0.6011200000000 1.0
C      1  0.5417430000000  0.5609250000000  0.4052850000000 1.0
C      1  0.5359430000000  0.4383540000000  0.5076600000000 1.0
C      1  0.3888940000000  0.4997480000000  0.4737190000000 1.0
C      1  0.5960430000000  0.5559550000000  0.5465400000000 1.0
C      1  0.5762430000000  0.4978570000000  0.5332480000000 1.0
C      1  0.5578980000000  0.5829760000000  0.4557930000000 1.0
C      1  0.5817070000000  0.4413160000000  0.4666230000000 1.0
C      1  0.5882800000000  0.5620850000000  0.5191380000000 1.0
C      1  0.5848680000000  0.4558500000000  0.5703200000000 1.0
C      1  0.4278100000000  0.4776070000000  0.4339890000000 1.0
C      1  0.5480720000000  0.4752940000000  0.4677710000000 1.0
C      1  0.5068210000000  0.4508910000000  0.4710520000000 1.0
C      1  0.5135980000000  0.6119130000000  0.4572260000000 1.0
C      1  0.5624640000000  0.5417450000000  0.4182070000000 1.0
C      1  0.5305850000000  0.3970970000000  0.4422580000000 1.0
C      1  0.4917040000000  0.4787950000000  0.5697440000000 1.0
C      1  0.5591070000000  0.6061140000000  0.5224300000000 1.0
C      1  0.5510240000000  0.4656620000000  0.4394890000000 1.0
C      1  0.5686980000000  0.3959870000000  0.4818020000000 1.0
C      1  0.4082920000000  0.5233110000000  0.4179120000000 1.0
C      1  0.4579270000000  0.5595560000000  0.5868530000000 1.0
C      1  0.4751010000000  0.4355730000000  0.4959150000000 1.0
C      1  0.5337690000000  0.4163360000000  0.4169320000000 1.0
C      1  0.6031570000000  0.4837950000000  0.4432970000000 1.0
C      1  0.5402830000000  0.4012110000000  0.5533470000000 1.0
C      1  0.4204270000000  0.5418040000000  0.5604110000000 1.0
C      1  0.5206380000000  0.5924410000000  0.5182780000000 1.0
C      1  0.5269950000000  0.5121560000000  0.4314290000000 1.0
C      1  0.4062400000000  0.5437320000000  0.4927850000000 1.0
C      1  0.5112030000000  0.5197940000000  0.5474260000000 1.0
C      1  0.4022730000000  0.5434550000000  0.5224350000000 1.0
C      1  0.5528820000000  0.4603960000000  0.5089360000000 1.0
C      1  0.4564760000000  0.4984010000000  0.4970010000000 1.0
C      1  0.4318700000000  0.6077340000000  0.4982250000000 1.0
C      1  0.4539670000000  0.5552450000000  0.4923330000000 1.0
C      1  0.5716910000000  0.5398720000000  0.5119850000000 1.0
C      1  0.4712860000000  0.3925110000000  0.4815740000000 1.0
C      1  0.6272690000000  0.5139700000000  0.4805150000000 1.0
C      1  0.5513190000000  0.4813950000000  0.5916600000000 1.0
C      1  0.4141210000000  0.5638600000000  0.5411940000000 1.0
C      1  0.5164570000000  0.4192760000000  0.5091030000000 1.0
C      1  0.4160980000000  0.4319150000000  0.4641730000000 1.0
C      1  0.5378960000000  0.5073310000000  0.5973130000000 1.0
C      1  0.6086640000000  0.4937180000000  0.4971510000000 1.0
C      1  0.4216030000000  0.5074080000000  0.4368920000000 1.0
C      1  0.4091030000000  0.5221640000000  0.5419470000000 1.0
C      1  0.4813400000000  0.4497750000000  0.5356610000000 1.0
C      1  0.4868300000000  0.4276010000000  0.5156090000000 1.0
C      1  0.5193970000000  0.4731510000000  0.4765390000000 1.0
C      1  0.4325350000000  0.4251690000000  0.4377020000000 1.0
C      1  0.4599450000000  0.5371350000000  0.4341910000000 1.0
C      1  0.4490390000000  0.5391690000000  0.5683770000000 1.0
C      1  0.4851150000000  0.5857780000000  0.5528930000000 1.0
C      1  0.4243660000000  0.4189670000000  0.4896480000000 1.0
C      1  0.5144860000000  0.3853440000000  0.4623820000000 1.0
C      1  0.5090580000000  0.6151600000000  0.4854870000000 1.0
C      1  0.4632220000000  0.4436420000000  0.4759690000000 1.0
C      1  0.5103510000000  0.6000270000000  0.5436120000000 1.0
C      1  0.4351080000000  0.4876980000000  0.5884630000000 1.0
C      1  0.5385610000000  0.4705170000000  0.5318930000000 1.0
C      1  0.4656070000000  0.6070020000000  0.4420630000000 1.0
C      1  0.4262540000000  0.4692180000000  0.5022270000000 1.0
C      1  0.5186170000000  0.5346880000000  0.4798770000000 1.0
C      1  0.4490110000000  0.4499000000000  0.5433420000000 1.0
C      1  0.5102720000000  0.5421220000000  0.5644950000000 1.0
C      1  0.5672240000000  0.5114230000000  0.4119770000000 1.0
C      1  0.4404700000000  0.5159280000000  0.5119320000000 1.0
C      1  0.5340630000000  0.5259420000000  0.4561150000000 1.0
C      1  0.5591670000000  0.5377930000000  0.4646930000000 1.0
C      1  0.5319660000000  0.5917370000000  0.4475050000000 1.0
C      1  0.4997910000000  0.5574620000000  0.5100580000000 1.0
C      1  0.5258140000000  0.5583160000000  0.4963690000000 1.0
C      1  0.5467280000000  0.4297320000000  0.5574800000000 1.0
C      1  0.5511970000000  0.5632790000000  0.5525000000000 1.0
C      1  0.3914380000000  0.4721570000000  0.4731870000000 1.0
C      1  0.4604850000000  0.4274690000000  0.4498120000000 1.0
C      1  0.4193200000000  0.4355880000000  0.5730170000000 1.0
C      1  0.4181500000000  0.4773950000000  0.5680410000000 1.0
C      1  0.4034950000000  0.5542400000000  0.4276470000000 1.0
C      1  0.4595010000000  0.5150710000000  0.4758460000000 1.0
C      1  0.5480090000000  0.4949740000000  0.5378460000000 1.0
C      1  0.5127650000000  0.3990650000000  0.5647330000000 1.0
C      1  0.5849350000000  0.4212040000000  0.5163500000000 1.0
C      1  0.4824080000000  0.5562890000000  0.5983980000000 1.0
C      1  0.5222420000000  0.5166490000000  0.5004250000000 1.0
C      1  0.5503390000000  0.4402790000000  0.4250680000000 1.0
C      1  0.5525830000000  0.5351620000000  0.5937060000000 1.0
C      1  0.3936170000000  0.5452640000000  0.4522240000000 1.0
C      1  0.5392070000000  0.4543250000000  0.5947740000000 1.0
C      1  0.3971380000000  0.4510680000000  0.5254060000000 1.0
C      1  0.4683730000000  0.5393840000000  0.5411720000000 1.0
C      1  0.4813780000000  0.6173090000000  0.4907120000000 1.0
C      1  0.5865250000000  0.4993680000000  0.4278280000000 1.0
C      1  0.4928180000000  0.4611560000000  0.6062740000000 1.0
C      1  0.5611330000000  0.5917100000000  0.4835230000000 1.0
C      1  0.4587880000000  0.5933710000000  0.5357750000000 1.0
C      1  0.4333230000000  0.4726500000000  0.5301080000000 1.0
C      1  0.6002500000000  0.4602940000000  0.4659720000000 1.0
C      1  0.5451310000000  0.5559320000000  0.6179380000000 1.0
C      1  0.4473820000000  0.4784620000000  0.4051710000000 1.0
C      1  0.5301450000000  0.4837570000000  0.4253810000000 1.0
C      1  0.5177680000000  0.5217380000000  0.4056300000000 1.0
C      1  0.4736390000000  0.4970510000000  0.5592360000000 1.0
C      1  0.5683680000000  0.3983900000000  0.5118320000000 1.0
C      1  0.5577240000000  0.5823340000000  0.4147000000000 1.0
C      1  0.4593870000000  0.5024320000000  0.4016390000000 1.0
C      1  0.4492320000000  0.4363580000000  0.5710790000000 1.0
C      1  0.4796060000000  0.4836200000000  0.4439540000000 1.0
C      1  0.4402630000000  0.5270900000000  0.4554150000000 1.0
C      1  0.5108920000000  0.4312020000000  0.4111390000000 1.0
END
