TITL C-3909774-5894-39 1.96046585807314 125000 -2860.31325354991 0 0 21 (C1) n - 1
REM
REM in /home/nfs/bkarasulu/CARBON/AIRSS/Generating-Clusters/ReaxFF-fromJPCA2015/Units_Real/with-SteepDescent/Only-C1/SD-CG/Try1-3A/FIRE-CG
REM
REM
REM
REM
REM
REM ./C.cell (11c1c37f851c82e70ff6c80c92926a4b)
REM
REM compiler GCC version 9.2.1 20190827 (Red Hat 9.2.1-1)
REM options -cpp -mtune=generic -march=x86-64 -g -O0 -fpre-include=/usr/include/finclude/math-vector-fortran.h
REM seed -1113439610 1431632590 853801894 -1938469588 300485279 129659423 514793379 -2018840859 967389328 602563946 -1595586403 -1023847614 -1017996121 -622279213 754106740 -822335299 1981596301 1547391716 -1269527056 -224174641 1178624870 -1975055926 1868572553 1238310266 -796798868 442367138 1317294916 -1661910745 -1450990242 503988596 -1326652381 -1434450505 1386593537
REM
CELL 1.54180   50.00000   50.00000   50.00000   90.00000   90.00000   90.00000
LATT -1
SFAC C  
C      1  0.4641890000000  0.4407680000000  0.5337950000000 1.0
C      1  0.4923530000000  0.4399910000000  0.5440450000000 1.0
C      1  0.4589860000000  0.4518980000000  0.5066460000000 1.0
C      1  0.4902630000000  0.5090880000000  0.4549120000000 1.0
C      1  0.5211860000000  0.5382840000000  0.5200390000000 1.0
C      1  0.5371270000000  0.4947880000000  0.5369190000000 1.0
C      1  0.5011020000000  0.5611740000000  0.4843660000000 1.0
C      1  0.5175100000000  0.4456440000000  0.5297290000000 1.0
C      1  0.5041670000000  0.5080000000000  0.4816660000000 1.0
C      1  0.4593950000000  0.5050210000000  0.4537810000000 1.0
C      1  0.5097840000000  0.5839560000000  0.5060620000000 1.0
C      1  0.5207060000000  0.4638070000000  0.5073340000000 1.0
C      1  0.5088880000000  0.5331220000000  0.4949050000000 1.0
C      1  0.5219720000000  0.5694860000000  0.5271680000000 1.0
C      1  0.5378790000000  0.4677740000000  0.5313020000000 1.0
C      1  0.5008520000000  0.4803000000000  0.4932180000000 1.0
C      1  0.4747250000000  0.4673340000000  0.4870870000000 1.0
C      1  0.4927040000000  0.4805830000000  0.4519560000000 1.0
C      1  0.5318950000000  0.5171860000000  0.5336880000000 1.0
C      1  0.4890230000000  0.5665040000000  0.4621830000000 1.0
C      1  0.4652940000000  0.4752910000000  0.4591990000000 1.0
END
