TITL C-3909645-4886-4 0.73221805818086 125000 -15338.9790716629 0 0 103 (C1) n - 1
REM
REM in /home/nfs/bkarasulu/CARBON/AIRSS/Generating-Clusters/ReaxFF-fromJPCA2015/Units_Real/with-SteepDescent/Only-C1/SD-CG/Try1-3A/FIRE-CG
REM
REM
REM
REM
REM
REM ./C.cell (11c1c37f851c82e70ff6c80c92926a4b)
REM
REM compiler GCC version 9.2.1 20190827 (Red Hat 9.2.1-1)
REM options -cpp -mtune=generic -march=x86-64 -g -O0 -fpre-include=/usr/include/finclude/math-vector-fortran.h
REM seed 1361111276 1256634415 1365989468 -2019564138 894680321 -1522714126 1537304157 -504276347 -1190096188 -569363517 508509476 1153229897 42320851 -922551945 -1633178270 989185970 823058443 1952168568 1353733667 2024641603 909841778 -18699044 -1433385115 539722242 1281251740 -1661622767 -945091879 -515849858 53915145 -1466166138 -335290063 -864847896 1442535576
REM
CELL 1.54180   50.00000   50.00000   50.00000   90.00000   90.00000   90.00000
LATT -1
SFAC C  
C      1  0.4980120000000  0.4826840000000  0.5644290000000 1.0
C      1  0.4549330000000  0.5680650000000  0.5020200000000 1.0
C      1  0.4592270000000  0.5181550000000  0.5610060000000 1.0
C      1  0.5108990000000  0.4768560000000  0.5188360000000 1.0
C      1  0.5518680000000  0.4384850000000  0.5425570000000 1.0
C      1  0.4434340000000  0.4468380000000  0.5777030000000 1.0
C      1  0.5163920000000  0.5287910000000  0.4933530000000 1.0
C      1  0.5673280000000  0.5314520000000  0.5648000000000 1.0
C      1  0.4909920000000  0.4790220000000  0.5909740000000 1.0
C      1  0.4159040000000  0.5009230000000  0.4750320000000 1.0
C      1  0.4368150000000  0.4972520000000  0.4541630000000 1.0
C      1  0.4248790000000  0.4465490000000  0.4776640000000 1.0
C      1  0.5376280000000  0.5270160000000  0.4178510000000 1.0
C      1  0.5420810000000  0.4535950000000  0.4269640000000 1.0
C      1  0.4950260000000  0.5744970000000  0.4402280000000 1.0
C      1  0.5803420000000  0.4989430000000  0.5034450000000 1.0
C      1  0.5120610000000  0.5034770000000  0.4543310000000 1.0
C      1  0.4721630000000  0.5829570000000  0.4829610000000 1.0
C      1  0.4804730000000  0.5051050000000  0.5948420000000 1.0
C      1  0.5543560000000  0.4394030000000  0.5147260000000 1.0
C      1  0.5135230000000  0.4550980000000  0.5900270000000 1.0
C      1  0.4703260000000  0.5301020000000  0.5862910000000 1.0
C      1  0.5687170000000  0.4655920000000  0.4660060000000 1.0
C      1  0.5678100000000  0.4875730000000  0.4475760000000 1.0
C      1  0.4497320000000  0.4296000000000  0.5167520000000 1.0
C      1  0.4319700000000  0.4335440000000  0.5025060000000 1.0
C      1  0.4136280000000  0.4814130000000  0.5350070000000 1.0
C      1  0.5681240000000  0.5049140000000  0.5550910000000 1.0
C      1  0.4666320000000  0.5601500000000  0.5274390000000 1.0
C      1  0.4654660000000  0.4832510000000  0.5088700000000 1.0
C      1  0.4703350000000  0.5062210000000  0.4912110000000 1.0
C      1  0.4712370000000  0.4369700000000  0.5749610000000 1.0
C      1  0.5541220000000  0.4804470000000  0.4231160000000 1.0
C      1  0.4986080000000  0.5854270000000  0.4866200000000 1.0
C      1  0.5122390000000  0.4057780000000  0.5014930000000 1.0
C      1  0.5253440000000  0.5867680000000  0.4918300000000 1.0
C      1  0.5383130000000  0.4679770000000  0.5828890000000 1.0
C      1  0.5169840000000  0.5462290000000  0.5755020000000 1.0
C      1  0.4338030000000  0.5515150000000  0.4876160000000 1.0
C      1  0.4445800000000  0.5717000000000  0.4413330000000 1.0
C      1  0.4639130000000  0.5045220000000  0.4149180000000 1.0
C      1  0.5304060000000  0.5085740000000  0.4766060000000 1.0
C      1  0.5491600000000  0.5717900000000  0.4773520000000 1.0
C      1  0.4836270000000  0.4333360000000  0.4423110000000 1.0
C      1  0.5266540000000  0.5438260000000  0.5159420000000 1.0
C      1  0.4728080000000  0.5185350000000  0.4400210000000 1.0
C      1  0.5239780000000  0.5732140000000  0.5178880000000 1.0
C      1  0.4979750000000  0.4233890000000  0.5459160000000 1.0
C      1  0.4888670000000  0.4627320000000  0.4310860000000 1.0
C      1  0.4700020000000  0.5822430000000  0.4507670000000 1.0
C      1  0.5122980000000  0.5414140000000  0.4220110000000 1.0
C      1  0.4873270000000  0.4632710000000  0.5074010000000 1.0
C      1  0.4490700000000  0.4388110000000  0.4659880000000 1.0
C      1  0.4791790000000  0.4324300000000  0.5202540000000 1.0
C      1  0.5590500000000  0.5549120000000  0.5515830000000 1.0
C      1  0.5479790000000  0.4664120000000  0.5070970000000 1.0
C      1  0.5448780000000  0.4982620000000  0.5747850000000 1.0
C      1  0.4477800000000  0.4636600000000  0.5523910000000 1.0
C      1  0.5542990000000  0.5364460000000  0.4399820000000 1.0
C      1  0.5574470000000  0.5424500000000  0.5219080000000 1.0
C      1  0.4324880000000  0.5261780000000  0.5478330000000 1.0
C      1  0.4829390000000  0.4823700000000  0.4087220000000 1.0
C      1  0.5237130000000  0.4411220000000  0.4682050000000 1.0
C      1  0.5262350000000  0.4802260000000  0.4952620000000 1.0
C      1  0.4939950000000  0.4803560000000  0.4575350000000 1.0
C      1  0.5696690000000  0.5132230000000  0.5271780000000 1.0
C      1  0.5354800000000  0.5670680000000  0.5635040000000 1.0
C      1  0.4469760000000  0.4791860000000  0.5311360000000 1.0
C      1  0.5293440000000  0.5208180000000  0.5769470000000 1.0
C      1  0.5020370000000  0.4955900000000  0.5405460000000 1.0
C      1  0.4863690000000  0.5387820000000  0.5226520000000 1.0
C      1  0.4090200000000  0.4735560000000  0.4815910000000 1.0
C      1  0.5457270000000  0.4490490000000  0.5649120000000 1.0
C      1  0.5493410000000  0.4458480000000  0.4547160000000 1.0
C      1  0.5355520000000  0.4989460000000  0.4098830000000 1.0
C      1  0.4359440000000  0.5605560000000  0.4615890000000 1.0
C      1  0.4985910000000  0.5855420000000  0.5550180000000 1.0
C      1  0.4887970000000  0.5263120000000  0.4973780000000 1.0
C      1  0.5206350000000  0.5680980000000  0.4326690000000 1.0
C      1  0.4874440000000  0.4180000000000  0.4952660000000 1.0
C      1  0.4392460000000  0.4997120000000  0.4273480000000 1.0
C      1  0.4671630000000  0.5011200000000  0.4629050000000 1.0
C      1  0.5118480000000  0.4306160000000  0.4448580000000 1.0
C      1  0.5840110000000  0.5176390000000  0.4814110000000 1.0
C      1  0.5454790000000  0.5617020000000  0.4494150000000 1.0
C      1  0.4811510000000  0.5170340000000  0.5416390000000 1.0
C      1  0.5155210000000  0.4565940000000  0.4142220000000 1.0
C      1  0.4260230000000  0.5253270000000  0.5199400000000 1.0
C      1  0.5384650000000  0.4135130000000  0.5130540000000 1.0
C      1  0.4993280000000  0.4340030000000  0.5734360000000 1.0
C      1  0.5246100000000  0.5872560000000  0.5449050000000 1.0
C      1  0.4726590000000  0.4253530000000  0.4687900000000 1.0
C      1  0.5656920000000  0.5591110000000  0.4966130000000 1.0
C      1  0.4057950000000  0.4792570000000  0.5081360000000 1.0
C      1  0.4205570000000  0.5249290000000  0.4937040000000 1.0
C      1  0.5168130000000  0.4071370000000  0.5318990000000 1.0
C      1  0.4752350000000  0.5700480000000  0.5549810000000 1.0
C      1  0.4876560000000  0.5520250000000  0.5760820000000 1.0
C      1  0.5061660000000  0.4636730000000  0.4799680000000 1.0
C      1  0.5716890000000  0.4709500000000  0.4945590000000 1.0
C      1  0.5607230000000  0.5144130000000  0.4608870000000 1.0
C      1  0.5115700000000  0.4831590000000  0.4022050000000 1.0
C      1  0.4992990000000  0.5240400000000  0.4402770000000 1.0
END
