TITL C-3909654-4785-9 -4.35672635121155 125000 -13032.1401998109 0 0 87 (C1) n - 1
REM
REM in /home/nfs/bkarasulu/CARBON/AIRSS/Generating-Clusters/ReaxFF-fromJPCA2015/Units_Real/with-SteepDescent/Only-C1/SD-CG/Try1-3A/FIRE-CG
REM
REM
REM
REM
REM
REM ./C.cell (11c1c37f851c82e70ff6c80c92926a4b)
REM
REM compiler GCC version 9.2.1 20190827 (Red Hat 9.2.1-1)
REM options -cpp -mtune=generic -march=x86-64 -g -O0 -fpre-include=/usr/include/finclude/math-vector-fortran.h
REM seed -1041955051 2108402423 -1026785392 -1705021413 -1848781591 666846 1993015662 2131832669 -56051536 -1184382142 -142620484 1534381038 101319028 -1073485922 203263939 -1094526706 1325753234 1454773456 1387251361 1174114013 293949716 -701432776 1517341395 -1225624272 514515100 127721326 -1267904014 -855218256 1688367226 1669007898 1889954417 1075614132 -951163082
REM
CELL 1.54180   50.00000   50.00000   50.00000   90.00000   90.00000   90.00000
LATT -1
SFAC C  
C      1  0.4319960000000  0.5458890000000  0.4804530000000 1.0
C      1  0.5195140000000  0.5686220000000  0.4403160000000 1.0
C      1  0.4655250000000  0.4452650000000  0.4530050000000 1.0
C      1  0.4913320000000  0.5687770000000  0.4409610000000 1.0
C      1  0.5638290000000  0.4796920000000  0.5394370000000 1.0
C      1  0.4296960000000  0.5261150000000  0.4596540000000 1.0
C      1  0.5391260000000  0.4412430000000  0.4655600000000 1.0
C      1  0.5732760000000  0.5415240000000  0.5186760000000 1.0
C      1  0.5218020000000  0.4729460000000  0.4236550000000 1.0
C      1  0.5308490000000  0.4474560000000  0.5608170000000 1.0
C      1  0.4692690000000  0.5019520000000  0.5967840000000 1.0
C      1  0.4462410000000  0.4857080000000  0.4288380000000 1.0
C      1  0.5274100000000  0.5050600000000  0.5025450000000 1.0
C      1  0.4968540000000  0.5487930000000  0.5405090000000 1.0
C      1  0.5379210000000  0.4296730000000  0.5387670000000 1.0
C      1  0.5558850000000  0.4644960000000  0.4626030000000 1.0
C      1  0.4324320000000  0.4860490000000  0.5317400000000 1.0
C      1  0.5759950000000  0.5025990000000  0.5304500000000 1.0
C      1  0.4811450000000  0.5688700000000  0.5493250000000 1.0
C      1  0.4837340000000  0.5167110000000  0.4232070000000 1.0
C      1  0.4734430000000  0.5309740000000  0.4473220000000 1.0
C      1  0.5116980000000  0.4471520000000  0.4558390000000 1.0
C      1  0.5204850000000  0.5710350000000  0.4707510000000 1.0
C      1  0.4342840000000  0.5323130000000  0.5067560000000 1.0
C      1  0.4938610000000  0.4075520000000  0.5374330000000 1.0
C      1  0.5546120000000  0.5562140000000  0.5301840000000 1.0
C      1  0.5352700000000  0.4288720000000  0.4918250000000 1.0
C      1  0.4865910000000  0.5230800000000  0.5862330000000 1.0
C      1  0.4330750000000  0.4934930000000  0.4869180000000 1.0
C      1  0.5219910000000  0.5514420000000  0.5540970000000 1.0
C      1  0.4815230000000  0.5838670000000  0.5242470000000 1.0
C      1  0.4818210000000  0.4211430000000  0.4999050000000 1.0
C      1  0.4425150000000  0.4604700000000  0.5232690000000 1.0
C      1  0.4342470000000  0.5057640000000  0.4440030000000 1.0
C      1  0.5378280000000  0.5817590000000  0.5194710000000 1.0
C      1  0.4417740000000  0.4497170000000  0.4957800000000 1.0
C      1  0.4629570000000  0.4345160000000  0.4832040000000 1.0
C      1  0.5101020000000  0.5863750000000  0.5254320000000 1.0
C      1  0.5369580000000  0.5288180000000  0.4884670000000 1.0
C      1  0.5120950000000  0.4139760000000  0.5011250000000 1.0
C      1  0.4832040000000  0.4849210000000  0.4986280000000 1.0
C      1  0.5676110000000  0.4779350000000  0.4854650000000 1.0
C      1  0.4739150000000  0.4901010000000  0.4185920000000 1.0
C      1  0.5206360000000  0.4073840000000  0.5288260000000 1.0
C      1  0.4946990000000  0.4676250000000  0.4175250000000 1.0
C      1  0.4684130000000  0.4531480000000  0.5377700000000 1.0
C      1  0.5035310000000  0.4735480000000  0.4649060000000 1.0
C      1  0.5054910000000  0.4609380000000  0.5730850000000 1.0
C      1  0.5549770000000  0.5293140000000  0.4408640000000 1.0
C      1  0.5330260000000  0.5829140000000  0.4920410000000 1.0
C      1  0.5447230000000  0.4725830000000  0.5634760000000 1.0
C      1  0.4987940000000  0.5234970000000  0.4624180000000 1.0
C      1  0.4738780000000  0.5406070000000  0.5615180000000 1.0
C      1  0.5485080000000  0.5045100000000  0.4287090000000 1.0
C      1  0.4628900000000  0.5272730000000  0.5053190000000 1.0
C      1  0.4878950000000  0.4744890000000  0.5247730000000 1.0
C      1  0.4536850000000  0.5655510000000  0.4772130000000 1.0
C      1  0.5052730000000  0.4964850000000  0.4830660000000 1.0
C      1  0.5768480000000  0.5057150000000  0.4835250000000 1.0
C      1  0.4661170000000  0.5599690000000  0.4502930000000 1.0
C      1  0.4230750000000  0.5056470000000  0.5113110000000 1.0
C      1  0.4397540000000  0.4638910000000  0.4476810000000 1.0
C      1  0.4729430000000  0.4229570000000  0.5281410000000 1.0
C      1  0.5479010000000  0.4765170000000  0.4349270000000 1.0
C      1  0.5145620000000  0.5130740000000  0.5851910000000 1.0
C      1  0.4771190000000  0.4605260000000  0.5670490000000 1.0
C      1  0.4872960000000  0.5448170000000  0.5071480000000 1.0
C      1  0.4951550000000  0.4992550000000  0.5384130000000 1.0
C      1  0.5304880000000  0.5425410000000  0.4305130000000 1.0
C      1  0.4591980000000  0.4809630000000  0.5770060000000 1.0
C      1  0.4606510000000  0.5018130000000  0.4929720000000 1.0
C      1  0.4722690000000  0.5687660000000  0.4994680000000 1.0
C      1  0.5109370000000  0.5432070000000  0.4827130000000 1.0
C      1  0.5634580000000  0.4660140000000  0.5128590000000 1.0
C      1  0.5204810000000  0.5103250000000  0.5293600000000 1.0
C      1  0.5116460000000  0.5200620000000  0.4338990000000 1.0
C      1  0.5393300000000  0.5308660000000  0.5451050000000 1.0
C      1  0.5868900000000  0.5181020000000  0.5094320000000 1.0
C      1  0.4704470000000  0.5143890000000  0.5478520000000 1.0
C      1  0.5317670000000  0.5329230000000  0.5739500000000 1.0
C      1  0.5220620000000  0.4851290000000  0.5778590000000 1.0
C      1  0.4924530000000  0.4432300000000  0.4343260000000 1.0
C      1  0.5500940000000  0.4403570000000  0.5146860000000 1.0
C      1  0.5596450000000  0.5254520000000  0.4706880000000 1.0
C      1  0.4777870000000  0.4705790000000  0.4603520000000 1.0
C      1  0.4478850000000  0.4968900000000  0.5546110000000 1.0
C      1  0.4296350000000  0.4672250000000  0.4749100000000 1.0
END
