TITL C-4164246-3563-501 2.78791841443631 125000 -28967.1762540429 0 0 191 (C1) n - 1
REM
REM in /home/nfs/bkarasulu/CARBON/AIRSS/Generating-Clusters/ReaxFF-fromJPCA2015/Units_Real/with-SteepDescent/Only-C1/SD-CG/Try1-3A/FIRE-CG
REM
REM
REM
REM
REM
REM ./C.cell (11c1c37f851c82e70ff6c80c92926a4b)
REM
REM compiler GCC version 9.2.1 20190827 (Red Hat 9.2.1-1)
REM options -cpp -mtune=generic -march=x86-64 -g -O0 -fpre-include=/usr/include/finclude/math-vector-fortran.h
REM seed 356358686 1733438771 583760587 -1421003022 1831084409 -99291355 47315444 1236848322 -1642829425 1184637543 1663126338 858888014 1077483285 1954368511 -909189620 595837033 725174110 -1163670221 -1186505972 -1685266035 -1787315137 518267258 935148662 1435158365 319419388 -1572976070 599488466 -284101194 -1552586638 -651643610 1264267275 -1667869147 -967462862
REM
CELL 1.54180   50.00000   50.00000   50.00000   90.00000   90.00000   90.00000
LATT -1
SFAC C  
C      1  0.4931940000000  0.5840160000000  0.4392720000000 1.0
C      1  0.5217200000000  0.5459530000000  0.5415640000000 1.0
C      1  0.4954290000000  0.4487770000000  0.4568650000000 1.0
C      1  0.5321720000000  0.4885940000000  0.6045460000000 1.0
C      1  0.5223860000000  0.4862460000000  0.3907510000000 1.0
C      1  0.4365410000000  0.4104140000000  0.5048260000000 1.0
C      1  0.5237820000000  0.4130920000000  0.4266430000000 1.0
C      1  0.5931870000000  0.5650430000000  0.5362950000000 1.0
C      1  0.6116860000000  0.5014560000000  0.4319930000000 1.0
C      1  0.4421880000000  0.4484420000000  0.6080260000000 1.0
C      1  0.4400220000000  0.4787290000000  0.4305340000000 1.0
C      1  0.5129100000000  0.4043450000000  0.4823090000000 1.0
C      1  0.4973120000000  0.4109250000000  0.5500060000000 1.0
C      1  0.4657640000000  0.5270390000000  0.5366600000000 1.0
C      1  0.6064310000000  0.5516490000000  0.5113220000000 1.0
C      1  0.4422130000000  0.5763270000000  0.5087860000000 1.0
C      1  0.4528960000000  0.4113540000000  0.4603580000000 1.0
C      1  0.4998250000000  0.5639660000000  0.4597740000000 1.0
C      1  0.4205760000000  0.4291020000000  0.5229900000000 1.0
C      1  0.5055070000000  0.6168780000000  0.5492910000000 1.0
C      1  0.5438780000000  0.6163370000000  0.4738350000000 1.0
C      1  0.5313770000000  0.4523850000000  0.4861080000000 1.0
C      1  0.3975540000000  0.4441720000000  0.5119630000000 1.0
C      1  0.6026010000000  0.4656960000000  0.5537950000000 1.0
C      1  0.4626980000000  0.5819570000000  0.4384260000000 1.0
C      1  0.5863570000000  0.5164320000000  0.5415050000000 1.0
C      1  0.4666820000000  0.4990420000000  0.4920630000000 1.0
C      1  0.5602290000000  0.5007350000000  0.4558410000000 1.0
C      1  0.4641400000000  0.5508490000000  0.4949510000000 1.0
C      1  0.4523690000000  0.4519030000000  0.4387380000000 1.0
C      1  0.4759760000000  0.4311660000000  0.5548590000000 1.0
C      1  0.5451510000000  0.4553440000000  0.4348930000000 1.0
C      1  0.5724280000000  0.4796410000000  0.4726180000000 1.0
C      1  0.5448350000000  0.5749760000000  0.5673330000000 1.0
C      1  0.5601800000000  0.4813420000000  0.4323380000000 1.0
C      1  0.5587690000000  0.4713840000000  0.5749980000000 1.0
C      1  0.5103990000000  0.3808550000000  0.5243090000000 1.0
C      1  0.4970830000000  0.4018170000000  0.4367830000000 1.0
C      1  0.3962080000000  0.4746830000000  0.4446400000000 1.0
C      1  0.4534170000000  0.4771110000000  0.5070090000000 1.0
C      1  0.5489380000000  0.5779880000000  0.4619920000000 1.0
C      1  0.5845120000000  0.4182240000000  0.4835120000000 1.0
C      1  0.4383040000000  0.5220010000000  0.4002150000000 1.0
C      1  0.5352920000000  0.4622680000000  0.5930910000000 1.0
C      1  0.4036350000000  0.4878310000000  0.5557780000000 1.0
C      1  0.4957590000000  0.4385510000000  0.6020990000000 1.0
C      1  0.5815550000000  0.5430600000000  0.4402150000000 1.0
C      1  0.4786220000000  0.5503280000000  0.4707510000000 1.0
C      1  0.5750980000000  0.4270740000000  0.5563760000000 1.0
C      1  0.4237160000000  0.5549360000000  0.4245070000000 1.0
C      1  0.5471760000000  0.4200690000000  0.5462610000000 1.0
C      1  0.4802890000000  0.4388930000000  0.5015310000000 1.0
C      1  0.4955100000000  0.4291050000000  0.4777830000000 1.0
C      1  0.4572050000000  0.4847110000000  0.5352940000000 1.0
C      1  0.5603970000000  0.4087040000000  0.4680700000000 1.0
C      1  0.5098810000000  0.5083660000000  0.6130660000000 1.0
C      1  0.5084770000000  0.5219250000000  0.4386920000000 1.0
C      1  0.6313540000000  0.5476850000000  0.5086260000000 1.0
C      1  0.6025030000000  0.4592400000000  0.5031040000000 1.0
C      1  0.5189670000000  0.5784150000000  0.5806810000000 1.0
C      1  0.5636590000000  0.5668360000000  0.4392990000000 1.0
C      1  0.5467910000000  0.4136720000000  0.4431450000000 1.0
C      1  0.5293220000000  0.5966070000000  0.5207750000000 1.0
C      1  0.4031780000000  0.4260960000000  0.4678300000000 1.0
C      1  0.4856250000000  0.4537750000000  0.3981520000000 1.0
C      1  0.4951750000000  0.4729800000000  0.4433830000000 1.0
C      1  0.4746580000000  0.6081650000000  0.4769490000000 1.0
C      1  0.4676230000000  0.5369010000000  0.5869760000000 1.0
C      1  0.5379410000000  0.5544390000000  0.5183680000000 1.0
C      1  0.4531910000000  0.4415350000000  0.4654030000000 1.0
C      1  0.5492570000000  0.4742570000000  0.5476720000000 1.0
C      1  0.5054880000000  0.6154930000000  0.5203410000000 1.0
C      1  0.4604320000000  0.5777890000000  0.5902250000000 1.0
C      1  0.5758670000000  0.5880770000000  0.5311950000000 1.0
C      1  0.4145290000000  0.5632100000000  0.4488460000000 1.0
C      1  0.5382280000000  0.4510150000000  0.4622130000000 1.0
C      1  0.5910690000000  0.4633910000000  0.4585100000000 1.0
C      1  0.4701910000000  0.3934720000000  0.4780860000000 1.0
C      1  0.5303870000000  0.4392690000000  0.4141160000000 1.0
C      1  0.5835410000000  0.5442510000000  0.5538640000000 1.0
C      1  0.4763790000000  0.5272430000000  0.5088900000000 1.0
C      1  0.4344520000000  0.4982260000000  0.5920150000000 1.0
C      1  0.5081860000000  0.5618060000000  0.6027280000000 1.0
C      1  0.4815970000000  0.5172780000000  0.4297390000000 1.0
C      1  0.5409170000000  0.4514960000000  0.5330230000000 1.0
C      1  0.4647170000000  0.5935080000000  0.5519770000000 1.0
C      1  0.5109120000000  0.5348860000000  0.6078730000000 1.0
C      1  0.5643010000000  0.5553360000000  0.5037300000000 1.0
C      1  0.3945450000000  0.4972870000000  0.5298130000000 1.0
C      1  0.5204430000000  0.6169470000000  0.4660470000000 1.0
C      1  0.5234640000000  0.4540430000000  0.5099480000000 1.0
C      1  0.4808460000000  0.4990460000000  0.6161240000000 1.0
C      1  0.4793170000000  0.6092310000000  0.5058970000000 1.0
C      1  0.5822850000000  0.4516400000000  0.5690610000000 1.0
C      1  0.4854270000000  0.4837640000000  0.5503220000000 1.0
C      1  0.4004980000000  0.4692380000000  0.4942190000000 1.0
C      1  0.5830980000000  0.5343620000000  0.4941970000000 1.0
C      1  0.4972540000000  0.4623540000000  0.5068860000000 1.0
C      1  0.3984720000000  0.4560400000000  0.4675560000000 1.0
C      1  0.5607420000000  0.4696690000000  0.5234210000000 1.0
C      1  0.4264860000000  0.4098020000000  0.4775310000000 1.0
C      1  0.4473280000000  0.4227890000000  0.5623510000000 1.0
C      1  0.5369700000000  0.3723820000000  0.5241060000000 1.0
C      1  0.4968500000000  0.5884450000000  0.5614980000000 1.0
C      1  0.4831570000000  0.4576230000000  0.5530950000000 1.0
C      1  0.4435880000000  0.5832290000000  0.5683670000000 1.0
C      1  0.4143600000000  0.5104040000000  0.5736790000000 1.0
C      1  0.4957350000000  0.6107450000000  0.4569810000000 1.0
C      1  0.5729580000000  0.5357360000000  0.4124100000000 1.0
C      1  0.4645860000000  0.3999790000000  0.5058590000000 1.0
C      1  0.4417630000000  0.5127650000000  0.4726970000000 1.0
C      1  0.4899660000000  0.5314780000000  0.3902600000000 1.0
C      1  0.4525600000000  0.5401010000000  0.4707860000000 1.0
C      1  0.5192430000000  0.4375950000000  0.5871340000000 1.0
C      1  0.3995900000000  0.5027730000000  0.4518670000000 1.0
C      1  0.5279660000000  0.5116610000000  0.4602500000000 1.0
C      1  0.5748520000000  0.5829850000000  0.5022090000000 1.0
C      1  0.5199320000000  0.5058780000000  0.5198990000000 1.0
C      1  0.4188650000000  0.5135350000000  0.5185760000000 1.0
C      1  0.4552410000000  0.4513100000000  0.4928810000000 1.0
C      1  0.4522890000000  0.5621430000000  0.4213210000000 1.0
C      1  0.5041160000000  0.5571660000000  0.3894790000000 1.0
C      1  0.4872280000000  0.3944490000000  0.5271670000000 1.0
C      1  0.4062470000000  0.5677720000000  0.4742150000000 1.0
C      1  0.5607880000000  0.5498840000000  0.5707820000000 1.0
C      1  0.4790830000000  0.4717930000000  0.6195450000000 1.0
C      1  0.5060240000000  0.5779190000000  0.4095010000000 1.0
C      1  0.5543620000000  0.5586290000000  0.4121790000000 1.0
C      1  0.5790330000000  0.4793020000000  0.5028000000000 1.0
C      1  0.5093770000000  0.4876840000000  0.4648460000000 1.0
C      1  0.5117310000000  0.4981340000000  0.5470830000000 1.0
C      1  0.4685250000000  0.4381150000000  0.4175900000000 1.0
C      1  0.4772210000000  0.5598450000000  0.6041660000000 1.0
C      1  0.5545200000000  0.4995080000000  0.5906050000000 1.0
C      1  0.4972380000000  0.5599560000000  0.5492210000000 1.0
C      1  0.4430390000000  0.5093780000000  0.5373190000000 1.0
C      1  0.6140420000000  0.5139680000000  0.4571260000000 1.0
C      1  0.5242470000000  0.5217680000000  0.5586060000000 1.0
C      1  0.5838850000000  0.5240720000000  0.4625790000000 1.0
C      1  0.5930760000000  0.4231650000000  0.5333480000000 1.0
C      1  0.5411050000000  0.4037390000000  0.4899040000000 1.0
C      1  0.4460970000000  0.4296620000000  0.5892750000000 1.0
C      1  0.4606570000000  0.5963840000000  0.5235410000000 1.0
C      1  0.5963780000000  0.4910050000000  0.4114480000000 1.0
C      1  0.4794990000000  0.4824720000000  0.3957560000000 1.0
C      1  0.4923570000000  0.4847450000000  0.4886100000000 1.0
C      1  0.5523000000000  0.4010730000000  0.5178420000000 1.0
C      1  0.5734260000000  0.5115240000000  0.5123000000000 1.0
C      1  0.4980730000000  0.5033100000000  0.3865640000000 1.0
C      1  0.5492560000000  0.5909810000000  0.5428570000000 1.0
C      1  0.5960630000000  0.4933080000000  0.5501780000000 1.0
C      1  0.5734910000000  0.5084430000000  0.4006900000000 1.0
C      1  0.5247710000000  0.5633910000000  0.4753280000000 1.0
C      1  0.4259620000000  0.4387960000000  0.5498750000000 1.0
C      1  0.4204240000000  0.5041760000000  0.4906880000000 1.0
C      1  0.5045370000000  0.5240340000000  0.5048960000000 1.0
C      1  0.4064340000000  0.5434270000000  0.5142320000000 1.0
C      1  0.5805690000000  0.4090440000000  0.5108050000000 1.0
C      1  0.5993390000000  0.4432580000000  0.4788930000000 1.0
C      1  0.4206210000000  0.5650870000000  0.5268890000000 1.0
C      1  0.4524140000000  0.5934210000000  0.4641170000000 1.0
C      1  0.4591860000000  0.5115240000000  0.5991550000000 1.0
C      1  0.5269390000000  0.5294080000000  0.4870410000000 1.0
C      1  0.4300600000000  0.4691960000000  0.5902480000000 1.0
C      1  0.5223210000000  0.5739560000000  0.5039270000000 1.0
C      1  0.5307160000000  0.5695070000000  0.3982900000000 1.0
C      1  0.4131270000000  0.4693040000000  0.4202770000000 1.0
C      1  0.4763350000000  0.5412980000000  0.5585380000000 1.0
C      1  0.4960050000000  0.3893040000000  0.4638420000000 1.0
C      1  0.5227100000000  0.4192190000000  0.5621840000000 1.0
C      1  0.4201780000000  0.5233440000000  0.4224120000000 1.0
C      1  0.4719720000000  0.4142930000000  0.4324750000000 1.0
C      1  0.3966730000000  0.5430720000000  0.4884070000000 1.0
C      1  0.3948100000000  0.5122640000000  0.4800750000000 1.0
C      1  0.3915010000000  0.4237390000000  0.4934230000000 1.0
C      1  0.4314710000000  0.5835280000000  0.4816430000000 1.0
C      1  0.5442600000000  0.5144560000000  0.5068360000000 1.0
C      1  0.5872480000000  0.4691270000000  0.4289980000000 1.0
C      1  0.4168870000000  0.4633600000000  0.5643450000000 1.0
C      1  0.4741860000000  0.4884390000000  0.4251430000000 1.0
C      1  0.5641020000000  0.5975380000000  0.4783790000000 1.0
C      1  0.4724020000000  0.4445680000000  0.6183140000000 1.0
C      1  0.4277460000000  0.5046030000000  0.4463710000000 1.0
C      1  0.3841710000000  0.4916360000000  0.5036200000000 1.0
C      1  0.4184670000000  0.5368210000000  0.5654700000000 1.0
C      1  0.6072740000000  0.4484350000000  0.5291950000000 1.0
C      1  0.5481490000000  0.4968010000000  0.3956240000000 1.0
C      1  0.4657150000000  0.5366150000000  0.4085380000000 1.0
C      1  0.4229350000000  0.5623070000000  0.5558820000000 1.0
C      1  0.5471890000000  0.5241390000000  0.5769770000000 1.0
C      1  0.5141630000000  0.4568740000000  0.3974940000000 1.0
END
