TITL C-4164239-2837-696 0.518484078551023 125000 -7036.54595565087 0 0 49 (C1) n - 1
REM
REM in /home/nfs/bkarasulu/CARBON/AIRSS/Generating-Clusters/ReaxFF-fromJPCA2015/Units_Real/with-SteepDescent/Only-C1/SD-CG/Try1-3A/FIRE-CG
REM
REM
REM
REM
REM
REM ./C.cell (11c1c37f851c82e70ff6c80c92926a4b)
REM
REM compiler GCC version 9.2.1 20190827 (Red Hat 9.2.1-1)
REM options -cpp -mtune=generic -march=x86-64 -g -O0 -fpre-include=/usr/include/finclude/math-vector-fortran.h
REM seed 2019597609 896255671 -1424486389 -1960894469 -417250181 -1764887082 -868886233 1387471142 -1170237328 -1470378911 1100006610 -249106836 -1957524880 99066051 -1005088327 792904387 -703912451 1746981483 -24358814 -1148821966 137599943 -1614279436 -508048530 -377496206 1273167125 1738284405 -452868145 -672668024 -818434679 315891013 -1987457550 783817859 1631362114
REM
CELL 1.54180   50.00000   50.00000   50.00000   90.00000   90.00000   90.00000
LATT -1
SFAC C  
C      1  0.4982000000000  0.5911700000000  0.5068300000000 1.0
C      1  0.4448400000000  0.4626030000000  0.5225590000000 1.0
C      1  0.5069550000000  0.4425530000000  0.5503560000000 1.0
C      1  0.5381430000000  0.4594910000000  0.4790330000000 1.0
C      1  0.4676530000000  0.4576010000000  0.5031190000000 1.0
C      1  0.5130930000000  0.5261960000000  0.4573400000000 1.0
C      1  0.5101510000000  0.5050010000000  0.5534810000000 1.0
C      1  0.4917150000000  0.5638750000000  0.4702880000000 1.0
C      1  0.5171110000000  0.4837910000000  0.5369300000000 1.0
C      1  0.4295230000000  0.4807270000000  0.5044510000000 1.0
C      1  0.4816430000000  0.4518550000000  0.5520420000000 1.0
C      1  0.4452500000000  0.4590090000000  0.4577310000000 1.0
C      1  0.4563340000000  0.4915670000000  0.5510770000000 1.0
C      1  0.4453070000000  0.5053400000000  0.4965740000000 1.0
C      1  0.5014680000000  0.5509000000000  0.5310360000000 1.0
C      1  0.4654200000000  0.5185960000000  0.4530500000000 1.0
C      1  0.4949550000000  0.4559270000000  0.4685440000000 1.0
C      1  0.4775870000000  0.5765010000000  0.4925270000000 1.0
C      1  0.5153590000000  0.4783160000000  0.4745650000000 1.0
C      1  0.5269730000000  0.5555010000000  0.5174610000000 1.0
C      1  0.4934190000000  0.4429700000000  0.4939990000000 1.0
C      1  0.5307100000000  0.4469940000000  0.5284740000000 1.0
C      1  0.5638460000000  0.5158670000000  0.4718710000000 1.0
C      1  0.4808830000000  0.4942870000000  0.4455720000000 1.0
C      1  0.5237080000000  0.5787250000000  0.4991520000000 1.0
C      1  0.5208820000000  0.5648280000000  0.4736570000000 1.0
C      1  0.4254860000000  0.4656860000000  0.4796590000000 1.0
C      1  0.4554590000000  0.4638420000000  0.5501740000000 1.0
C      1  0.5369120000000  0.5386560000000  0.4722660000000 1.0
C      1  0.5084110000000  0.4983720000000  0.4527400000000 1.0
C      1  0.5220950000000  0.4446180000000  0.4995090000000 1.0
C      1  0.5414440000000  0.5360290000000  0.5018880000000 1.0
C      1  0.4610690000000  0.5184150000000  0.5513380000000 1.0
C      1  0.5682240000000  0.4938020000000  0.4530590000000 1.0
C      1  0.4728020000000  0.4673170000000  0.4521610000000 1.0
C      1  0.5561270000000  0.4619150000000  0.5328990000000 1.0
C      1  0.5587050000000  0.4914840000000  0.5345670000000 1.0
C      1  0.5632450000000  0.4737810000000  0.4770500000000 1.0
C      1  0.5164450000000  0.4917660000000  0.5079790000000 1.0
C      1  0.4862590000000  0.5382240000000  0.4572750000000 1.0
C      1  0.5369200000000  0.4954250000000  0.5535910000000 1.0
C      1  0.4462630000000  0.4459560000000  0.4835420000000 1.0
C      1  0.4828500000000  0.5706160000000  0.5213750000000 1.0
C      1  0.4706130000000  0.4913770000000  0.5004040000000 1.0
C      1  0.4921470000000  0.5070260000000  0.5105180000000 1.0
C      1  0.4536530000000  0.5180360000000  0.4730140000000 1.0
C      1  0.4916560000000  0.5227830000000  0.5377310000000 1.0
C      1  0.5451380000000  0.5073940000000  0.5110020000000 1.0
C      1  0.5669490000000  0.4972880000000  0.4945390000000 1.0
END
