TITL C-4164234-2335-735 19.7779811191207 125000 -14240.2193354969 0 0 97 (C1) n - 1
REM
REM in /home/nfs/bkarasulu/CARBON/AIRSS/Generating-Clusters/ReaxFF-fromJPCA2015/Units_Real/with-SteepDescent/Only-C1/SD-CG/Try1-3A/FIRE-CG
REM
REM
REM
REM
REM
REM ./C.cell (11c1c37f851c82e70ff6c80c92926a4b)
REM
REM compiler GCC version 9.2.1 20190827 (Red Hat 9.2.1-1)
REM options -cpp -mtune=generic -march=x86-64 -g -O0 -fpre-include=/usr/include/finclude/math-vector-fortran.h
REM seed 2076997310 387838193 -55168162 -1342095760 483065449 -186274636 -1408049434 -394032597 1503550962 -1098882279 -833262265 -1951332835 -2015371909 472698245 -484614747 1742194101 242078661 592122617 149611433 918749475 1598299611 60254496 105668651 1384825217 -917290820 -242026474 -2017499813 734571421 873115148 1228893397 57978115 586283581 1804099318
REM
CELL 1.54180   50.00000   50.00000   50.00000   90.00000   90.00000   90.00000
LATT -1
SFAC C  
C      1  0.5654790000000  0.4420690000000  0.5085050000000 1.0
C      1  0.5246190000000  0.4718990000000  0.4118610000000 1.0
C      1  0.5231180000000  0.5458460000000  0.4655120000000 1.0
C      1  0.5395530000000  0.5184990000000  0.4075840000000 1.0
C      1  0.5162030000000  0.4291540000000  0.5038690000000 1.0
C      1  0.5536820000000  0.5876360000000  0.4461600000000 1.0
C      1  0.5263790000000  0.5729320000000  0.4589210000000 1.0
C      1  0.5242410000000  0.5013500000000  0.5344660000000 1.0
C      1  0.5262500000000  0.4522350000000  0.5599640000000 1.0
C      1  0.5186480000000  0.4858450000000  0.4621260000000 1.0
C      1  0.4469410000000  0.4685230000000  0.5705610000000 1.0
C      1  0.5902540000000  0.5134320000000  0.4924660000000 1.0
C      1  0.5559350000000  0.5498060000000  0.5079240000000 1.0
C      1  0.4849380000000  0.5599960000000  0.4999180000000 1.0
C      1  0.4951350000000  0.4743290000000  0.5016250000000 1.0
C      1  0.5080040000000  0.5158530000000  0.4001460000000 1.0
C      1  0.5288700000000  0.5735690000000  0.5490370000000 1.0
C      1  0.4930780000000  0.5861640000000  0.4975870000000 1.0
C      1  0.5608930000000  0.4449070000000  0.5375070000000 1.0
C      1  0.5466780000000  0.5276570000000  0.5705710000000 1.0
C      1  0.6050130000000  0.5125670000000  0.5161710000000 1.0
C      1  0.5553380000000  0.4442740000000  0.4675410000000 1.0
C      1  0.4160470000000  0.4626090000000  0.4865970000000 1.0
C      1  0.4452160000000  0.4286590000000  0.4676200000000 1.0
C      1  0.4206160000000  0.5536960000000  0.4828580000000 1.0
C      1  0.4856780000000  0.5104910000000  0.5581860000000 1.0
C      1  0.4578010000000  0.5973240000000  0.5491940000000 1.0
C      1  0.5689130000000  0.5753270000000  0.4656760000000 1.0
C      1  0.4968340000000  0.4246110000000  0.5457610000000 1.0
C      1  0.5098680000000  0.5842700000000  0.4785380000000 1.0
C      1  0.5087540000000  0.5225970000000  0.5468030000000 1.0
C      1  0.4945280000000  0.5007820000000  0.4617110000000 1.0
C      1  0.5018820000000  0.5257510000000  0.5923600000000 1.0
C      1  0.4944550000000  0.4851180000000  0.5754680000000 1.0
C      1  0.4745230000000  0.4386670000000  0.5542360000000 1.0
C      1  0.4092430000000  0.5010270000000  0.4568050000000 1.0
C      1  0.4933300000000  0.5140220000000  0.4883070000000 1.0
C      1  0.5643770000000  0.4704260000000  0.5511660000000 1.0
C      1  0.4591090000000  0.5794350000000  0.5669750000000 1.0
C      1  0.4657150000000  0.4220540000000  0.4871450000000 1.0
C      1  0.4758000000000  0.4781600000000  0.4173120000000 1.0
C      1  0.5640420000000  0.4714990000000  0.4619580000000 1.0
C      1  0.4559750000000  0.4747570000000  0.4530930000000 1.0
C      1  0.4634780000000  0.5587650000000  0.5188390000000 1.0
C      1  0.5756420000000  0.5347910000000  0.4735260000000 1.0
C      1  0.5685630000000  0.4995320000000  0.5074050000000 1.0
C      1  0.5014900000000  0.4280130000000  0.4552620000000 1.0
C      1  0.5041120000000  0.4557980000000  0.5180560000000 1.0
C      1  0.4444060000000  0.5141000000000  0.5356120000000 1.0
C      1  0.5175510000000  0.4696880000000  0.5387820000000 1.0
C      1  0.4158060000000  0.5058180000000  0.5082790000000 1.0
C      1  0.5470350000000  0.5197420000000  0.4988690000000 1.0
C      1  0.5220300000000  0.4884120000000  0.5848120000000 1.0
C      1  0.4926200000000  0.5411920000000  0.4771340000000 1.0
C      1  0.5457460000000  0.4950420000000  0.4527610000000 1.0
C      1  0.5471940000000  0.5267210000000  0.4671830000000 1.0
C      1  0.4261370000000  0.4930380000000  0.5313940000000 1.0
C      1  0.5202880000000  0.4808520000000  0.4908800000000 1.0
C      1  0.4258910000000  0.4369920000000  0.4889100000000 1.0
C      1  0.5761620000000  0.5598400000000  0.4880320000000 1.0
C      1  0.4519410000000  0.4445940000000  0.5345680000000 1.0
C      1  0.4702630000000  0.5037840000000  0.5344040000000 1.0
C      1  0.4441590000000  0.5599640000000  0.4656860000000 1.0
C      1  0.5757460000000  0.4582230000000  0.4848360000000 1.0
C      1  0.5438630000000  0.5628520000000  0.5274760000000 1.0
C      1  0.5228880000000  0.5065600000000  0.5050860000000 1.0
C      1  0.5443940000000  0.4313940000000  0.4920030000000 1.0
C      1  0.5437810000000  0.4714290000000  0.5730310000000 1.0
C      1  0.4486760000000  0.4311050000000  0.5093050000000 1.0
C      1  0.4256590000000  0.5215710000000  0.4443680000000 1.0
C      1  0.5742500000000  0.4955500000000  0.5364470000000 1.0
C      1  0.5180740000000  0.4147230000000  0.5316570000000 1.0
C      1  0.4068100000000  0.4886630000000  0.4842270000000 1.0
C      1  0.4954220000000  0.4219210000000  0.4812600000000 1.0
C      1  0.5385290000000  0.4280830000000  0.5480080000000 1.0
C      1  0.5519140000000  0.5106730000000  0.5478140000000 1.0
C      1  0.4666310000000  0.5569010000000  0.5763810000000 1.0
C      1  0.4763310000000  0.4624790000000  0.5742060000000 1.0
C      1  0.5167400000000  0.4489270000000  0.4251250000000 1.0
C      1  0.4766470000000  0.5320700000000  0.5829910000000 1.0
C      1  0.4195450000000  0.5491160000000  0.4544390000000 1.0
C      1  0.4214170000000  0.5343530000000  0.5050610000000 1.0
C      1  0.5247250000000  0.5432200000000  0.5591760000000 1.0
C      1  0.4944860000000  0.4326340000000  0.4282260000000 1.0
C      1  0.4678630000000  0.5851300000000  0.5271690000000 1.0
C      1  0.4667570000000  0.5427540000000  0.4599710000000 1.0
C      1  0.5438730000000  0.4943900000000  0.4218350000000 1.0
C      1  0.4921040000000  0.5362090000000  0.3978280000000 1.0
C      1  0.5287410000000  0.5167010000000  0.5924710000000 1.0
C      1  0.4705830000000  0.4961950000000  0.4456520000000 1.0
C      1  0.4793290000000  0.4961450000000  0.5080340000000 1.0
C      1  0.4420230000000  0.5396540000000  0.5237700000000 1.0
C      1  0.4511430000000  0.4494780000000  0.4465850000000 1.0
C      1  0.4999240000000  0.4860430000000  0.4039230000000 1.0
C      1  0.4692390000000  0.4506440000000  0.4228410000000 1.0
C      1  0.4342100000000  0.4667330000000  0.5433560000000 1.0
C      1  0.4552150000000  0.5209730000000  0.4472600000000 1.0
END
