TITL C-4164247-2821-87 -14.8045813110919 125000 -12987.2855071653 0 0 85 (C1) n - 1
REM
REM in /home/nfs/bkarasulu/CARBON/AIRSS/Generating-Clusters/ReaxFF-fromJPCA2015/Units_Real/with-SteepDescent/Only-C1/SD-CG/Try1-3A/FIRE-CG
REM
REM
REM
REM
REM
REM ./C.cell (11c1c37f851c82e70ff6c80c92926a4b)
REM
REM compiler GCC version 9.2.1 20190827 (Red Hat 9.2.1-1)
REM options -cpp -mtune=generic -march=x86-64 -g -O0 -fpre-include=/usr/include/finclude/math-vector-fortran.h
REM seed 1146326095 571022550 236202871 -2094306887 -1101347611 -1370106063 1871464071 -396122386 318887390 -895930487 817237224 1822339348 24288918 -314653918 1096355486 -834832706 -2070573641 1900627190 961068802 969247403 -724489552 -1493119898 714133886 -76819392 -970049256 -1739270255 497895549 -1565407377 151083846 1480234908 1661689279 -476503674 2087806900
REM
CELL 1.54180   50.00000   50.00000   50.00000   90.00000   90.00000   90.00000
LATT -1
SFAC C  
C      1  0.5260430000000  0.4816910000000  0.5738490000000 1.0
C      1  0.4855750000000  0.5361910000000  0.4995010000000 1.0
C      1  0.5414330000000  0.4395700000000  0.4508620000000 1.0
C      1  0.4706190000000  0.5230740000000  0.5191640000000 1.0
C      1  0.5753150000000  0.4680610000000  0.4958110000000 1.0
C      1  0.4659190000000  0.5615690000000  0.4919430000000 1.0
C      1  0.4784040000000  0.4808190000000  0.4941910000000 1.0
C      1  0.4077350000000  0.4870370000000  0.5137710000000 1.0
C      1  0.5607560000000  0.5070680000000  0.4375870000000 1.0
C      1  0.4516490000000  0.4699840000000  0.5354440000000 1.0
C      1  0.4997910000000  0.4758160000000  0.5622230000000 1.0
C      1  0.5478530000000  0.4721500000000  0.5568710000000 1.0
C      1  0.5362660000000  0.5215590000000  0.4445410000000 1.0
C      1  0.4806530000000  0.5720950000000  0.4495170000000 1.0
C      1  0.4560070000000  0.5426590000000  0.5380340000000 1.0
C      1  0.5804540000000  0.5167690000000  0.5082840000000 1.0
C      1  0.4202830000000  0.5094640000000  0.4691470000000 1.0
C      1  0.5384910000000  0.5299630000000  0.5671950000000 1.0
C      1  0.5604080000000  0.4611720000000  0.4457960000000 1.0
C      1  0.4486060000000  0.4294890000000  0.4842420000000 1.0
C      1  0.5648660000000  0.4921280000000  0.5439290000000 1.0
C      1  0.5474600000000  0.5653770000000  0.5180310000000 1.0
C      1  0.5828290000000  0.5006480000000  0.4569300000000 1.0
C      1  0.5777840000000  0.4728390000000  0.4670920000000 1.0
C      1  0.5421650000000  0.4481300000000  0.5402380000000 1.0
C      1  0.5124780000000  0.4432720000000  0.4382520000000 1.0
C      1  0.4332820000000  0.4536710000000  0.4876260000000 1.0
C      1  0.4668650000000  0.4432600000000  0.5364550000000 1.0
C      1  0.4935020000000  0.4556730000000  0.4960500000000 1.0
C      1  0.5373520000000  0.5766170000000  0.4928460000000 1.0
C      1  0.4575550000000  0.5509120000000  0.4456790000000 1.0
C      1  0.3998750000000  0.5039480000000  0.4899970000000 1.0
C      1  0.5232880000000  0.5541330000000  0.5612020000000 1.0
C      1  0.5213500000000  0.4865100000000  0.4207340000000 1.0
C      1  0.4547200000000  0.4811680000000  0.5648020000000 1.0
C      1  0.4754100000000  0.4635560000000  0.5748320000000 1.0
C      1  0.4856150000000  0.5799240000000  0.4773070000000 1.0
C      1  0.4975310000000  0.4300010000000  0.5616040000000 1.0
C      1  0.4692110000000  0.4939140000000  0.4717220000000 1.0
C      1  0.5150170000000  0.4341720000000  0.5403260000000 1.0
C      1  0.5134820000000  0.5322650000000  0.4912040000000 1.0
C      1  0.5011240000000  0.4690310000000  0.4308220000000 1.0
C      1  0.4929950000000  0.5207870000000  0.5786530000000 1.0
C      1  0.4640460000000  0.5082690000000  0.5734140000000 1.0
C      1  0.5279950000000  0.5278260000000  0.5163910000000 1.0
C      1  0.5081260000000  0.5856970000000  0.4947790000000 1.0
C      1  0.5263570000000  0.5715230000000  0.5379030000000 1.0
C      1  0.5571380000000  0.4453370000000  0.5019210000000 1.0
C      1  0.4768750000000  0.5799620000000  0.5352790000000 1.0
C      1  0.4701220000000  0.4357630000000  0.5647960000000 1.0
C      1  0.5167000000000  0.4586470000000  0.4782890000000 1.0
C      1  0.5230230000000  0.5136530000000  0.4700240000000 1.0
C      1  0.4894300000000  0.4320440000000  0.4482710000000 1.0
C      1  0.5387480000000  0.4589830000000  0.5164280000000 1.0
C      1  0.4484440000000  0.5151870000000  0.4774250000000 1.0
C      1  0.5781070000000  0.4887910000000  0.5169080000000 1.0
C      1  0.4291560000000  0.4916750000000  0.4475110000000 1.0
C      1  0.5833070000000  0.5126400000000  0.4818050000000 1.0
C      1  0.4959620000000  0.5482190000000  0.5707470000000 1.0
C      1  0.4493370000000  0.5439080000000  0.4722350000000 1.0
C      1  0.4537780000000  0.4539930000000  0.4443180000000 1.0
C      1  0.5502410000000  0.4820130000000  0.4278180000000 1.0
C      1  0.4933430000000  0.5320150000000  0.4189840000000 1.0
C      1  0.4652470000000  0.5271740000000  0.4295400000000 1.0
C      1  0.4423840000000  0.5210730000000  0.5606330000000 1.0
C      1  0.5206670000000  0.5019420000000  0.5272180000000 1.0
C      1  0.4737650000000  0.4930690000000  0.5228770000000 1.0
C      1  0.5384370000000  0.4386300000000  0.4794220000000 1.0
C      1  0.4539180000000  0.5002440000000  0.4326660000000 1.0
C      1  0.5197400000000  0.5101170000000  0.5792480000000 1.0
C      1  0.4734930000000  0.5607470000000  0.5567010000000 1.0
C      1  0.4977940000000  0.4912910000000  0.5388860000000 1.0
C      1  0.4951550000000  0.5569660000000  0.4311310000000 1.0
C      1  0.4917900000000  0.4407650000000  0.5215150000000 1.0
C      1  0.4296060000000  0.4676060000000  0.5145610000000 1.0
C      1  0.4555700000000  0.5672220000000  0.5202810000000 1.0
C      1  0.5180700000000  0.5156900000000  0.4223610000000 1.0
C      1  0.5590130000000  0.5203410000000  0.5491030000000 1.0
C      1  0.4315060000000  0.4646670000000  0.4588550000000 1.0
C      1  0.4727180000000  0.4788980000000  0.4425970000000 1.0
C      1  0.5271710000000  0.4871100000000  0.4810430000000 1.0
C      1  0.5316190000000  0.4846080000000  0.5091240000000 1.0
C      1  0.4628160000000  0.4287510000000  0.4562380000000 1.0
C      1  0.5573400000000  0.5349470000000  0.5224820000000 1.0
C      1  0.5039300000000  0.5838610000000  0.5239660000000 1.0
END
