TITL C-4164237-1827-249 10.5242762165068 125000 -9860.00493495251 0 0 66 (C1) n - 1
REM
REM in /home/nfs/bkarasulu/CARBON/AIRSS/Generating-Clusters/ReaxFF-fromJPCA2015/Units_Real/with-SteepDescent/Only-C1/SD-CG/Try1-3A/FIRE-CG
REM
REM
REM
REM
REM
REM ./C.cell (11c1c37f851c82e70ff6c80c92926a4b)
REM
REM compiler GCC version 9.2.1 20190827 (Red Hat 9.2.1-1)
REM options -cpp -mtune=generic -march=x86-64 -g -O0 -fpre-include=/usr/include/finclude/math-vector-fortran.h
REM seed 1462833546 -59817228 -1704306245 -1505767057 -1704260167 1809909329 954903775 880829897 1566072134 -12311564 1987965652 -360711682 -439509384 663457961 -1319090295 419162818 -1538694695 732329363 -365153456 -1325746145 -1938927193 1089348805 -1363739003 1950791692 1828710662 -766732968 -1443606363 -1845845602 678411866 1630265670 -1879988772 -1764917664 -1769706783
REM
CELL 1.54180   50.00000   50.00000   50.00000   90.00000   90.00000   90.00000
LATT -1
SFAC C  
C      1  0.5315210000000  0.5577270000000  0.5199060000000 1.0
C      1  0.5379050000000  0.4565580000000  0.5287690000000 1.0
C      1  0.5708460000000  0.4821040000000  0.5605550000000 1.0
C      1  0.4560050000000  0.5515510000000  0.5540490000000 1.0
C      1  0.4286490000000  0.4821870000000  0.4787420000000 1.0
C      1  0.4585300000000  0.5030010000000  0.5584920000000 1.0
C      1  0.4711700000000  0.5706850000000  0.5355970000000 1.0
C      1  0.5315040000000  0.4567720000000  0.4524000000000 1.0
C      1  0.5546990000000  0.5059070000000  0.5672570000000 1.0
C      1  0.4841450000000  0.4530320000000  0.4570220000000 1.0
C      1  0.4793780000000  0.5374880000000  0.4287190000000 1.0
C      1  0.5066510000000  0.4827640000000  0.5625820000000 1.0
C      1  0.4896810000000  0.4264190000000  0.4682430000000 1.0
C      1  0.5065800000000  0.4628970000000  0.4383560000000 1.0
C      1  0.4401820000000  0.5235440000000  0.5156990000000 1.0
C      1  0.5733940000000  0.5083920000000  0.5210400000000 1.0
C      1  0.4410140000000  0.4597650000000  0.5360310000000 1.0
C      1  0.4323130000000  0.4833550000000  0.5239930000000 1.0
C      1  0.5591830000000  0.4771930000000  0.4853320000000 1.0
C      1  0.5044900000000  0.4895960000000  0.4264170000000 1.0
C      1  0.4805350000000  0.5071800000000  0.4249220000000 1.0
C      1  0.4750350000000  0.4343000000000  0.5156300000000 1.0
C      1  0.4521020000000  0.5329060000000  0.4439840000000 1.0
C      1  0.5632430000000  0.4625750000000  0.5422770000000 1.0
C      1  0.4739100000000  0.5648000000000  0.5068100000000 1.0
C      1  0.5540290000000  0.5533400000000  0.5393940000000 1.0
C      1  0.4958100000000  0.5760400000000  0.4915590000000 1.0
C      1  0.4415420000000  0.4826810000000  0.4518440000000 1.0
C      1  0.5127060000000  0.4211170000000  0.4809810000000 1.0
C      1  0.4527710000000  0.5384950000000  0.4708180000000 1.0
C      1  0.5617540000000  0.5248030000000  0.5423990000000 1.0
C      1  0.4458730000000  0.5240120000000  0.5449320000000 1.0
C      1  0.5238410000000  0.5065000000000  0.4404920000000 1.0
C      1  0.4942740000000  0.4810910000000  0.4749500000000 1.0
C      1  0.4822860000000  0.5006200000000  0.5214220000000 1.0
C      1  0.5292170000000  0.4989390000000  0.5773870000000 1.0
C      1  0.4487570000000  0.4456440000000  0.5108150000000 1.0
C      1  0.5533490000000  0.4757680000000  0.4566940000000 1.0
C      1  0.5805810000000  0.4837320000000  0.5350040000000 1.0
C      1  0.4884010000000  0.4183500000000  0.4951480000000 1.0
C      1  0.5332350000000  0.5703910000000  0.4724810000000 1.0
C      1  0.5428550000000  0.4573830000000  0.4994190000000 1.0
C      1  0.5620600000000  0.5214640000000  0.4688070000000 1.0
C      1  0.4534390000000  0.5440690000000  0.4975850000000 1.0
C      1  0.4925990000000  0.5550940000000  0.4446810000000 1.0
C      1  0.5311420000000  0.4423450000000  0.4780090000000 1.0
C      1  0.5131810000000  0.4588120000000  0.5438220000000 1.0
C      1  0.4871450000000  0.4885120000000  0.4974440000000 1.0
C      1  0.5671350000000  0.5044520000000  0.4925040000000 1.0
C      1  0.4260370000000  0.5005520000000  0.5034550000000 1.0
C      1  0.5194700000000  0.5322040000000  0.5113090000000 1.0
C      1  0.5416550000000  0.5425850000000  0.4702470000000 1.0
C      1  0.4815110000000  0.5603180000000  0.5599400000000 1.0
C      1  0.5522510000000  0.5035060000000  0.4475350000000 1.0
C      1  0.4993840000000  0.5228210000000  0.5273910000000 1.0
C      1  0.5096790000000  0.5057500000000  0.4665070000000 1.0
C      1  0.4732340000000  0.4824690000000  0.5695390000000 1.0
C      1  0.4537760000000  0.4567930000000  0.4578400000000 1.0
C      1  0.5242190000000  0.5779310000000  0.4995490000000 1.0
C      1  0.4970370000000  0.5044790000000  0.5461460000000 1.0
C      1  0.4537960000000  0.5041310000000  0.4353900000000 1.0
C      1  0.4873730000000  0.4463610000000  0.5398460000000 1.0
C      1  0.5048010000000  0.5729440000000  0.4621920000000 1.0
C      1  0.4650680000000  0.4589680000000  0.5544060000000 1.0
C      1  0.4396350000000  0.4553460000000  0.4839250000000 1.0
C      1  0.5204260000000  0.5264900000000  0.4833700000000 1.0
END
