TITL C-4164243-3780-267 51.9186470597048 125000 -26112.4388279595 0 0 177 (C1) n - 1
REM
REM in /home/nfs/bkarasulu/CARBON/AIRSS/Generating-Clusters/ReaxFF-fromJPCA2015/Units_Real/with-SteepDescent/Only-C1/SD-CG/Try1-3A/FIRE-CG
REM
REM
REM
REM
REM
REM ./C.cell (11c1c37f851c82e70ff6c80c92926a4b)
REM
REM compiler GCC version 9.2.1 20190827 (Red Hat 9.2.1-1)
REM options -cpp -mtune=generic -march=x86-64 -g -O0 -fpre-include=/usr/include/finclude/math-vector-fortran.h
REM seed 1147050891 -598654108 1775007641 1942838269 128915210 -1475519831 236402487 2071782757 -1265285273 1338697438 -875705639 -468487594 -1193115219 637293449 1114438453 549191231 -575497432 -367472080 -1141575596 1840406037 -1416213169 1581464023 1442310991 888609520 -1481286958 -1564100925 -221859346 -974025167 -1567118209 1746633594 1365145374 1738492356 -711171185
REM
CELL 1.54180   50.00000   50.00000   50.00000   90.00000   90.00000   90.00000
LATT -1
SFAC C  
C      1  0.5291040000000  0.4603140000000  0.4917330000000 1.0
C      1  0.4658830000000  0.6009700000000  0.4625680000000 1.0
C      1  0.4641320000000  0.5791350000000  0.5335050000000 1.0
C      1  0.4448630000000  0.4555410000000  0.4477270000000 1.0
C      1  0.5411300000000  0.5499860000000  0.4163930000000 1.0
C      1  0.5400170000000  0.5730950000000  0.4375680000000 1.0
C      1  0.5139980000000  0.4769570000000  0.5947150000000 1.0
C      1  0.5431650000000  0.5608160000000  0.5270170000000 1.0
C      1  0.5394550000000  0.4678570000000  0.4410910000000 1.0
C      1  0.5549990000000  0.5320840000000  0.4905400000000 1.0
C      1  0.4849770000000  0.5314520000000  0.5459540000000 1.0
C      1  0.4358840000000  0.4294660000000  0.4592930000000 1.0
C      1  0.5456690000000  0.5264760000000  0.4617020000000 1.0
C      1  0.4263280000000  0.4363060000000  0.5461920000000 1.0
C      1  0.5209000000000  0.4293600000000  0.4210870000000 1.0
C      1  0.4380450000000  0.5807860000000  0.4584580000000 1.0
C      1  0.5205410000000  0.4058270000000  0.4888070000000 1.0
C      1  0.4582990000000  0.4105480000000  0.4622490000000 1.0
C      1  0.4293280000000  0.5577220000000  0.4330700000000 1.0
C      1  0.4475260000000  0.5462220000000  0.4138300000000 1.0
C      1  0.5775940000000  0.5703720000000  0.4869380000000 1.0
C      1  0.6077270000000  0.4642260000000  0.4714690000000 1.0
C      1  0.4576340000000  0.4914120000000  0.5497250000000 1.0
C      1  0.4727070000000  0.4372570000000  0.4988590000000 1.0
C      1  0.4580740000000  0.4819290000000  0.5940340000000 1.0
C      1  0.5516060000000  0.5045120000000  0.4082120000000 1.0
C      1  0.5618420000000  0.5869010000000  0.4519110000000 1.0
C      1  0.4837650000000  0.4455020000000  0.5438220000000 1.0
C      1  0.5485820000000  0.6045880000000  0.4733220000000 1.0
C      1  0.4253580000000  0.4799220000000  0.5174080000000 1.0
C      1  0.4663080000000  0.4318350000000  0.5889450000000 1.0
C      1  0.5066040000000  0.5268050000000  0.4875690000000 1.0
C      1  0.5909320000000  0.5367470000000  0.5437600000000 1.0
C      1  0.4713430000000  0.4561690000000  0.4118260000000 1.0
C      1  0.5152190000000  0.3965240000000  0.5410750000000 1.0
C      1  0.5127620000000  0.4112070000000  0.5667460000000 1.0
C      1  0.3979450000000  0.4951180000000  0.4629030000000 1.0
C      1  0.5613500000000  0.4346650000000  0.4295370000000 1.0
C      1  0.5735770000000  0.4841410000000  0.4521610000000 1.0
C      1  0.5820500000000  0.4625090000000  0.5596190000000 1.0
C      1  0.4945620000000  0.5201130000000  0.6011600000000 1.0
C      1  0.5800000000000  0.5371290000000  0.4458510000000 1.0
C      1  0.3986070000000  0.4514790000000  0.4890900000000 1.0
C      1  0.4968630000000  0.4821200000000  0.4316610000000 1.0
C      1  0.4648520000000  0.5565670000000  0.4907430000000 1.0
C      1  0.6019350000000  0.5362210000000  0.5163900000000 1.0
C      1  0.4398520000000  0.5048480000000  0.5307390000000 1.0
C      1  0.5166950000000  0.5994500000000  0.5562800000000 1.0
C      1  0.5123940000000  0.4610710000000  0.4451940000000 1.0
C      1  0.4262340000000  0.4571300000000  0.5669620000000 1.0
C      1  0.4949620000000  0.3931400000000  0.4783240000000 1.0
C      1  0.3881420000000  0.4949180000000  0.5177180000000 1.0
C      1  0.5427140000000  0.4870280000000  0.5936000000000 1.0
C      1  0.5937900000000  0.5178120000000  0.4640900000000 1.0
C      1  0.5233710000000  0.5722540000000  0.4603700000000 1.0
C      1  0.5065170000000  0.5954830000000  0.5086700000000 1.0
C      1  0.4153060000000  0.5278120000000  0.5380580000000 1.0
C      1  0.4222790000000  0.5351960000000  0.4703160000000 1.0
C      1  0.4386430000000  0.4560080000000  0.5264200000000 1.0
C      1  0.5454040000000  0.5159910000000  0.5948400000000 1.0
C      1  0.4990140000000  0.5331170000000  0.4387420000000 1.0
C      1  0.4828190000000  0.5619320000000  0.5470490000000 1.0
C      1  0.4783670000000  0.4123300000000  0.4392450000000 1.0
C      1  0.5031680000000  0.4987570000000  0.4782480000000 1.0
C      1  0.5085200000000  0.5082530000000  0.4275780000000 1.0
C      1  0.5318360000000  0.4971190000000  0.5136630000000 1.0
C      1  0.4703680000000  0.4654430000000  0.4575640000000 1.0
C      1  0.5549490000000  0.6019430000000  0.5020450000000 1.0
C      1  0.5807750000000  0.4925990000000  0.5064660000000 1.0
C      1  0.5150560000000  0.4137060000000  0.5164380000000 1.0
C      1  0.4776610000000  0.5082730000000  0.3967480000000 1.0
C      1  0.4354920000000  0.5085730000000  0.4709370000000 1.0
C      1  0.5929960000000  0.5867150000000  0.5084980000000 1.0
C      1  0.4457820000000  0.5492370000000  0.5704840000000 1.0
C      1  0.6033580000000  0.4776260000000  0.5176740000000 1.0
C      1  0.5637510000000  0.5673130000000  0.5456750000000 1.0
C      1  0.4609190000000  0.4768710000000  0.4992900000000 1.0
C      1  0.4670590000000  0.3977650000000  0.4873960000000 1.0
C      1  0.5288710000000  0.4678260000000  0.5507540000000 1.0
C      1  0.4806170000000  0.4930580000000  0.5117240000000 1.0
C      1  0.4777480000000  0.5429250000000  0.5961190000000 1.0
C      1  0.4670130000000  0.3800270000000  0.5365610000000 1.0
C      1  0.4059350000000  0.5459920000000  0.5153790000000 1.0
C      1  0.5624950000000  0.4740770000000  0.5769490000000 1.0
C      1  0.5270440000000  0.5565820000000  0.5859000000000 1.0
C      1  0.4695420000000  0.5650850000000  0.4112440000000 1.0
C      1  0.4123960000000  0.5360260000000  0.4407590000000 1.0
C      1  0.5137150000000  0.4918010000000  0.5481090000000 1.0
C      1  0.5173830000000  0.5320440000000  0.4606960000000 1.0
C      1  0.5622710000000  0.5338700000000  0.5805160000000 1.0
C      1  0.4362580000000  0.5727410000000  0.5376530000000 1.0
C      1  0.5646690000000  0.4556310000000  0.4507140000000 1.0
C      1  0.5318110000000  0.5232170000000  0.5082180000000 1.0
C      1  0.4526650000000  0.5165900000000  0.4091980000000 1.0
C      1  0.4462920000000  0.5549880000000  0.4695770000000 1.0
C      1  0.4433970000000  0.4348570000000  0.5044670000000 1.0
C      1  0.5283970000000  0.4852330000000  0.4763860000000 1.0
C      1  0.5552050000000  0.4835550000000  0.5157490000000 1.0
C      1  0.5598560000000  0.5294330000000  0.4223490000000 1.0
C      1  0.5032520000000  0.5230420000000  0.3897180000000 1.0
C      1  0.5488430000000  0.4752080000000  0.4141160000000 1.0
C      1  0.4830100000000  0.4464060000000  0.4754180000000 1.0
C      1  0.4994370000000  0.5634150000000  0.5891900000000 1.0
C      1  0.4925290000000  0.4324210000000  0.5197060000000 1.0
C      1  0.5505430000000  0.4985090000000  0.4635850000000 1.0
C      1  0.4086610000000  0.4696060000000  0.4691130000000 1.0
C      1  0.5150680000000  0.5219670000000  0.5532310000000 1.0
C      1  0.5686560000000  0.5915830000000  0.5259890000000 1.0
C      1  0.4191950000000  0.5719340000000  0.5112350000000 1.0
C      1  0.4965580000000  0.3738690000000  0.5364050000000 1.0
C      1  0.6086100000000  0.4555580000000  0.4988050000000 1.0
C      1  0.4227200000000  0.5840300000000  0.4848370000000 1.0
C      1  0.5525070000000  0.5598240000000  0.5718290000000 1.0
C      1  0.5990640000000  0.5097250000000  0.5547060000000 1.0
C      1  0.4353240000000  0.4824230000000  0.4857810000000 1.0
C      1  0.5651160000000  0.4286380000000  0.4890220000000 1.0
C      1  0.4675270000000  0.5177900000000  0.5205700000000 1.0
C      1  0.4778850000000  0.5987390000000  0.5147790000000 1.0
C      1  0.5206670000000  0.5281460000000  0.5876120000000 1.0
C      1  0.4562510000000  0.5286040000000  0.5833020000000 1.0
C      1  0.4903580000000  0.4352000000000  0.4239760000000 1.0
C      1  0.4124570000000  0.5067360000000  0.4379880000000 1.0
C      1  0.4783900000000  0.4925500000000  0.4665330000000 1.0
C      1  0.4848060000000  0.4805410000000  0.4042500000000 1.0
C      1  0.3979830000000  0.4684280000000  0.5136910000000 1.0
C      1  0.5427650000000  0.4450720000000  0.4089070000000 1.0
C      1  0.5398080000000  0.4198880000000  0.4425370000000 1.0
C      1  0.4370910000000  0.4166550000000  0.5273680000000 1.0
C      1  0.4905730000000  0.4321910000000  0.5701420000000 1.0
C      1  0.5747210000000  0.5209250000000  0.5595820000000 1.0
C      1  0.4591290000000  0.4067450000000  0.5795410000000 1.0
C      1  0.4157030000000  0.4856710000000  0.5647010000000 1.0
C      1  0.3982270000000  0.5338720000000  0.4908330000000 1.0
C      1  0.4643780000000  0.4663030000000  0.5381880000000 1.0
C      1  0.5575960000000  0.4283780000000  0.5619760000000 1.0
C      1  0.4002750000000  0.5027740000000  0.5439680000000 1.0
C      1  0.4926950000000  0.5529970000000  0.4901480000000 1.0
C      1  0.5198010000000  0.4547550000000  0.5758240000000 1.0
C      1  0.5554660000000  0.5587110000000  0.5002390000000 1.0
C      1  0.5412720000000  0.4568680000000  0.5203030000000 1.0
C      1  0.4957570000000  0.3896370000000  0.4481310000000 1.0
C      1  0.4717990000000  0.5115270000000  0.5644620000000 1.0
C      1  0.4616020000000  0.5143530000000  0.4717900000000 1.0
C      1  0.4456520000000  0.4679080000000  0.4214150000000 1.0
C      1  0.5304080000000  0.5359170000000  0.5328990000000 1.0
C      1  0.5348230000000  0.4260310000000  0.5772960000000 1.0
C      1  0.5211790000000  0.6143580000000  0.4629750000000 1.0
C      1  0.5175360000000  0.5473620000000  0.3987250000000 1.0
C      1  0.5908030000000  0.4407280000000  0.4794660000000 1.0
C      1  0.6073360000000  0.5632850000000  0.5131310000000 1.0
C      1  0.4948270000000  0.5805280000000  0.5665180000000 1.0
C      1  0.5424500000000  0.4171040000000  0.4728800000000 1.0
C      1  0.4356880000000  0.4962500000000  0.4217260000000 1.0
C      1  0.3895800000000  0.5070710000000  0.4895350000000 1.0
C      1  0.5068620000000  0.4850230000000  0.5209020000000 1.0
C      1  0.5230690000000  0.5052740000000  0.4014650000000 1.0
C      1  0.4287490000000  0.5523320000000  0.5547510000000 1.0
C      1  0.4933860000000  0.6083140000000  0.4582040000000 1.0
C      1  0.4351160000000  0.4948570000000  0.5836410000000 1.0
C      1  0.6005510000000  0.4819260000000  0.5465380000000 1.0
C      1  0.4484720000000  0.4553280000000  0.5875050000000 1.0
C      1  0.4615410000000  0.5293820000000  0.4958110000000 1.0
C      1  0.5860020000000  0.5196250000000  0.4942620000000 1.0
C      1  0.5613550000000  0.4346670000000  0.5177340000000 1.0
C      1  0.4600880000000  0.3913170000000  0.5620300000000 1.0
C      1  0.4557250000000  0.3977200000000  0.5154650000000 1.0
C      1  0.5264770000000  0.5915800000000  0.5297510000000 1.0
C      1  0.4886230000000  0.4923190000000  0.5965690000000 1.0
C      1  0.4678110000000  0.5998490000000  0.4889890000000 1.0
C      1  0.4897270000000  0.5580180000000  0.4290300000000 1.0
C      1  0.5104010000000  0.5756730000000  0.4857360000000 1.0
C      1  0.4199040000000  0.4323790000000  0.4831440000000 1.0
C      1  0.5113050000000  0.4493740000000  0.4720350000000 1.0
C      1  0.5759730000000  0.4355560000000  0.5433730000000 1.0
C      1  0.4971390000000  0.5673660000000  0.4040440000000 1.0
C      1  0.6014280000000  0.4903380000000  0.4580290000000 1.0
C      1  0.5801250000000  0.5648680000000  0.4578280000000 1.0
END
