TITL C-4164234-2335-385 25.0222968833896 125000 -20007.2092053516 0 0 135 (C1) n - 1
REM
REM in /home/nfs/bkarasulu/CARBON/AIRSS/Generating-Clusters/ReaxFF-fromJPCA2015/Units_Real/with-SteepDescent/Only-C1/SD-CG/Try1-3A/FIRE-CG
REM
REM
REM
REM
REM
REM ./C.cell (11c1c37f851c82e70ff6c80c92926a4b)
REM
REM compiler GCC version 9.2.1 20190827 (Red Hat 9.2.1-1)
REM options -cpp -mtune=generic -march=x86-64 -g -O0 -fpre-include=/usr/include/finclude/math-vector-fortran.h
REM seed 719313220 1925229272 1389290301 -1486395130 393177751 -1031331963 -1075293027 -1064259769 824694615 -87670404 610317327 -1658589552 -1655198736 1611787303 210809581 -1738096254 -1777206504 1944640986 -1781941782 1982482492 -44219134 -78585325 -2046016619 921341499 395074820 1818558695 -2011586982 287412983 2088313124 1633216091 1503217637 -2130004696 -2134897681
REM
CELL 1.54180   50.00000   50.00000   50.00000   90.00000   90.00000   90.00000
LATT -1
SFAC C  
C      1  0.4723410000000  0.5761360000000  0.5388730000000 1.0
C      1  0.5648640000000  0.4827360000000  0.5738320000000 1.0
C      1  0.4334190000000  0.5593470000000  0.5303950000000 1.0
C      1  0.5668280000000  0.4389810000000  0.5508870000000 1.0
C      1  0.5649610000000  0.5216120000000  0.4416500000000 1.0
C      1  0.4438200000000  0.5280800000000  0.4859780000000 1.0
C      1  0.5276000000000  0.4347430000000  0.4196650000000 1.0
C      1  0.5435300000000  0.5695990000000  0.4501560000000 1.0
C      1  0.4969570000000  0.4813010000000  0.5446590000000 1.0
C      1  0.4896600000000  0.5891450000000  0.4930420000000 1.0
C      1  0.4557290000000  0.4226970000000  0.5701020000000 1.0
C      1  0.4618620000000  0.4965490000000  0.5911660000000 1.0
C      1  0.5052590000000  0.4796940000000  0.4231730000000 1.0
C      1  0.4854780000000  0.5409030000000  0.5788330000000 1.0
C      1  0.5255120000000  0.4547840000000  0.6022930000000 1.0
C      1  0.4781140000000  0.4411890000000  0.4890210000000 1.0
C      1  0.5757430000000  0.5552290000000  0.5529460000000 1.0
C      1  0.5522480000000  0.4962730000000  0.5003660000000 1.0
C      1  0.4679910000000  0.5881350000000  0.5129830000000 1.0
C      1  0.4656860000000  0.4730000000000  0.5479720000000 1.0
C      1  0.5877370000000  0.5194390000000  0.4605420000000 1.0
C      1  0.5338930000000  0.5689630000000  0.5817220000000 1.0
C      1  0.4872110000000  0.4930600000000  0.6019860000000 1.0
C      1  0.5120340000000  0.5237700000000  0.4649020000000 1.0
C      1  0.4107660000000  0.5471770000000  0.4703700000000 1.0
C      1  0.5346680000000  0.4956330000000  0.4159180000000 1.0
C      1  0.4160610000000  0.5303120000000  0.4464930000000 1.0
C      1  0.4666230000000  0.4921930000000  0.4577370000000 1.0
C      1  0.5207700000000  0.5853130000000  0.4590880000000 1.0
C      1  0.5431600000000  0.4788890000000  0.4600170000000 1.0
C      1  0.4808810000000  0.4452830000000  0.5903300000000 1.0
C      1  0.4179560000000  0.5157940000000  0.5429800000000 1.0
C      1  0.4482740000000  0.4148230000000  0.5196690000000 1.0
C      1  0.5286530000000  0.5382390000000  0.4829480000000 1.0
C      1  0.4804020000000  0.5482370000000  0.5324350000000 1.0
C      1  0.4747730000000  0.5881380000000  0.4676640000000 1.0
C      1  0.4148510000000  0.4578160000000  0.4714970000000 1.0
C      1  0.5593010000000  0.5767720000000  0.5032640000000 1.0
C      1  0.5306610000000  0.5262070000000  0.4162760000000 1.0
C      1  0.4823850000000  0.5451510000000  0.4125550000000 1.0
C      1  0.4553570000000  0.5375790000000  0.5299870000000 1.0
C      1  0.5844490000000  0.5333160000000  0.4862130000000 1.0
C      1  0.4138030000000  0.5295140000000  0.4957950000000 1.0
C      1  0.5052270000000  0.5630220000000  0.5785280000000 1.0
C      1  0.5121240000000  0.5553780000000  0.4997630000000 1.0
C      1  0.4680570000000  0.4465370000000  0.5685600000000 1.0
C      1  0.5543700000000  0.4510540000000  0.5121990000000 1.0
C      1  0.5809480000000  0.4395950000000  0.4761650000000 1.0
C      1  0.4945410000000  0.5360040000000  0.5113450000000 1.0
C      1  0.5185390000000  0.5858380000000  0.5636300000000 1.0
C      1  0.5539700000000  0.4744140000000  0.3982250000000 1.0
C      1  0.4222110000000  0.4639340000000  0.5232970000000 1.0
C      1  0.5825690000000  0.5267590000000  0.5141290000000 1.0
C      1  0.4885210000000  0.5556810000000  0.4378930000000 1.0
C      1  0.5712920000000  0.4690590000000  0.5484590000000 1.0
C      1  0.5016220000000  0.4502750000000  0.4211270000000 1.0
C      1  0.5363270000000  0.5174300000000  0.5520540000000 1.0
C      1  0.6120050000000  0.4845380000000  0.4913110000000 1.0
C      1  0.5936210000000  0.4761130000000  0.5131860000000 1.0
C      1  0.4853440000000  0.3962080000000  0.4968970000000 1.0
C      1  0.4893180000000  0.4995070000000  0.4074840000000 1.0
C      1  0.4252000000000  0.5711560000000  0.4770200000000 1.0
C      1  0.5571430000000  0.5434280000000  0.4794960000000 1.0
C      1  0.4743490000000  0.4989850000000  0.5056200000000 1.0
C      1  0.4259500000000  0.4830010000000  0.4829670000000 1.0
C      1  0.4571530000000  0.5298700000000  0.4128120000000 1.0
C      1  0.4511620000000  0.4627420000000  0.5255770000000 1.0
C      1  0.5928480000000  0.4920080000000  0.4689660000000 1.0
C      1  0.3993890000000  0.4814570000000  0.4516110000000 1.0
C      1  0.5537720000000  0.4945250000000  0.4377980000000 1.0
C      1  0.5224620000000  0.5884770000000  0.5349110000000 1.0
C      1  0.4499940000000  0.5669940000000  0.5557090000000 1.0
C      1  0.5030450000000  0.5257970000000  0.4065440000000 1.0
C      1  0.5373750000000  0.5945520000000  0.5091030000000 1.0
C      1  0.5516930000000  0.4631320000000  0.5914690000000 1.0
C      1  0.5314400000000  0.4528090000000  0.4724810000000 1.0
C      1  0.5155610000000  0.4950910000000  0.4688110000000 1.0
C      1  0.4085680000000  0.4989930000000  0.4994610000000 1.0
C      1  0.4586410000000  0.4840730000000  0.4855120000000 1.0
C      1  0.4551810000000  0.5184220000000  0.5102150000000 1.0
C      1  0.4490670000000  0.4908000000000  0.5670970000000 1.0
C      1  0.4764840000000  0.4201180000000  0.5113800000000 1.0
C      1  0.4572690000000  0.5422820000000  0.5694700000000 1.0
C      1  0.5672190000000  0.5514620000000  0.5257080000000 1.0
C      1  0.4432000000000  0.4175780000000  0.4718150000000 1.0
C      1  0.5748350000000  0.4993230000000  0.5199870000000 1.0
C      1  0.5306880000000  0.4167520000000  0.4941780000000 1.0
C      1  0.4779790000000  0.4424130000000  0.4365980000000 1.0
C      1  0.5473400000000  0.4503910000000  0.4097730000000 1.0
C      1  0.4513880000000  0.5748460000000  0.4756820000000 1.0
C      1  0.4108510000000  0.4910840000000  0.5268640000000 1.0
C      1  0.5616590000000  0.5609170000000  0.5759150000000 1.0
C      1  0.5459550000000  0.4696180000000  0.5307530000000 1.0
C      1  0.5136230000000  0.3998290000000  0.5106600000000 1.0
C      1  0.5180080000000  0.5950770000000  0.4868760000000 1.0
C      1  0.5180710000000  0.4701000000000  0.5324670000000 1.0
C      1  0.5453200000000  0.4232610000000  0.4402680000000 1.0
C      1  0.4874830000000  0.5360260000000  0.4573530000000 1.0
C      1  0.5414220000000  0.4245480000000  0.5554430000000 1.0
C      1  0.4968880000000  0.4635660000000  0.6034980000000 1.0
C      1  0.5240700000000  0.4105050000000  0.5354980000000 1.0
C      1  0.4940800000000  0.5812680000000  0.4473080000000 1.0
C      1  0.4933680000000  0.4793230000000  0.4552680000000 1.0
C      1  0.5812800000000  0.4500940000000  0.5021790000000 1.0
C      1  0.5747320000000  0.5352800000000  0.5725560000000 1.0
C      1  0.4144710000000  0.4466080000000  0.5008900000000 1.0
C      1  0.5239180000000  0.4972920000000  0.4972970000000 1.0
C      1  0.5225490000000  0.5605760000000  0.5270920000000 1.0
C      1  0.5738650000000  0.4295800000000  0.4503020000000 1.0
C      1  0.5610250000000  0.5721930000000  0.4743930000000 1.0
C      1  0.4610310000000  0.5009460000000  0.4118080000000 1.0
C      1  0.4884600000000  0.4501560000000  0.4628570000000 1.0
C      1  0.5410990000000  0.5405660000000  0.5360400000000 1.0
C      1  0.4410000000000  0.5801280000000  0.5024520000000 1.0
C      1  0.5460760000000  0.5434300000000  0.4346880000000 1.0
C      1  0.5296890000000  0.4254940000000  0.4654820000000 1.0
C      1  0.5108550000000  0.5027860000000  0.5590470000000 1.0
C      1  0.5006320000000  0.5079000000000  0.5103360000000 1.0
C      1  0.4681670000000  0.4034590000000  0.4754020000000 1.0
C      1  0.4427010000000  0.5353120000000  0.4374480000000 1.0
C      1  0.5645250000000  0.4869890000000  0.4765720000000 1.0
C      1  0.4297350000000  0.4220170000000  0.4985800000000 1.0
C      1  0.4182080000000  0.5001780000000  0.4414980000000 1.0
C      1  0.5584930000000  0.5112520000000  0.5701400000000 1.0
C      1  0.4136100000000  0.5381080000000  0.5259910000000 1.0
C      1  0.4353270000000  0.4408470000000  0.4553130000000 1.0
C      1  0.4393500000000  0.5182450000000  0.5640290000000 1.0
C      1  0.4981730000000  0.5140660000000  0.5835010000000 1.0
C      1  0.4411050000000  0.4095130000000  0.5495180000000 1.0
C      1  0.4633160000000  0.4608240000000  0.5005580000000 1.0
C      1  0.4472860000000  0.4848670000000  0.4337520000000 1.0
C      1  0.5397700000000  0.4371920000000  0.5841730000000 1.0
C      1  0.4505640000000  0.4541750000000  0.4356990000000 1.0
C      1  0.5281520000000  0.4463540000000  0.5009630000000 1.0
C      1  0.4607620000000  0.5238750000000  0.4608770000000 1.0
END
