TITL C-4164242-3624-719 35.228368461271 125000 -20877.9409928767 0 0 141 (C1) n - 1
REM
REM in /home/nfs/bkarasulu/CARBON/AIRSS/Generating-Clusters/ReaxFF-fromJPCA2015/Units_Real/with-SteepDescent/Only-C1/SD-CG/Try1-3A/FIRE-CG
REM
REM
REM
REM
REM
REM ./C.cell (11c1c37f851c82e70ff6c80c92926a4b)
REM
REM compiler GCC version 9.2.1 20190827 (Red Hat 9.2.1-1)
REM options -cpp -mtune=generic -march=x86-64 -g -O0 -fpre-include=/usr/include/finclude/math-vector-fortran.h
REM seed 1893581301 -184957177 2036815098 -95648850 -786830335 -917871286 -1073893950 -821990473 -1799235857 1754389420 -458080218 -846148177 -287775229 -1496137452 -2097901497 -53174706 1931812406 -1515417625 1018086372 -642059632 1463215608 711867974 -1659705889 -1359770576 -1734420533 -742331146 458016367 1537088441 1746257293 -1231714635 1184775275 1800787282 -1849302638
REM
CELL 1.54180   50.00000   50.00000   50.00000   90.00000   90.00000   90.00000
LATT -1
SFAC C  
C      1  0.5267330000000  0.4152730000000  0.4787380000000 1.0
C      1  0.4637880000000  0.4879320000000  0.6052650000000 1.0
C      1  0.5315510000000  0.5583370000000  0.4423640000000 1.0
C      1  0.4727160000000  0.4711060000000  0.4651220000000 1.0
C      1  0.5570000000000  0.5463700000000  0.5519370000000 1.0
C      1  0.5614130000000  0.4723740000000  0.5099430000000 1.0
C      1  0.4740760000000  0.5562440000000  0.4645930000000 1.0
C      1  0.4205070000000  0.5606110000000  0.4809980000000 1.0
C      1  0.5888770000000  0.4967310000000  0.4463720000000 1.0
C      1  0.5307630000000  0.5839510000000  0.4557640000000 1.0
C      1  0.4233590000000  0.4853820000000  0.4428760000000 1.0
C      1  0.4698510000000  0.4349860000000  0.5589410000000 1.0
C      1  0.4420130000000  0.4351120000000  0.5493460000000 1.0
C      1  0.4853160000000  0.4851830000000  0.5596180000000 1.0
C      1  0.5078830000000  0.4464520000000  0.4159870000000 1.0
C      1  0.4776500000000  0.4635840000000  0.5104100000000 1.0
C      1  0.5100200000000  0.5008000000000  0.5642920000000 1.0
C      1  0.4807900000000  0.4189200000000  0.4442870000000 1.0
C      1  0.4487420000000  0.4676640000000  0.4780150000000 1.0
C      1  0.5508910000000  0.5225470000000  0.4999080000000 1.0
C      1  0.5706330000000  0.4894340000000  0.5829390000000 1.0
C      1  0.5021780000000  0.4067750000000  0.4631220000000 1.0
C      1  0.4571710000000  0.4578280000000  0.4224650000000 1.0
C      1  0.5347350000000  0.4744610000000  0.5263750000000 1.0
C      1  0.5298620000000  0.4434770000000  0.5889870000000 1.0
C      1  0.4908850000000  0.4439040000000  0.4927190000000 1.0
C      1  0.5784370000000  0.5554500000000  0.5332180000000 1.0
C      1  0.5021110000000  0.3976950000000  0.5379030000000 1.0
C      1  0.5736920000000  0.5757470000000  0.5114790000000 1.0
C      1  0.4523150000000  0.5694120000000  0.5409770000000 1.0
C      1  0.4914690000000  0.4755740000000  0.6045120000000 1.0
C      1  0.4841080000000  0.5023960000000  0.4122220000000 1.0
C      1  0.5284570000000  0.4104910000000  0.5461000000000 1.0
C      1  0.5331130000000  0.5082740000000  0.4590710000000 1.0
C      1  0.4187020000000  0.5381950000000  0.4621870000000 1.0
C      1  0.5203360000000  0.4880970000000  0.5021540000000 1.0
C      1  0.4123600000000  0.5403800000000  0.5444870000000 1.0
C      1  0.4812380000000  0.4024970000000  0.4828900000000 1.0
C      1  0.5957900000000  0.5086220000000  0.4930480000000 1.0
C      1  0.5698970000000  0.4997920000000  0.5045080000000 1.0
C      1  0.4133820000000  0.5063910000000  0.4671220000000 1.0
C      1  0.5272330000000  0.4637990000000  0.4023460000000 1.0
C      1  0.5172670000000  0.5363380000000  0.4594890000000 1.0
C      1  0.4853870000000  0.5342770000000  0.4557510000000 1.0
C      1  0.5154600000000  0.5404030000000  0.4050370000000 1.0
C      1  0.5772830000000  0.4526790000000  0.4480270000000 1.0
C      1  0.4234740000000  0.4817420000000  0.5683970000000 1.0
C      1  0.4541370000000  0.5114300000000  0.4964550000000 1.0
C      1  0.4842570000000  0.5767400000000  0.4326870000000 1.0
C      1  0.4810210000000  0.5058540000000  0.5268180000000 1.0
C      1  0.4553910000000  0.5710530000000  0.4493130000000 1.0
C      1  0.5858080000000  0.5576350000000  0.4920710000000 1.0
C      1  0.5935470000000  0.5160990000000  0.5451240000000 1.0
C      1  0.4757430000000  0.5116940000000  0.6216060000000 1.0
C      1  0.5405210000000  0.4257600000000  0.5683950000000 1.0
C      1  0.5311000000000  0.4989640000000  0.4320710000000 1.0
C      1  0.4908230000000  0.5542220000000  0.5707160000000 1.0
C      1  0.5480370000000  0.5900640000000  0.5064770000000 1.0
C      1  0.5546980000000  0.4516760000000  0.5751110000000 1.0
C      1  0.4746640000000  0.5302370000000  0.4242890000000 1.0
C      1  0.4858560000000  0.4148640000000  0.5504040000000 1.0
C      1  0.5155220000000  0.5496250000000  0.4863420000000 1.0
C      1  0.3979820000000  0.5005530000000  0.4941310000000 1.0
C      1  0.4352400000000  0.4243770000000  0.5201310000000 1.0
C      1  0.4829420000000  0.3943910000000  0.5133290000000 1.0
C      1  0.5420870000000  0.5232860000000  0.5435140000000 1.0
C      1  0.4176910000000  0.5226890000000  0.5586540000000 1.0
C      1  0.5124040000000  0.4273210000000  0.5010100000000 1.0
C      1  0.4786450000000  0.5747940000000  0.5471490000000 1.0
C      1  0.5642440000000  0.5357420000000  0.4311060000000 1.0
C      1  0.4368080000000  0.4997230000000  0.4215300000000 1.0
C      1  0.5916180000000  0.5343570000000  0.4779400000000 1.0
C      1  0.4918270000000  0.5547280000000  0.4155750000000 1.0
C      1  0.4906260000000  0.5315720000000  0.5304660000000 1.0
C      1  0.5066680000000  0.5142380000000  0.3944570000000 1.0
C      1  0.4619850000000  0.4177240000000  0.4658300000000 1.0
C      1  0.5888090000000  0.4597410000000  0.4741640000000 1.0
C      1  0.4548600000000  0.4020610000000  0.5164180000000 1.0
C      1  0.5303300000000  0.4588940000000  0.4606830000000 1.0
C      1  0.5373090000000  0.5626780000000  0.5688600000000 1.0
C      1  0.4932700000000  0.4864350000000  0.5111170000000 1.0
C      1  0.4060420000000  0.4885460000000  0.5189480000000 1.0
C      1  0.4223980000000  0.5499390000000  0.5071040000000 1.0
C      1  0.5743250000000  0.4760040000000  0.4310440000000 1.0
C      1  0.5087050000000  0.4582560000000  0.4435490000000 1.0
C      1  0.5158690000000  0.5476570000000  0.5823820000000 1.0
C      1  0.4440540000000  0.4968410000000  0.5855550000000 1.0
C      1  0.5133800000000  0.5247950000000  0.5478640000000 1.0
C      1  0.5025080000000  0.5016070000000  0.6134910000000 1.0
C      1  0.4454430000000  0.5228710000000  0.5733910000000 1.0
C      1  0.5201030000000  0.4888840000000  0.3870790000000 1.0
C      1  0.4868260000000  0.4943120000000  0.4612660000000 1.0
C      1  0.4948180000000  0.4578550000000  0.5583130000000 1.0
C      1  0.4938470000000  0.5877590000000  0.5246930000000 1.0
C      1  0.5280850000000  0.5788430000000  0.5481950000000 1.0
C      1  0.5020710000000  0.5924360000000  0.4511020000000 1.0
C      1  0.4093280000000  0.4991120000000  0.5482620000000 1.0
C      1  0.4626770000000  0.4923720000000  0.5427740000000 1.0
C      1  0.4771690000000  0.5892630000000  0.4999920000000 1.0
C      1  0.5536990000000  0.4273360000000  0.4801690000000 1.0
C      1  0.5497310000000  0.5078070000000  0.5943960000000 1.0
C      1  0.4256350000000  0.4654230000000  0.5145030000000 1.0
C      1  0.5481030000000  0.4798150000000  0.4178510000000 1.0
C      1  0.5451360000000  0.5771250000000  0.4809140000000 1.0
C      1  0.5311990000000  0.4847340000000  0.4739730000000 1.0
C      1  0.5692310000000  0.4496860000000  0.4940110000000 1.0
C      1  0.4906530000000  0.5944570000000  0.4766750000000 1.0
C      1  0.4523440000000  0.4774370000000  0.5189160000000 1.0
C      1  0.4330320000000  0.4580250000000  0.5591700000000 1.0
C      1  0.4682350000000  0.5381370000000  0.5648930000000 1.0
C      1  0.4916220000000  0.4514430000000  0.4650820000000 1.0
C      1  0.5008280000000  0.5309640000000  0.5015830000000 1.0
C      1  0.5888590000000  0.5022110000000  0.5635230000000 1.0
C      1  0.5249820000000  0.5152500000000  0.5027110000000 1.0
C      1  0.5424470000000  0.5475590000000  0.4170640000000 1.0
C      1  0.4806670000000  0.4388420000000  0.4221320000000 1.0
C      1  0.5984940000000  0.4871990000000  0.4720600000000 1.0
C      1  0.5258410000000  0.4318470000000  0.5264930000000 1.0
C      1  0.5018700000000  0.4912480000000  0.4363390000000 1.0
C      1  0.5174040000000  0.4558410000000  0.5389540000000 1.0
C      1  0.4447730000000  0.5283330000000  0.4230230000000 1.0
C      1  0.4343390000000  0.4590070000000  0.4417890000000 1.0
C      1  0.5228430000000  0.5181610000000  0.5936550000000 1.0
C      1  0.5518200000000  0.4387900000000  0.4538980000000 1.0
C      1  0.4593240000000  0.4842870000000  0.4113930000000 1.0
C      1  0.4801060000000  0.5159140000000  0.4789000000000 1.0
C      1  0.5043230000000  0.4565790000000  0.5870110000000 1.0
C      1  0.4344450000000  0.5477630000000  0.4410690000000 1.0
C      1  0.5938230000000  0.5329510000000  0.5239640000000 1.0
C      1  0.4475420000000  0.5388050000000  0.5033630000000 1.0
C      1  0.4388280000000  0.4405370000000  0.4702200000000 1.0
C      1  0.4250020000000  0.5633370000000  0.5333250000000 1.0
C      1  0.4264400000000  0.4409820000000  0.4982890000000 1.0
C      1  0.5585880000000  0.4758760000000  0.5618570000000 1.0
C      1  0.4440830000000  0.5785770000000  0.4766100000000 1.0
C      1  0.4637740000000  0.5609310000000  0.4905310000000 1.0
C      1  0.5237640000000  0.5927170000000  0.5253950000000 1.0
C      1  0.4366120000000  0.4937510000000  0.4816600000000 1.0
C      1  0.5421450000000  0.5494440000000  0.4938370000000 1.0
C      1  0.5386540000000  0.4929150000000  0.5492800000000 1.0
C      1  0.5837290000000  0.5256940000000  0.4482700000000 1.0
END
