TITL C-4164247-2821-507 -6.87974718092078 125000 -11506.9289911671 0 0 79 (C1) n - 1
REM
REM in /home/nfs/bkarasulu/CARBON/AIRSS/Generating-Clusters/ReaxFF-fromJPCA2015/Units_Real/with-SteepDescent/Only-C1/SD-CG/Try1-3A/FIRE-CG
REM
REM
REM
REM
REM
REM ./C.cell (11c1c37f851c82e70ff6c80c92926a4b)
REM
REM compiler GCC version 9.2.1 20190827 (Red Hat 9.2.1-1)
REM options -cpp -mtune=generic -march=x86-64 -g -O0 -fpre-include=/usr/include/finclude/math-vector-fortran.h
REM seed -1573141145 1835366097 629841623 -1003244870 656106409 240838996 692651210 16298161 1206409196 -1701546828 961025808 220485233 1024095986 -452022357 -939583784 -775617429 1643766628 -245912288 -1592348753 2064991240 1715277318 -667871827 1811230978 611640562 943531731 1747616792 -198862805 -1586150368 1090209863 -1270310209 -1372420505 2042024637 1859989650
REM
CELL 1.54180   50.00000   50.00000   50.00000   90.00000   90.00000   90.00000
LATT -1
SFAC C  
C      1  0.5076480000000  0.4529410000000  0.5718620000000 1.0
C      1  0.5238710000000  0.5034100000000  0.5652890000000 1.0
C      1  0.4327070000000  0.5222510000000  0.4798580000000 1.0
C      1  0.4435590000000  0.4867520000000  0.4553970000000 1.0
C      1  0.5115740000000  0.5517220000000  0.5060710000000 1.0
C      1  0.5276340000000  0.4742830000000  0.5595640000000 1.0
C      1  0.4992770000000  0.5198330000000  0.5554820000000 1.0
C      1  0.5447120000000  0.5034040000000  0.5204830000000 1.0
C      1  0.5459530000000  0.5125690000000  0.4338720000000 1.0
C      1  0.5248740000000  0.5490190000000  0.4589640000000 1.0
C      1  0.5737670000000  0.4627240000000  0.4989280000000 1.0
C      1  0.5405710000000  0.4846260000000  0.4800840000000 1.0
C      1  0.4358560000000  0.4901970000000  0.5560590000000 1.0
C      1  0.4502550000000  0.5376250000000  0.4611250000000 1.0
C      1  0.4512010000000  0.4911590000000  0.5066860000000 1.0
C      1  0.5511400000000  0.4484310000000  0.4249820000000 1.0
C      1  0.5213970000000  0.4539320000000  0.4275620000000 1.0
C      1  0.4730390000000  0.5084450000000  0.5654000000000 1.0
C      1  0.5323530000000  0.4334470000000  0.4683250000000 1.0
C      1  0.5658640000000  0.4983500000000  0.4486690000000 1.0
C      1  0.4798430000000  0.4576270000000  0.5812010000000 1.0
C      1  0.4397700000000  0.5187160000000  0.5082870000000 1.0
C      1  0.5363000000000  0.4338590000000  0.5485080000000 1.0
C      1  0.4831310000000  0.4483390000000  0.4556710000000 1.0
C      1  0.4747920000000  0.5812910000000  0.4894100000000 1.0
C      1  0.5238530000000  0.4700200000000  0.4976670000000 1.0
C      1  0.4938840000000  0.4657600000000  0.4954300000000 1.0
C      1  0.5641820000000  0.5259660000000  0.4550740000000 1.0
C      1  0.5169230000000  0.5093550000000  0.4270960000000 1.0
C      1  0.5117120000000  0.5275500000000  0.4644240000000 1.0
C      1  0.5562160000000  0.4497710000000  0.5157150000000 1.0
C      1  0.5586810000000  0.5226590000000  0.5376700000000 1.0
C      1  0.5614110000000  0.5331310000000  0.4835310000000 1.0
C      1  0.5004620000000  0.5840190000000  0.4748460000000 1.0
C      1  0.5496160000000  0.5081250000000  0.4933760000000 1.0
C      1  0.4431840000000  0.5344880000000  0.5326590000000 1.0
C      1  0.4743160000000  0.5660200000000  0.5597220000000 1.0
C      1  0.4846770000000  0.4973550000000  0.4664130000000 1.0
C      1  0.5503250000000  0.4568730000000  0.5450010000000 1.0
C      1  0.5517830000000  0.5555910000000  0.4996930000000 1.0
C      1  0.4522670000000  0.4474630000000  0.5724980000000 1.0
C      1  0.4908880000000  0.4370200000000  0.5324710000000 1.0
C      1  0.5087230000000  0.4292170000000  0.5547900000000 1.0
C      1  0.5553560000000  0.4454310000000  0.4544750000000 1.0
C      1  0.4358020000000  0.4623050000000  0.5523960000000 1.0
C      1  0.4208210000000  0.4956650000000  0.4719680000000 1.0
C      1  0.4636150000000  0.4439360000000  0.4773420000000 1.0
C      1  0.4473970000000  0.4653180000000  0.5225030000000 1.0
C      1  0.4406900000000  0.4505220000000  0.4952530000000 1.0
C      1  0.4945660000000  0.4838220000000  0.5204040000000 1.0
C      1  0.4763310000000  0.4795220000000  0.5623460000000 1.0
C      1  0.5044450000000  0.5539830000000  0.5537300000000 1.0
C      1  0.5299380000000  0.4371050000000  0.4977470000000 1.0
C      1  0.5249940000000  0.4825550000000  0.5248110000000 1.0
C      1  0.4983400000000  0.5817100000000  0.4460700000000 1.0
C      1  0.5085530000000  0.4811790000000  0.4271830000000 1.0
C      1  0.5028560000000  0.5120560000000  0.4823430000000 1.0
C      1  0.4961600000000  0.5306150000000  0.4260910000000 1.0
C      1  0.4587540000000  0.5618410000000  0.4739130000000 1.0
C      1  0.4515130000000  0.5043910000000  0.4312780000000 1.0
C      1  0.5011950000000  0.5688470000000  0.5277220000000 1.0
C      1  0.5429940000000  0.5251910000000  0.5627320000000 1.0
C      1  0.5104270000000  0.4378310000000  0.4497270000000 1.0
C      1  0.4454520000000  0.5166840000000  0.5561630000000 1.0
C      1  0.4747500000000  0.5768300000000  0.5185130000000 1.0
C      1  0.5252600000000  0.5650530000000  0.4839660000000 1.0
C      1  0.5516760000000  0.5501440000000  0.5287670000000 1.0
C      1  0.5001120000000  0.5263590000000  0.5058510000000 1.0
C      1  0.4902450000000  0.5122640000000  0.5274950000000 1.0
C      1  0.5642470000000  0.4717280000000  0.4685030000000 1.0
C      1  0.5099020000000  0.5553880000000  0.4344720000000 1.0
C      1  0.4887390000000  0.4762540000000  0.4468360000000 1.0
C      1  0.4564210000000  0.5612510000000  0.5369990000000 1.0
C      1  0.5345270000000  0.5524290000000  0.5532870000000 1.0
C      1  0.4217240000000  0.4703580000000  0.4858070000000 1.0
C      1  0.4623000000000  0.4853220000000  0.4794450000000 1.0
C      1  0.4770410000000  0.4638830000000  0.5362470000000 1.0
C      1  0.5009460000000  0.4388710000000  0.5059600000000 1.0
C      1  0.4677180000000  0.5280190000000  0.4358390000000 1.0
END
