TITL C-4164243-3780-298 16.4993618338912 125000 -22140.3626740503 0 0 147 (C1) n - 1
REM
REM in /home/nfs/bkarasulu/CARBON/AIRSS/Generating-Clusters/ReaxFF-fromJPCA2015/Units_Real/with-SteepDescent/Only-C1/SD-CG/Try1-3A/FIRE-CG
REM
REM
REM
REM
REM
REM ./C.cell (11c1c37f851c82e70ff6c80c92926a4b)
REM
REM compiler GCC version 9.2.1 20190827 (Red Hat 9.2.1-1)
REM options -cpp -mtune=generic -march=x86-64 -g -O0 -fpre-include=/usr/include/finclude/math-vector-fortran.h
REM seed -498965898 -96869542 554332953 -229061392 1776050373 1287844804 762356224 -1149270077 -521334724 -697680174 -17803692 236050351 -1942610328 1974352566 682439370 -1203517051 -987274912 1122617519 -502236962 2005049012 -1811289618 -1074711272 -1935525815 676294248 872772201 -891089606 -2118309569 351965459 -361980495 373214205 78925482 -1041357578 2130742196
REM
CELL 1.54180   50.00000   50.00000   50.00000   90.00000   90.00000   90.00000
LATT -1
SFAC C  
C      1  0.4603760000000  0.5369210000000  0.4674240000000 1.0
C      1  0.4280890000000  0.5377200000000  0.5776340000000 1.0
C      1  0.4137770000000  0.5490690000000  0.4533140000000 1.0
C      1  0.5516350000000  0.5087920000000  0.5912100000000 1.0
C      1  0.5700740000000  0.5224460000000  0.4219930000000 1.0
C      1  0.5980770000000  0.4882340000000  0.4707390000000 1.0
C      1  0.5570650000000  0.4430340000000  0.4762170000000 1.0
C      1  0.4055770000000  0.4653700000000  0.5049390000000 1.0
C      1  0.5391840000000  0.5342750000000  0.5947240000000 1.0
C      1  0.5410300000000  0.4822760000000  0.6031980000000 1.0
C      1  0.6068500000000  0.5106700000000  0.5233870000000 1.0
C      1  0.5045810000000  0.4295970000000  0.4941030000000 1.0
C      1  0.4281320000000  0.4847000000000  0.4388660000000 1.0
C      1  0.4761650000000  0.5576880000000  0.5125100000000 1.0
C      1  0.4553630000000  0.5485490000000  0.4222350000000 1.0
C      1  0.4522730000000  0.5197600000000  0.5213920000000 1.0
C      1  0.4673600000000  0.5122140000000  0.4541500000000 1.0
C      1  0.5058410000000  0.6045970000000  0.4439250000000 1.0
C      1  0.4867670000000  0.4569480000000  0.4073940000000 1.0
C      1  0.4151870000000  0.5471480000000  0.5075540000000 1.0
C      1  0.5269230000000  0.4826200000000  0.4603430000000 1.0
C      1  0.4442170000000  0.5558670000000  0.4521840000000 1.0
C      1  0.4451650000000  0.4920240000000  0.5261140000000 1.0
C      1  0.4242180000000  0.5685620000000  0.4682580000000 1.0
C      1  0.5410570000000  0.4336480000000  0.5770090000000 1.0
C      1  0.5511050000000  0.4784140000000  0.5019300000000 1.0
C      1  0.4811570000000  0.5082240000000  0.4278910000000 1.0
C      1  0.4023080000000  0.5045820000000  0.4773210000000 1.0
C      1  0.4263410000000  0.4877630000000  0.5706560000000 1.0
C      1  0.5204510000000  0.4144620000000  0.5643270000000 1.0
C      1  0.5496490000000  0.4480150000000  0.5548180000000 1.0
C      1  0.4603110000000  0.4511720000000  0.4838880000000 1.0
C      1  0.5005020000000  0.5095390000000  0.5579220000000 1.0
C      1  0.5303950000000  0.5550900000000  0.5906050000000 1.0
C      1  0.5291090000000  0.5117300000000  0.4589870000000 1.0
C      1  0.5186930000000  0.5565100000000  0.4998910000000 1.0
C      1  0.4904050000000  0.4175360000000  0.5667310000000 1.0
C      1  0.5322170000000  0.5599060000000  0.4276720000000 1.0
C      1  0.4686180000000  0.5358320000000  0.4951000000000 1.0
C      1  0.4359720000000  0.5537820000000  0.5565600000000 1.0
C      1  0.4171600000000  0.4876520000000  0.5408510000000 1.0
C      1  0.5002380000000  0.5031160000000  0.5088850000000 1.0
C      1  0.4238400000000  0.5135320000000  0.5792420000000 1.0
C      1  0.4122960000000  0.4593490000000  0.5303210000000 1.0
C      1  0.4683640000000  0.4525650000000  0.5303550000000 1.0
C      1  0.5295180000000  0.4634270000000  0.5147110000000 1.0
C      1  0.4053830000000  0.5135890000000  0.5291870000000 1.0
C      1  0.5333120000000  0.4681930000000  0.5449200000000 1.0
C      1  0.4835730000000  0.4508850000000  0.4637520000000 1.0
C      1  0.4879530000000  0.5966590000000  0.5384120000000 1.0
C      1  0.4276820000000  0.4424260000000  0.4425150000000 1.0
C      1  0.4915090000000  0.4983430000000  0.6036840000000 1.0
C      1  0.5751830000000  0.4453010000000  0.5427410000000 1.0
C      1  0.4693620000000  0.3976890000000  0.4990230000000 1.0
C      1  0.4481600000000  0.4911730000000  0.4603300000000 1.0
C      1  0.4664250000000  0.4102350000000  0.5518930000000 1.0
C      1  0.5038620000000  0.4784460000000  0.5589800000000 1.0
C      1  0.4618560000000  0.5004950000000  0.4071490000000 1.0
C      1  0.4482760000000  0.4798660000000  0.4871150000000 1.0
C      1  0.4254310000000  0.5361650000000  0.5316720000000 1.0
C      1  0.5425500000000  0.4554770000000  0.5948680000000 1.0
C      1  0.4820130000000  0.5892850000000  0.4378970000000 1.0
C      1  0.5586860000000  0.5478900000000  0.4309560000000 1.0
C      1  0.5561140000000  0.4999740000000  0.5195080000000 1.0
C      1  0.5552120000000  0.5596910000000  0.5407260000000 1.0
C      1  0.5497220000000  0.5278630000000  0.4728440000000 1.0
C      1  0.4684660000000  0.5021880000000  0.5890870000000 1.0
C      1  0.4155060000000  0.4465450000000  0.4693500000000 1.0
C      1  0.5605060000000  0.4889700000000  0.5457790000000 1.0
C      1  0.5071550000000  0.5479360000000  0.4180410000000 1.0
C      1  0.5110920000000  0.4787630000000  0.6094100000000 1.0
C      1  0.5125410000000  0.5556230000000  0.4718420000000 1.0
C      1  0.5747070000000  0.4301380000000  0.5176290000000 1.0
C      1  0.4710130000000  0.5754220000000  0.5507960000000 1.0
C      1  0.4809200000000  0.5610820000000  0.4223640000000 1.0
C      1  0.4837530000000  0.4394770000000  0.5849440000000 1.0
C      1  0.5544100000000  0.4988220000000  0.4153840000000 1.0
C      1  0.5023500000000  0.4624550000000  0.5859060000000 1.0
C      1  0.5487830000000  0.4149660000000  0.5172920000000 1.0
C      1  0.5246620000000  0.5784820000000  0.5718390000000 1.0
C      1  0.5270740000000  0.5659010000000  0.5454760000000 1.0
C      1  0.5253720000000  0.4971410000000  0.4104390000000 1.0
C      1  0.5592070000000  0.4285120000000  0.4479050000000 1.0
C      1  0.5656500000000  0.5727140000000  0.5151520000000 1.0
C      1  0.4460210000000  0.4285140000000  0.5607930000000 1.0
C      1  0.5712670000000  0.5371400000000  0.5503400000000 1.0
C      1  0.5333220000000  0.4114490000000  0.5402290000000 1.0
C      1  0.5574170000000  0.4497830000000  0.4270870000000 1.0
C      1  0.5853720000000  0.4720230000000  0.5415530000000 1.0
C      1  0.5031270000000  0.5540200000000  0.5248240000000 1.0
C      1  0.5062850000000  0.5281010000000  0.4660410000000 1.0
C      1  0.4542600000000  0.4769140000000  0.5742380000000 1.0
C      1  0.4721900000000  0.5979550000000  0.4923880000000 1.0
C      1  0.5936020000000  0.4845280000000  0.4411810000000 1.0
C      1  0.4297320000000  0.5679350000000  0.4951950000000 1.0
C      1  0.4561150000000  0.5765070000000  0.5056150000000 1.0
C      1  0.5973530000000  0.4695340000000  0.4933820000000 1.0
C      1  0.5889140000000  0.5434450000000  0.4771470000000 1.0
C      1  0.5333760000000  0.4339480000000  0.4992630000000 1.0
C      1  0.5045290000000  0.5956720000000  0.5616700000000 1.0
C      1  0.5452150000000  0.5887720000000  0.5041230000000 1.0
C      1  0.5252550000000  0.6007600000000  0.4641370000000 1.0
C      1  0.5404870000000  0.4079380000000  0.4398800000000 1.0
C      1  0.5699060000000  0.4760930000000  0.4257360000000 1.0
C      1  0.4362030000000  0.4196820000000  0.5116870000000 1.0
C      1  0.4799780000000  0.3969180000000  0.4733650000000 1.0
C      1  0.5506150000000  0.4723070000000  0.4738230000000 1.0
C      1  0.5290280000000  0.5726580000000  0.4544790000000 1.0
C      1  0.4364760000000  0.4405260000000  0.5340580000000 1.0
C      1  0.5019780000000  0.4719980000000  0.4724390000000 1.0
C      1  0.4816140000000  0.4437740000000  0.5059580000000 1.0
C      1  0.4804460000000  0.5230650000000  0.5721300000000 1.0
C      1  0.4363010000000  0.4623260000000  0.4212860000000 1.0
C      1  0.4433950000000  0.5230460000000  0.4135770000000 1.0
C      1  0.4588930000000  0.4954030000000  0.5053740000000 1.0
C      1  0.5393930000000  0.5375130000000  0.4991770000000 1.0
C      1  0.4964940000000  0.4239800000000  0.4652520000000 1.0
C      1  0.4022080000000  0.5210760000000  0.5014960000000 1.0
C      1  0.5065500000000  0.5185900000000  0.4167110000000 1.0
C      1  0.5133610000000  0.4233710000000  0.4348180000000 1.0
C      1  0.5224990000000  0.6024440000000  0.4952320000000 1.0
C      1  0.5376800000000  0.5209790000000  0.5214430000000 1.0
C      1  0.5068820000000  0.4778920000000  0.5009910000000 1.0
C      1  0.5942890000000  0.5136410000000  0.4371700000000 1.0
C      1  0.4603610000000  0.4713050000000  0.4072090000000 1.0
C      1  0.4895570000000  0.5182370000000  0.4875030000000 1.0
C      1  0.4207160000000  0.5111000000000  0.4289960000000 1.0
C      1  0.4574690000000  0.4028600000000  0.5232530000000 1.0
C      1  0.4557960000000  0.4469550000000  0.5809270000000 1.0
C      1  0.4017630000000  0.4750390000000  0.4803050000000 1.0
C      1  0.6031970000000  0.4814560000000  0.5206090000000 1.0
C      1  0.5628160000000  0.5133100000000  0.5652020000000 1.0
C      1  0.5853350000000  0.5528380000000  0.5048600000000 1.0
C      1  0.4916120000000  0.4284510000000  0.4132740000000 1.0
C      1  0.4759780000000  0.4702160000000  0.5502160000000 1.0
C      1  0.5916880000000  0.5355070000000  0.5279680000000 1.0
C      1  0.4730650000000  0.5935940000000  0.4641110000000 1.0
C      1  0.5141370000000  0.4699280000000  0.4100860000000 1.0
C      1  0.5998710000000  0.5177880000000  0.4660590000000 1.0
C      1  0.4073260000000  0.5211680000000  0.4530170000000 1.0
C      1  0.4355070000000  0.4318850000000  0.4850940000000 1.0
C      1  0.4641300000000  0.5517520000000  0.5639920000000 1.0
C      1  0.5096730000000  0.5212410000000  0.5315720000000 1.0
C      1  0.5821600000000  0.4446140000000  0.4938270000000 1.0
C      1  0.5655090000000  0.5486400000000  0.4598000000000 1.0
C      1  0.5290970000000  0.4483990000000  0.4214650000000 1.0
C      1  0.4961490000000  0.6017920000000  0.5090770000000 1.0
END
