TITL C-4164245-3996-278 17.0251884865587 125000 -17358.9270166019 0 0 117 (C1) n - 1
REM
REM in /home/nfs/bkarasulu/CARBON/AIRSS/Generating-Clusters/ReaxFF-fromJPCA2015/Units_Real/with-SteepDescent/Only-C1/SD-CG/Try1-3A/FIRE-CG
REM
REM
REM
REM
REM
REM ./C.cell (11c1c37f851c82e70ff6c80c92926a4b)
REM
REM compiler GCC version 9.2.1 20190827 (Red Hat 9.2.1-1)
REM options -cpp -mtune=generic -march=x86-64 -g -O0 -fpre-include=/usr/include/finclude/math-vector-fortran.h
REM seed 685656543 -1510615190 1379936134 -710245586 -402308648 1657926443 2057753890 80916127 1636483457 1209758656 389455235 1675219625 -589003373 -2085414895 1808853197 -1330443174 1683292690 -1254731489 -1603118875 654541453 -580049263 217853388 -314009530 800534853 -1213411449 -141914378 -1723174620 -575457657 -1822573650 -149498894 882844407 -73206372 -1686348279
REM
CELL 1.54180   50.00000   50.00000   50.00000   90.00000   90.00000   90.00000
LATT -1
SFAC C  
C      1  0.4984160000000  0.5781520000000  0.5513850000000 1.0
C      1  0.4186070000000  0.5459820000000  0.4945450000000 1.0
C      1  0.5328000000000  0.4199230000000  0.5543300000000 1.0
C      1  0.3953590000000  0.4577260000000  0.4452370000000 1.0
C      1  0.4622210000000  0.5446900000000  0.4343360000000 1.0
C      1  0.5643850000000  0.4379860000000  0.4837150000000 1.0
C      1  0.5346800000000  0.5120790000000  0.4252800000000 1.0
C      1  0.5980110000000  0.4696630000000  0.5209280000000 1.0
C      1  0.5412650000000  0.4291450000000  0.4677050000000 1.0
C      1  0.4181190000000  0.4448450000000  0.4432110000000 1.0
C      1  0.4447630000000  0.5771570000000  0.4828420000000 1.0
C      1  0.5274220000000  0.5534420000000  0.5132410000000 1.0
C      1  0.4558740000000  0.5548150000000  0.5620090000000 1.0
C      1  0.5006910000000  0.4929560000000  0.4909290000000 1.0
C      1  0.5095610000000  0.5124850000000  0.5103470000000 1.0
C      1  0.5973500000000  0.5059960000000  0.4905490000000 1.0
C      1  0.5041560000000  0.4721490000000  0.5311600000000 1.0
C      1  0.5568430000000  0.4211800000000  0.5374400000000 1.0
C      1  0.4957990000000  0.4779540000000  0.4178690000000 1.0
C      1  0.4402440000000  0.4298340000000  0.5330480000000 1.0
C      1  0.5742900000000  0.4626560000000  0.4721690000000 1.0
C      1  0.4207900000000  0.4408040000000  0.5166880000000 1.0
C      1  0.4564000000000  0.4149170000000  0.4662850000000 1.0
C      1  0.4477260000000  0.4833240000000  0.4283610000000 1.0
C      1  0.4416490000000  0.4555630000000  0.4267450000000 1.0
C      1  0.4655600000000  0.5836110000000  0.4619130000000 1.0
C      1  0.4209660000000  0.5189480000000  0.4563450000000 1.0
C      1  0.5978660000000  0.4935080000000  0.5346550000000 1.0
C      1  0.4956820000000  0.5889050000000  0.5031310000000 1.0
C      1  0.3995510000000  0.5050970000000  0.5311520000000 1.0
C      1  0.5417540000000  0.5124310000000  0.4856900000000 1.0
C      1  0.5461500000000  0.5344480000000  0.5641200000000 1.0
C      1  0.4701880000000  0.5403470000000  0.5154190000000 1.0
C      1  0.4798440000000  0.4376090000000  0.5670400000000 1.0
C      1  0.5919810000000  0.5437950000000  0.4538370000000 1.0
C      1  0.5036840000000  0.5089810000000  0.5869040000000 1.0
C      1  0.5682030000000  0.5278310000000  0.4447990000000 1.0
C      1  0.5497370000000  0.5801710000000  0.5366910000000 1.0
C      1  0.4647070000000  0.5288690000000  0.4872820000000 1.0
C      1  0.5313070000000  0.5128540000000  0.5783170000000 1.0
C      1  0.4897730000000  0.5238140000000  0.5278290000000 1.0
C      1  0.4850210000000  0.5312670000000  0.5890920000000 1.0
C      1  0.5538490000000  0.4482470000000  0.5305820000000 1.0
C      1  0.5790200000000  0.5635250000000  0.4729750000000 1.0
C      1  0.5402560000000  0.4646030000000  0.4346880000000 1.0
C      1  0.4477730000000  0.5091320000000  0.5582140000000 1.0
C      1  0.5306360000000  0.4380080000000  0.4431000000000 1.0
C      1  0.5635160000000  0.4750230000000  0.4470480000000 1.0
C      1  0.5359610000000  0.5949090000000  0.5154710000000 1.0
C      1  0.5156040000000  0.4270590000000  0.5042470000000 1.0
C      1  0.4998280000000  0.5203620000000  0.4445490000000 1.0
C      1  0.4395350000000  0.5505140000000  0.4746970000000 1.0
C      1  0.4701750000000  0.4259150000000  0.4897730000000 1.0
C      1  0.5205950000000  0.5377200000000  0.4324730000000 1.0
C      1  0.4502930000000  0.5527990000000  0.5326920000000 1.0
C      1  0.5430820000000  0.5000550000000  0.5280620000000 1.0
C      1  0.5798080000000  0.4804520000000  0.4948420000000 1.0
C      1  0.4753190000000  0.4199330000000  0.4438900000000 1.0
C      1  0.5062020000000  0.4286390000000  0.5627010000000 1.0
C      1  0.4651730000000  0.4385520000000  0.4237550000000 1.0
C      1  0.5605610000000  0.5010020000000  0.4331220000000 1.0
C      1  0.5601970000000  0.5209500000000  0.5421450000000 1.0
C      1  0.5173500000000  0.5715280000000  0.5729970000000 1.0
C      1  0.4710370000000  0.4646430000000  0.5760720000000 1.0
C      1  0.4538030000000  0.4990270000000  0.4787680000000 1.0
C      1  0.5469240000000  0.4856050000000  0.5018880000000 1.0
C      1  0.4277380000000  0.4726370000000  0.5135480000000 1.0
C      1  0.5421270000000  0.5633460000000  0.5610670000000 1.0
C      1  0.5276420000000  0.5793800000000  0.4632440000000 1.0
C      1  0.4488570000000  0.4717450000000  0.5359510000000 1.0
C      1  0.5137160000000  0.4731810000000  0.5597450000000 1.0
C      1  0.5039660000000  0.5689480000000  0.5236610000000 1.0
C      1  0.4233660000000  0.5453640000000  0.5239290000000 1.0
C      1  0.4504050000000  0.4748490000000  0.4942190000000 1.0
C      1  0.5237120000000  0.4657690000000  0.5099780000000 1.0
C      1  0.5893800000000  0.5201900000000  0.5370140000000 1.0
C      1  0.5559530000000  0.5579610000000  0.5180850000000 1.0
C      1  0.4916870000000  0.4746570000000  0.4808920000000 1.0
C      1  0.4615690000000  0.4200970000000  0.5489480000000 1.0
C      1  0.5277790000000  0.4429700000000  0.5217610000000 1.0
C      1  0.4248130000000  0.4302220000000  0.4912840000000 1.0
C      1  0.4697880000000  0.5920700000000  0.4888550000000 1.0
C      1  0.5230000000000  0.5313310000000  0.4950510000000 1.0
C      1  0.5098890000000  0.5616210000000  0.4455620000000 1.0
C      1  0.4907480000000  0.4506160000000  0.4219160000000 1.0
C      1  0.4902680000000  0.4112480000000  0.5061980000000 1.0
C      1  0.4949770000000  0.4811060000000  0.5805260000000 1.0
C      1  0.4485220000000  0.4786400000000  0.5638670000000 1.0
C      1  0.4220700000000  0.5223430000000  0.5412530000000 1.0
C      1  0.4850700000000  0.5261610000000  0.4675300000000 1.0
C      1  0.5678900000000  0.4308580000000  0.5117990000000 1.0
C      1  0.4772570000000  0.5213610000000  0.4279750000000 1.0
C      1  0.4088530000000  0.4969930000000  0.5038880000000 1.0
C      1  0.4786630000000  0.4022100000000  0.5320970000000 1.0
C      1  0.4590600000000  0.5304230000000  0.5763950000000 1.0
C      1  0.6017720000000  0.5221420000000  0.4683300000000 1.0
C      1  0.5534500000000  0.4791130000000  0.5456420000000 1.0
C      1  0.4946680000000  0.5590970000000  0.5881210000000 1.0
C      1  0.4768270000000  0.5710620000000  0.5693340000000 1.0
C      1  0.5185260000000  0.4241390000000  0.4787030000000 1.0
C      1  0.4805010000000  0.5651360000000  0.4446490000000 1.0
C      1  0.4116200000000  0.5192540000000  0.4846110000000 1.0
C      1  0.5391210000000  0.4854920000000  0.5695020000000 1.0
C      1  0.5528620000000  0.5721400000000  0.4677020000000 1.0
C      1  0.4707510000000  0.4551430000000  0.4865100000000 1.0
C      1  0.5216540000000  0.5944780000000  0.4903600000000 1.0
C      1  0.5796690000000  0.5533590000000  0.5007340000000 1.0
C      1  0.4382250000000  0.4955680000000  0.4541780000000 1.0
C      1  0.5512950000000  0.5245580000000  0.4671730000000 1.0
C      1  0.4725250000000  0.5050620000000  0.5402940000000 1.0
C      1  0.4726210000000  0.4950800000000  0.4186990000000 1.0
C      1  0.5947120000000  0.5296850000000  0.5091270000000 1.0
C      1  0.4280300000000  0.4235510000000  0.4657750000000 1.0
C      1  0.5231450000000  0.4855640000000  0.4233590000000 1.0
C      1  0.4757260000000  0.4798670000000  0.5281720000000 1.0
C      1  0.4361420000000  0.5415140000000  0.4463910000000 1.0
C      1  0.5015040000000  0.4345850000000  0.4430750000000 1.0
END
