TITL C-4164237-1827-691 9.16349367622368 125000 -24494.4155763775 0 0 162 (C1) n - 1
REM
REM in /home/nfs/bkarasulu/CARBON/AIRSS/Generating-Clusters/ReaxFF-fromJPCA2015/Units_Real/with-SteepDescent/Only-C1/SD-CG/Try1-3A/FIRE-CG
REM
REM
REM
REM
REM
REM ./C.cell (11c1c37f851c82e70ff6c80c92926a4b)
REM
REM compiler GCC version 9.2.1 20190827 (Red Hat 9.2.1-1)
REM options -cpp -mtune=generic -march=x86-64 -g -O0 -fpre-include=/usr/include/finclude/math-vector-fortran.h
REM seed -178659262 283445025 698182155 277638187 -1394009224 1398757270 -1703274869 -1879333930 1580636205 -1100932631 -581228541 1162912822 1813135608 -381201328 -1557195700 -1652176884 -152227697 -1429690043 -1373860002 1622868813 -515591298 1680080819 1805786087 279409763 -97587307 -1602560230 629234646 1901812589 38687708 -416403525 -1489366624 -1548049482 1291494864
REM
CELL 1.54180   50.00000   50.00000   50.00000   90.00000   90.00000   90.00000
LATT -1
SFAC C  
C      1  0.5410530000000  0.5397860000000  0.4023460000000 1.0
C      1  0.4195660000000  0.4463600000000  0.4970490000000 1.0
C      1  0.5420810000000  0.5832540000000  0.4880160000000 1.0
C      1  0.6028030000000  0.5019010000000  0.4574280000000 1.0
C      1  0.5190620000000  0.5918450000000  0.5549370000000 1.0
C      1  0.5190660000000  0.5616600000000  0.5643420000000 1.0
C      1  0.5647880000000  0.4654380000000  0.4237510000000 1.0
C      1  0.4994730000000  0.5267180000000  0.4830430000000 1.0
C      1  0.4565240000000  0.5224660000000  0.5960070000000 1.0
C      1  0.4739210000000  0.4205250000000  0.5561890000000 1.0
C      1  0.5503180000000  0.4172020000000  0.5439190000000 1.0
C      1  0.5915500000000  0.4286540000000  0.4872170000000 1.0
C      1  0.5236880000000  0.5539510000000  0.5345980000000 1.0
C      1  0.4289840000000  0.5181880000000  0.5869250000000 1.0
C      1  0.5032620000000  0.5538390000000  0.4896280000000 1.0
C      1  0.5929340000000  0.4503430000000  0.4671510000000 1.0
C      1  0.4280590000000  0.4885670000000  0.5812830000000 1.0
C      1  0.4946260000000  0.4670090000000  0.5449180000000 1.0
C      1  0.5712380000000  0.5197080000000  0.5558940000000 1.0
C      1  0.5297130000000  0.5097090000000  0.5313260000000 1.0
C      1  0.4541530000000  0.4084750000000  0.5409480000000 1.0
C      1  0.3946590000000  0.5242360000000  0.4501020000000 1.0
C      1  0.5153040000000  0.4259550000000  0.4452820000000 1.0
C      1  0.4120630000000  0.5496310000000  0.5204330000000 1.0
C      1  0.5056140000000  0.4827950000000  0.4805520000000 1.0
C      1  0.4691910000000  0.4472640000000  0.5413610000000 1.0
C      1  0.4342580000000  0.5119230000000  0.4896160000000 1.0
C      1  0.5682990000000  0.4178610000000  0.5208570000000 1.0
C      1  0.5689900000000  0.4945560000000  0.4228880000000 1.0
C      1  0.4675120000000  0.4232250000000  0.4535700000000 1.0
C      1  0.4821820000000  0.4585920000000  0.4902560000000 1.0
C      1  0.5356480000000  0.5547940000000  0.4803040000000 1.0
C      1  0.5388860000000  0.4795630000000  0.5182740000000 1.0
C      1  0.4410010000000  0.5513540000000  0.5632910000000 1.0
C      1  0.5184620000000  0.4374850000000  0.5061810000000 1.0
C      1  0.5733950000000  0.5682460000000  0.5494830000000 1.0
C      1  0.3969620000000  0.4652580000000  0.5466490000000 1.0
C      1  0.4947330000000  0.4867870000000  0.5969360000000 1.0
C      1  0.4553470000000  0.5982490000000  0.4705570000000 1.0
C      1  0.5472890000000  0.4108730000000  0.4713350000000 1.0
C      1  0.5350240000000  0.4857030000000  0.5689550000000 1.0
C      1  0.4391570000000  0.5909240000000  0.4945260000000 1.0
C      1  0.6013830000000  0.4612160000000  0.5252710000000 1.0
C      1  0.5416410000000  0.4404690000000  0.5893790000000 1.0
C      1  0.4526430000000  0.4981850000000  0.5073790000000 1.0
C      1  0.5008770000000  0.5587670000000  0.5184010000000 1.0
C      1  0.5680280000000  0.5825190000000  0.5009400000000 1.0
C      1  0.5217190000000  0.4102020000000  0.5425670000000 1.0
C      1  0.4334750000000  0.4053480000000  0.5216310000000 1.0
C      1  0.4837830000000  0.4099480000000  0.5040180000000 1.0
C      1  0.5113330000000  0.4107300000000  0.5148510000000 1.0
C      1  0.5600880000000  0.4306400000000  0.5683640000000 1.0
C      1  0.4337680000000  0.4636950000000  0.4298020000000 1.0
C      1  0.5188600000000  0.5220050000000  0.3953680000000 1.0
C      1  0.5358470000000  0.5985890000000  0.5318590000000 1.0
C      1  0.4728300000000  0.4841660000000  0.4437060000000 1.0
C      1  0.5813700000000  0.5418250000000  0.5395990000000 1.0
C      1  0.4846740000000  0.5373690000000  0.5275190000000 1.0
C      1  0.5064030000000  0.5129930000000  0.5928760000000 1.0
C      1  0.5074760000000  0.4690130000000  0.5740840000000 1.0
C      1  0.4569630000000  0.5026360000000  0.4064950000000 1.0
C      1  0.4619200000000  0.4792790000000  0.4919460000000 1.0
C      1  0.4883820000000  0.5186580000000  0.5699460000000 1.0
C      1  0.4702030000000  0.5278740000000  0.4010910000000 1.0
C      1  0.5844130000000  0.5369080000000  0.5095450000000 1.0
C      1  0.4706400000000  0.4504710000000  0.4654070000000 1.0
C      1  0.4396110000000  0.5782350000000  0.4541370000000 1.0
C      1  0.5282450000000  0.4349970000000  0.4747680000000 1.0
C      1  0.5802990000000  0.5525490000000  0.4646650000000 1.0
C      1  0.4889270000000  0.4570190000000  0.4156630000000 1.0
C      1  0.5214050000000  0.4961750000000  0.4107420000000 1.0
C      1  0.5031980000000  0.4189310000000  0.5634920000000 1.0
C      1  0.4431880000000  0.4030020000000  0.4924690000000 1.0
C      1  0.5187920000000  0.5730640000000  0.4289020000000 1.0
C      1  0.5541020000000  0.4078980000000  0.4423370000000 1.0
C      1  0.4518050000000  0.5847120000000  0.5198440000000 1.0
C      1  0.5437410000000  0.5543410000000  0.4289130000000 1.0
C      1  0.5361620000000  0.4255290000000  0.4249640000000 1.0
C      1  0.5403440000000  0.5331610000000  0.5229860000000 1.0
C      1  0.5928840000000  0.4345230000000  0.5160830000000 1.0
C      1  0.3918760000000  0.4893100000000  0.5401420000000 1.0
C      1  0.4403210000000  0.5580280000000  0.5330560000000 1.0
C      1  0.5958270000000  0.4680820000000  0.5537600000000 1.0
C      1  0.4444130000000  0.5244440000000  0.4654210000000 1.0
C      1  0.4910590000000  0.4343560000000  0.4326540000000 1.0
C      1  0.5597510000000  0.4643570000000  0.5944040000000 1.0
C      1  0.4096670000000  0.4426000000000  0.4572750000000 1.0
C      1  0.3962440000000  0.5063690000000  0.5201240000000 1.0
C      1  0.6037730000000  0.4828940000000  0.5038810000000 1.0
C      1  0.4476620000000  0.5427060000000  0.4129830000000 1.0
C      1  0.4190310000000  0.5341250000000  0.5641840000000 1.0
C      1  0.4841440000000  0.6011760000000  0.4735030000000 1.0
C      1  0.5601340000000  0.5569200000000  0.5720970000000 1.0
C      1  0.4078380000000  0.5511970000000  0.4922770000000 1.0
C      1  0.4229700000000  0.5718080000000  0.4781760000000 1.0
C      1  0.4779210000000  0.5942110000000  0.5246250000000 1.0
C      1  0.6026860000000  0.4766190000000  0.4753210000000 1.0
C      1  0.4024290000000  0.5291130000000  0.5378980000000 1.0
C      1  0.4982950000000  0.5232000000000  0.4540430000000 1.0
C      1  0.4901670000000  0.5893250000000  0.5522420000000 1.0
C      1  0.5417970000000  0.5005160000000  0.4311550000000 1.0
C      1  0.4998500000000  0.5112240000000  0.5266450000000 1.0
C      1  0.4380110000000  0.4850950000000  0.5540200000000 1.0
C      1  0.4899350000000  0.5662550000000  0.5699700000000 1.0
C      1  0.5835430000000  0.4947130000000  0.5454720000000 1.0
C      1  0.4067650000000  0.5011120000000  0.4917020000000 1.0
C      1  0.4232970000000  0.4384300000000  0.4346780000000 1.0
C      1  0.4948100000000  0.6014990000000  0.5006210000000 1.0
C      1  0.5423270000000  0.5105370000000  0.5563550000000 1.0
C      1  0.4956670000000  0.5808640000000  0.4490730000000 1.0
C      1  0.4450720000000  0.4323520000000  0.4931240000000 1.0
C      1  0.5393380000000  0.5451830000000  0.5864480000000 1.0
C      1  0.5685540000000  0.4545490000000  0.4510730000000 1.0
C      1  0.5417630000000  0.5165280000000  0.4544730000000 1.0
C      1  0.5459140000000  0.4580570000000  0.4693840000000 1.0
C      1  0.4339550000000  0.5171030000000  0.4172720000000 1.0
C      1  0.5857430000000  0.5609940000000  0.4905680000000 1.0
C      1  0.4702370000000  0.4370070000000  0.5092190000000 1.0
C      1  0.4267980000000  0.4799360000000  0.4536770000000 1.0
C      1  0.5156330000000  0.4592090000000  0.5246400000000 1.0
C      1  0.4511050000000  0.5670250000000  0.4296010000000 1.0
C      1  0.4630870000000  0.4755670000000  0.4182150000000 1.0
C      1  0.5848060000000  0.5146500000000  0.4373690000000 1.0
C      1  0.4562550000000  0.5047060000000  0.5363190000000 1.0
C      1  0.5240440000000  0.5990480000000  0.5045920000000 1.0
C      1  0.4686060000000  0.5426460000000  0.5756260000000 1.0
C      1  0.4777400000000  0.5779220000000  0.4257760000000 1.0
C      1  0.5507770000000  0.4930950000000  0.5918610000000 1.0
C      1  0.5138010000000  0.4400000000000  0.5807170000000 1.0
C      1  0.4981680000000  0.5052260000000  0.4980100000000 1.0
C      1  0.4839840000000  0.4983640000000  0.5476880000000 1.0
C      1  0.5744690000000  0.5419990000000  0.4410360000000 1.0
C      1  0.5500820000000  0.5091800000000  0.4795560000000 1.0
C      1  0.4693830000000  0.4026990000000  0.4800490000000 1.0
C      1  0.4585190000000  0.5339710000000  0.5291870000000 1.0
C      1  0.4146410000000  0.4432940000000  0.5451900000000 1.0
C      1  0.5296030000000  0.5406560000000  0.4536610000000 1.0
C      1  0.4242270000000  0.5121000000000  0.4451880000000 1.0
C      1  0.5686160000000  0.4102180000000  0.4919830000000 1.0
C      1  0.4950670000000  0.5388720000000  0.3983210000000 1.0
C      1  0.5626390000000  0.5874970000000  0.5292320000000 1.0
C      1  0.4978090000000  0.4935380000000  0.4540160000000 1.0
C      1  0.4145980000000  0.4281580000000  0.5200900000000 1.0
C      1  0.6043010000000  0.5123910000000  0.5065200000000 1.0
C      1  0.4985780000000  0.5649870000000  0.4107040000000 1.0
C      1  0.4669990000000  0.4949790000000  0.6029870000000 1.0
C      1  0.5385620000000  0.4822400000000  0.4848300000000 1.0
C      1  0.6070440000000  0.5177760000000  0.4798500000000 1.0
C      1  0.5151760000000  0.4676710000000  0.4080380000000 1.0
C      1  0.5649410000000  0.4803300000000  0.5302340000000 1.0
C      1  0.4445210000000  0.4746410000000  0.6023600000000 1.0
C      1  0.4414060000000  0.4245020000000  0.4407280000000 1.0
C      1  0.4831260000000  0.5608750000000  0.4677940000000 1.0
C      1  0.5781760000000  0.4537330000000  0.5729250000000 1.0
C      1  0.4552660000000  0.4753680000000  0.4640060000000 1.0
C      1  0.5350010000000  0.5186090000000  0.5969460000000 1.0
C      1  0.4409240000000  0.4574100000000  0.5482230000000 1.0
C      1  0.4094080000000  0.4652190000000  0.4747740000000 1.0
C      1  0.5402910000000  0.4527240000000  0.4139230000000 1.0
C      1  0.4697570000000  0.5372270000000  0.4583100000000 1.0
C      1  0.3955560000000  0.5257810000000  0.4786550000000 1.0
C      1  0.5514670000000  0.5325870000000  0.4969430000000 1.0
END
