TITL C-4164236-1577-453 18.6201842698658 125000 -20563.9601923315 0 0 138 (C1) n - 1
REM
REM in /home/nfs/bkarasulu/CARBON/AIRSS/Generating-Clusters/ReaxFF-fromJPCA2015/Units_Real/with-SteepDescent/Only-C1/SD-CG/Try1-3A/FIRE-CG
REM
REM
REM
REM
REM
REM ./C.cell (11c1c37f851c82e70ff6c80c92926a4b)
REM
REM compiler GCC version 9.2.1 20190827 (Red Hat 9.2.1-1)
REM options -cpp -mtune=generic -march=x86-64 -g -O0 -fpre-include=/usr/include/finclude/math-vector-fortran.h
REM seed 2106697101 869330953 -937988931 -232740171 1608608434 -1093035025 496438546 -957998376 1746811717 1679553231 1004511922 547124571 -260908591 -1066754748 1145454678 2033487681 1108883097 -162725430 -99326915 1296003496 -982933278 -328383558 -972856622 -905695364 2130212861 -600855240 1494959520 2035356733 -1574410432 354348910 1455588737 -777343231 -1508754467
REM
CELL 1.54180   50.00000   50.00000   50.00000   90.00000   90.00000   90.00000
LATT -1
SFAC C  
C      1  0.4715570000000  0.4696530000000  0.5240230000000 1.0
C      1  0.4052030000000  0.4950200000000  0.4567750000000 1.0
C      1  0.5242530000000  0.5289850000000  0.5302780000000 1.0
C      1  0.4117700000000  0.5177680000000  0.4383430000000 1.0
C      1  0.4313590000000  0.4185390000000  0.5143820000000 1.0
C      1  0.4960500000000  0.4831620000000  0.5187890000000 1.0
C      1  0.4092450000000  0.4949910000000  0.4864230000000 1.0
C      1  0.5061360000000  0.5770720000000  0.4945690000000 1.0
C      1  0.4891760000000  0.4350390000000  0.4482640000000 1.0
C      1  0.5604700000000  0.4312160000000  0.5403000000000 1.0
C      1  0.4372100000000  0.4523630000000  0.4428660000000 1.0
C      1  0.5870490000000  0.5214150000000  0.5435720000000 1.0
C      1  0.5547810000000  0.5670410000000  0.4466020000000 1.0
C      1  0.5130660000000  0.5931170000000  0.5164470000000 1.0
C      1  0.5494320000000  0.4757990000000  0.4212680000000 1.0
C      1  0.5152870000000  0.5763920000000  0.5652000000000 1.0
C      1  0.5553670000000  0.5061080000000  0.4191540000000 1.0
C      1  0.5320720000000  0.5225080000000  0.4183000000000 1.0
C      1  0.5738280000000  0.5435670000000  0.5306390000000 1.0
C      1  0.5332210000000  0.4744760000000  0.4462780000000 1.0
C      1  0.5283920000000  0.4097360000000  0.5046890000000 1.0
C      1  0.4857810000000  0.6047690000000  0.5260120000000 1.0
C      1  0.6099810000000  0.4822330000000  0.4867560000000 1.0
C      1  0.4802090000000  0.4215190000000  0.5141590000000 1.0
C      1  0.4751700000000  0.5260240000000  0.5443690000000 1.0
C      1  0.5340460000000  0.4641150000000  0.3954150000000 1.0
C      1  0.4545450000000  0.5208650000000  0.5264450000000 1.0
C      1  0.5065120000000  0.4586200000000  0.3980710000000 1.0
C      1  0.5035230000000  0.5138450000000  0.4231010000000 1.0
C      1  0.4916590000000  0.5136250000000  0.4498540000000 1.0
C      1  0.4824900000000  0.4624070000000  0.4168670000000 1.0
C      1  0.5152670000000  0.4248620000000  0.4557350000000 1.0
C      1  0.4834460000000  0.4412710000000  0.5592040000000 1.0
C      1  0.5350850000000  0.4620670000000  0.5770960000000 1.0
C      1  0.4090980000000  0.5183510000000  0.5032000000000 1.0
C      1  0.4439660000000  0.4775380000000  0.5189750000000 1.0
C      1  0.5360570000000  0.4489880000000  0.4599710000000 1.0
C      1  0.5413200000000  0.5889690000000  0.5203300000000 1.0
C      1  0.4494460000000  0.5247870000000  0.4784060000000 1.0
C      1  0.4787250000000  0.4711190000000  0.5569280000000 1.0
C      1  0.4183700000000  0.4423740000000  0.5167400000000 1.0
C      1  0.5342440000000  0.4974460000000  0.4629970000000 1.0
C      1  0.4671880000000  0.6041470000000  0.5043240000000 1.0
C      1  0.4018200000000  0.5553580000000  0.4677950000000 1.0
C      1  0.5580870000000  0.5263000000000  0.4910900000000 1.0
C      1  0.4919290000000  0.5028660000000  0.5003140000000 1.0
C      1  0.5211820000000  0.4702510000000  0.5294130000000 1.0
C      1  0.4225750000000  0.5170100000000  0.5307660000000 1.0
C      1  0.4167070000000  0.5468040000000  0.4454740000000 1.0
C      1  0.5550140000000  0.4181860000000  0.5137000000000 1.0
C      1  0.5691260000000  0.5511160000000  0.5027560000000 1.0
C      1  0.4842620000000  0.5132830000000  0.5901350000000 1.0
C      1  0.5809740000000  0.4733700000000  0.5580070000000 1.0
C      1  0.4522990000000  0.5412930000000  0.4260430000000 1.0
C      1  0.5741960000000  0.4588540000000  0.4314820000000 1.0
C      1  0.4973740000000  0.4342870000000  0.5838210000000 1.0
C      1  0.4692360000000  0.5493560000000  0.5632090000000 1.0
C      1  0.4495670000000  0.5497050000000  0.4537330000000 1.0
C      1  0.5379170000000  0.5766340000000  0.5462830000000 1.0
C      1  0.5006420000000  0.5347690000000  0.4701040000000 1.0
C      1  0.4558550000000  0.5032120000000  0.4090870000000 1.0
C      1  0.4211220000000  0.4768390000000  0.4397410000000 1.0
C      1  0.4881380000000  0.5845090000000  0.4523110000000 1.0
C      1  0.4982220000000  0.5434100000000  0.5251740000000 1.0
C      1  0.4577480000000  0.4271660000000  0.5549830000000 1.0
C      1  0.5350950000000  0.4849560000000  0.5567610000000 1.0
C      1  0.4243420000000  0.5442550000000  0.5419860000000 1.0
C      1  0.4751310000000  0.5497330000000  0.4122480000000 1.0
C      1  0.4984580000000  0.4596390000000  0.4852230000000 1.0
C      1  0.5270270000000  0.4617150000000  0.4852490000000 1.0
C      1  0.4748730000000  0.4902560000000  0.4560740000000 1.0
C      1  0.4665660000000  0.4190990000000  0.4610200000000 1.0
C      1  0.4189070000000  0.4900430000000  0.5489010000000 1.0
C      1  0.4501390000000  0.4962910000000  0.4704990000000 1.0
C      1  0.5634040000000  0.4508340000000  0.5608310000000 1.0
C      1  0.5109680000000  0.5506660000000  0.4468930000000 1.0
C      1  0.5124410000000  0.5855710000000  0.4697090000000 1.0
C      1  0.4744150000000  0.5883670000000  0.5473720000000 1.0
C      1  0.4613740000000  0.4665570000000  0.5818150000000 1.0
C      1  0.5981360000000  0.4716550000000  0.4414320000000 1.0
C      1  0.4352930000000  0.4819510000000  0.4918190000000 1.0
C      1  0.5732680000000  0.4372820000000  0.5003420000000 1.0
C      1  0.5924980000000  0.4926210000000  0.5382850000000 1.0
C      1  0.5684190000000  0.4654710000000  0.5077950000000 1.0
C      1  0.5412270000000  0.4777920000000  0.5057510000000 1.0
C      1  0.4932830000000  0.5663890000000  0.4297750000000 1.0
C      1  0.4858610000000  0.4035130000000  0.4743280000000 1.0
C      1  0.5415770000000  0.5801070000000  0.4701880000000 1.0
C      1  0.4557880000000  0.4147980000000  0.5283440000000 1.0
C      1  0.4515850000000  0.4982170000000  0.5942150000000 1.0
C      1  0.4256180000000  0.4327190000000  0.4903370000000 1.0
C      1  0.5622440000000  0.4919910000000  0.5639840000000 1.0
C      1  0.5151100000000  0.5113500000000  0.4837780000000 1.0
C      1  0.4512980000000  0.5732610000000  0.5541260000000 1.0
C      1  0.5738870000000  0.5148740000000  0.4395610000000 1.0
C      1  0.4301150000000  0.5006740000000  0.4234110000000 1.0
C      1  0.5853000000000  0.4384510000000  0.4730560000000 1.0
C      1  0.5141340000000  0.4056350000000  0.4776680000000 1.0
C      1  0.4801010000000  0.5205730000000  0.4060840000000 1.0
C      1  0.4617260000000  0.4757690000000  0.4046180000000 1.0
C      1  0.5108870000000  0.5028040000000  0.5995830000000 1.0
C      1  0.4277790000000  0.4621240000000  0.5380590000000 1.0
C      1  0.4633260000000  0.5746270000000  0.4640000000000 1.0
C      1  0.4886590000000  0.4585800000000  0.5967930000000 1.0
C      1  0.5499090000000  0.5349230000000  0.5745970000000 1.0
C      1  0.4433660000000  0.4501660000000  0.5641730000000 1.0
C      1  0.5997390000000  0.5013860000000  0.4438120000000 1.0
C      1  0.5260830000000  0.5213840000000  0.5827040000000 1.0
C      1  0.4325460000000  0.4956220000000  0.5712230000000 1.0
C      1  0.4216980000000  0.5420940000000  0.4908500000000 1.0
C      1  0.5719470000000  0.5177120000000  0.5684720000000 1.0
C      1  0.5923370000000  0.4817160000000  0.5111490000000 1.0
C      1  0.4549720000000  0.4530430000000  0.4192590000000 1.0
C      1  0.5479030000000  0.5478020000000  0.5464700000000 1.0
C      1  0.4886240000000  0.4636520000000  0.4573580000000 1.0
C      1  0.5362230000000  0.5488770000000  0.4316790000000 1.0
C      1  0.4877330000000  0.5043220000000  0.5605850000000 1.0
C      1  0.4914520000000  0.5538410000000  0.4977700000000 1.0
C      1  0.4300160000000  0.5705030000000  0.5336290000000 1.0
C      1  0.4412170000000  0.4345950000000  0.4655760000000 1.0
C      1  0.5540020000000  0.5757610000000  0.4970450000000 1.0
C      1  0.4622640000000  0.5743720000000  0.4937700000000 1.0
C      1  0.4672340000000  0.5187280000000  0.5014910000000 1.0
C      1  0.5565410000000  0.5153060000000  0.4639230000000 1.0
C      1  0.6042590000000  0.4603990000000  0.4677110000000 1.0
C      1  0.4842040000000  0.5436910000000  0.5897530000000 1.0
C      1  0.5057480000000  0.5607370000000  0.5863140000000 1.0
C      1  0.5172230000000  0.5096790000000  0.5559340000000 1.0
C      1  0.4801140000000  0.4482800000000  0.5045160000000 1.0
C      1  0.5129820000000  0.4738880000000  0.5967620000000 1.0
C      1  0.6138450000000  0.5067400000000  0.4698090000000 1.0
C      1  0.4912800000000  0.5651810000000  0.5490770000000 1.0
C      1  0.5187310000000  0.4413780000000  0.5391820000000 1.0
C      1  0.5661870000000  0.4412380000000  0.4518400000000 1.0
C      1  0.5087630000000  0.4186910000000  0.5234550000000 1.0
C      1  0.4361420000000  0.5639510000000  0.5057520000000 1.0
C      1  0.5223830000000  0.4371020000000  0.5678050000000 1.0
C      1  0.5370240000000  0.5135480000000  0.5071020000000 1.0
END
