TITL C-4164238-4211-289 63.8846965174924 125000 -29492.4050466468 0 0 194 (C1) n - 1
REM
REM in /home/nfs/bkarasulu/CARBON/AIRSS/Generating-Clusters/ReaxFF-fromJPCA2015/Units_Real/with-SteepDescent/Only-C1/SD-CG/Try1-3A/FIRE-CG
REM
REM
REM
REM
REM
REM ./C.cell (11c1c37f851c82e70ff6c80c92926a4b)
REM
REM compiler GCC version 9.2.1 20190827 (Red Hat 9.2.1-1)
REM options -cpp -mtune=generic -march=x86-64 -g -O0 -fpre-include=/usr/include/finclude/math-vector-fortran.h
REM seed -173419060 1947750877 1917250778 -1429016475 1484116748 -1162802852 1375319452 2112304946 -1747926027 545431958 -1758061273 529127953 -1109710795 464420150 -936847396 236217783 373236068 1326085493 -2140128117 -1677817641 1379113111 1928149865 1553322815 967811044 355729728 149371389 213052581 70477644 673496398 927395804 619841200 2112359200 53773557
REM
CELL 1.54180   50.00000   50.00000   50.00000   90.00000   90.00000   90.00000
LATT -1
SFAC C  
C      1  0.4306100000000  0.5447470000000  0.4729200000000 1.0
C      1  0.4336190000000  0.3947280000000  0.5373050000000 1.0
C      1  0.5690170000000  0.5617290000000  0.5416660000000 1.0
C      1  0.5455290000000  0.5089300000000  0.3852770000000 1.0
C      1  0.5083870000000  0.5380070000000  0.6139060000000 1.0
C      1  0.4423400000000  0.6102790000000  0.4884420000000 1.0
C      1  0.5108830000000  0.4908200000000  0.6035960000000 1.0
C      1  0.5328210000000  0.4303690000000  0.5746190000000 1.0
C      1  0.5433640000000  0.4550030000000  0.5861820000000 1.0
C      1  0.3999320000000  0.4637680000000  0.5431540000000 1.0
C      1  0.4643870000000  0.3919080000000  0.4908610000000 1.0
C      1  0.3935920000000  0.4858820000000  0.4972160000000 1.0
C      1  0.4062640000000  0.5640590000000  0.5416610000000 1.0
C      1  0.5844490000000  0.5145560000000  0.4727680000000 1.0
C      1  0.5437380000000  0.4819570000000  0.3906510000000 1.0
C      1  0.4843820000000  0.5698350000000  0.4126590000000 1.0
C      1  0.5236590000000  0.4097690000000  0.4376700000000 1.0
C      1  0.5006310000000  0.4291320000000  0.4086190000000 1.0
C      1  0.5684420000000  0.5194110000000  0.5164000000000 1.0
C      1  0.5670630000000  0.5913790000000  0.4960350000000 1.0
C      1  0.4856470000000  0.4533400000000  0.4803710000000 1.0
C      1  0.4649990000000  0.5132160000000  0.5939540000000 1.0
C      1  0.4174940000000  0.4146210000000  0.5476970000000 1.0
C      1  0.4451710000000  0.5589750000000  0.5809650000000 1.0
C      1  0.5035670000000  0.5035600000000  0.4283370000000 1.0
C      1  0.4351040000000  0.4212800000000  0.5702130000000 1.0
C      1  0.4580230000000  0.6029830000000  0.5338420000000 1.0
C      1  0.5477430000000  0.5058290000000  0.5784560000000 1.0
C      1  0.3835440000000  0.5387030000000  0.4858970000000 1.0
C      1  0.5685300000000  0.4276150000000  0.4284930000000 1.0
C      1  0.5172480000000  0.4686210000000  0.5845490000000 1.0
C      1  0.5434340000000  0.5659870000000  0.4190920000000 1.0
C      1  0.4642430000000  0.4761170000000  0.3973990000000 1.0
C      1  0.6005840000000  0.4346230000000  0.4975510000000 1.0
C      1  0.5145010000000  0.5301570000000  0.4338910000000 1.0
C      1  0.5189860000000  0.6067310000000  0.5055980000000 1.0
C      1  0.5321140000000  0.5297380000000  0.4556160000000 1.0
C      1  0.5779890000000  0.5336130000000  0.4942840000000 1.0
C      1  0.4971350000000  0.5645020000000  0.5385790000000 1.0
C      1  0.5151680000000  0.4615360000000  0.4435410000000 1.0
C      1  0.4582090000000  0.5281330000000  0.4656190000000 1.0
C      1  0.5396830000000  0.5966290000000  0.4875230000000 1.0
C      1  0.4671630000000  0.5046110000000  0.3906470000000 1.0
C      1  0.4601050000000  0.4997810000000  0.4673140000000 1.0
C      1  0.4783300000000  0.5502860000000  0.3927110000000 1.0
C      1  0.4775620000000  0.4374800000000  0.5894160000000 1.0
C      1  0.4346820000000  0.5359770000000  0.4174140000000 1.0
C      1  0.5514040000000  0.6042550000000  0.5323350000000 1.0
C      1  0.4647320000000  0.5785520000000  0.4312320000000 1.0
C      1  0.5695970000000  0.4671350000000  0.5791370000000 1.0
C      1  0.5365600000000  0.5041080000000  0.6058390000000 1.0
C      1  0.5817940000000  0.5328530000000  0.5404730000000 1.0
C      1  0.4567900000000  0.5302390000000  0.3977160000000 1.0
C      1  0.4933460000000  0.5137860000000  0.6072620000000 1.0
C      1  0.6184310000000  0.4581980000000  0.4955450000000 1.0
C      1  0.5856150000000  0.5219120000000  0.5714620000000 1.0
C      1  0.4510060000000  0.3822240000000  0.5275680000000 1.0
C      1  0.5182740000000  0.5815040000000  0.5543740000000 1.0
C      1  0.4311260000000  0.4468960000000  0.5808910000000 1.0
C      1  0.5062750000000  0.5480360000000  0.4857690000000 1.0
C      1  0.5057380000000  0.4346460000000  0.4945380000000 1.0
C      1  0.5175470000000  0.5187990000000  0.3812300000000 1.0
C      1  0.4130210000000  0.5018260000000  0.4820380000000 1.0
C      1  0.4950130000000  0.4086810000000  0.4258160000000 1.0
C      1  0.5122370000000  0.5653770000000  0.6026570000000 1.0
C      1  0.5450710000000  0.4045590000000  0.5052850000000 1.0
C      1  0.5071720000000  0.5446640000000  0.3879910000000 1.0
C      1  0.4347450000000  0.4682030000000  0.4389870000000 1.0
C      1  0.5188960000000  0.5195950000000  0.5370790000000 1.0
C      1  0.3789760000000  0.5430230000000  0.5081920000000 1.0
C      1  0.4985960000000  0.5634540000000  0.5085880000000 1.0
C      1  0.4987220000000  0.4034470000000  0.5343710000000 1.0
C      1  0.4715530000000  0.5801520000000  0.5473340000000 1.0
C      1  0.4201860000000  0.4890790000000  0.5840100000000 1.0
C      1  0.5861550000000  0.5783630000000  0.4783300000000 1.0
C      1  0.4578460000000  0.4425680000000  0.4915410000000 1.0
C      1  0.4052820000000  0.5282460000000  0.4711160000000 1.0
C      1  0.4313580000000  0.5515980000000  0.5033220000000 1.0
C      1  0.4564600000000  0.4590720000000  0.5903130000000 1.0
C      1  0.4932640000000  0.4328400000000  0.5235340000000 1.0
C      1  0.5686450000000  0.4022490000000  0.4426950000000 1.0
C      1  0.6161570000000  0.5022030000000  0.5133000000000 1.0
C      1  0.4797090000000  0.5205260000000  0.5672800000000 1.0
C      1  0.4129470000000  0.4870890000000  0.4247700000000 1.0
C      1  0.4773820000000  0.6239770000000  0.5238040000000 1.0
C      1  0.5362360000000  0.4775420000000  0.5400020000000 1.0
C      1  0.4197940000000  0.5746900000000  0.5175560000000 1.0
C      1  0.5461390000000  0.4186480000000  0.5500110000000 1.0
C      1  0.3963180000000  0.4877720000000  0.4472980000000 1.0
C      1  0.4044370000000  0.4426140000000  0.4624480000000 1.0
C      1  0.5576520000000  0.5476360000000  0.6120940000000 1.0
C      1  0.6108450000000  0.5010080000000  0.4850120000000 1.0
C      1  0.5513560000000  0.5807400000000  0.4425800000000 1.0
C      1  0.4763290000000  0.3873970000000  0.5168550000000 1.0
C      1  0.5724500000000  0.5863470000000  0.5256920000000 1.0
C      1  0.4917480000000  0.4708130000000  0.3883060000000 1.0
C      1  0.5647060000000  0.5195170000000  0.4057220000000 1.0
C      1  0.5739770000000  0.5365540000000  0.5918120000000 1.0
C      1  0.6090090000000  0.4750820000000  0.4738250000000 1.0
C      1  0.4435590000000  0.4155810000000  0.4796460000000 1.0
C      1  0.3943060000000  0.4866440000000  0.5259450000000 1.0
C      1  0.4146630000000  0.4439780000000  0.5042220000000 1.0
C      1  0.4622350000000  0.4378510000000  0.5217200000000 1.0
C      1  0.4704090000000  0.6111550000000  0.4776760000000 1.0
C      1  0.5310170000000  0.5535320000000  0.4723790000000 1.0
C      1  0.4333700000000  0.5938770000000  0.4679070000000 1.0
C      1  0.4258140000000  0.5506310000000  0.5587930000000 1.0
C      1  0.5652660000000  0.5481190000000  0.4125650000000 1.0
C      1  0.4833440000000  0.3951230000000  0.4694220000000 1.0
C      1  0.4712990000000  0.5567180000000  0.5036730000000 1.0
C      1  0.4354430000000  0.5990820000000  0.5156890000000 1.0
C      1  0.5805500000000  0.4677440000000  0.4634030000000 1.0
C      1  0.4719300000000  0.4062720000000  0.4445330000000 1.0
C      1  0.5554710000000  0.5863270000000  0.5845030000000 1.0
C      1  0.4713480000000  0.5658040000000  0.4750280000000 1.0
C      1  0.3868000000000  0.5430990000000  0.5349250000000 1.0
C      1  0.5879070000000  0.5225870000000  0.4424230000000 1.0
C      1  0.4934600000000  0.4585030000000  0.5390020000000 1.0
C      1  0.5112400000000  0.4493590000000  0.3937610000000 1.0
C      1  0.5852090000000  0.5501860000000  0.4342300000000 1.0
C      1  0.4541670000000  0.5104790000000  0.5072820000000 1.0
C      1  0.4914450000000  0.6167030000000  0.4987530000000 1.0
C      1  0.4841050000000  0.5412390000000  0.4660450000000 1.0
C      1  0.5739210000000  0.4284350000000  0.5456320000000 1.0
C      1  0.5785430000000  0.5736220000000  0.4507030000000 1.0
C      1  0.4776130000000  0.4864800000000  0.4445140000000 1.0
C      1  0.4025990000000  0.5111680000000  0.5741650000000 1.0
C      1  0.3980800000000  0.5145840000000  0.5434780000000 1.0
C      1  0.3909370000000  0.4695570000000  0.4686740000000 1.0
C      1  0.5126680000000  0.4983700000000  0.4894410000000 1.0
C      1  0.4360400000000  0.4829950000000  0.4699970000000 1.0
C      1  0.5413770000000  0.3927620000000  0.4533770000000 1.0
C      1  0.6193500000000  0.5531270000000  0.5149640000000 1.0
C      1  0.5555960000000  0.4306210000000  0.4947180000000 1.0
C      1  0.4515020000000  0.4576330000000  0.5397550000000 1.0
C      1  0.5075130000000  0.4072910000000  0.4817450000000 1.0
C      1  0.4460410000000  0.4182170000000  0.4499990000000 1.0
C      1  0.4486610000000  0.4863620000000  0.5920850000000 1.0
C      1  0.4746680000000  0.5894040000000  0.4584980000000 1.0
C      1  0.4187340000000  0.5140280000000  0.4253730000000 1.0
C      1  0.5600050000000  0.4938950000000  0.5052050000000 1.0
C      1  0.5969230000000  0.4295650000000  0.5266480000000 1.0
C      1  0.5781190000000  0.4403710000000  0.4804520000000 1.0
C      1  0.4069610000000  0.4380220000000  0.5312990000000 1.0
C      1  0.5151720000000  0.5552240000000  0.4159900000000 1.0
C      1  0.4107020000000  0.4646960000000  0.5708100000000 1.0
C      1  0.5048530000000  0.5158810000000  0.5113250000000 1.0
C      1  0.4983920000000  0.5001760000000  0.3947320000000 1.0
C      1  0.4267390000000  0.4396500000000  0.4436950000000 1.0
C      1  0.5038040000000  0.4260950000000  0.5786550000000 1.0
C      1  0.5789000000000  0.5016290000000  0.4249690000000 1.0
C      1  0.5348700000000  0.4556640000000  0.4643760000000 1.0
C      1  0.5348690000000  0.5804080000000  0.4651710000000 1.0
C      1  0.4476870000000  0.5396930000000  0.6012770000000 1.0
C      1  0.4773960000000  0.5277890000000  0.5090370000000 1.0
C      1  0.5634110000000  0.4930680000000  0.4763170000000 1.0
C      1  0.5303840000000  0.4048080000000  0.5306060000000 1.0
C      1  0.4346810000000  0.5280480000000  0.5177060000000 1.0
C      1  0.5236400000000  0.6054890000000  0.5350040000000 1.0
C      1  0.4396580000000  0.5633290000000  0.4300250000000 1.0
C      1  0.4532330000000  0.4811730000000  0.5163360000000 1.0
C      1  0.5477660000000  0.5704400000000  0.5597270000000 1.0
C      1  0.4886820000000  0.4072500000000  0.5628610000000 1.0
C      1  0.6102700000000  0.5281330000000  0.5279250000000 1.0
C      1  0.4270720000000  0.5253200000000  0.5441700000000 1.0
C      1  0.4632380000000  0.4171600000000  0.5750010000000 1.0
C      1  0.5343340000000  0.5019130000000  0.4658050000000 1.0
C      1  0.5753040000000  0.4958840000000  0.5821110000000 1.0
C      1  0.5420980000000  0.4572850000000  0.3955670000000 1.0
C      1  0.6182790000000  0.4735480000000  0.5207000000000 1.0
C      1  0.5762220000000  0.4733490000000  0.4338030000000 1.0
C      1  0.5848810000000  0.4516620000000  0.5602040000000 1.0
C      1  0.5308690000000  0.4366040000000  0.4447320000000 1.0
C      1  0.4260800000000  0.5701750000000  0.4546180000000 1.0
C      1  0.5969370000000  0.5557180000000  0.4942180000000 1.0
C      1  0.4879830000000  0.4615380000000  0.4533070000000 1.0
C      1  0.5356690000000  0.5294560000000  0.6201440000000 1.0
C      1  0.4987040000000  0.5347140000000  0.5523610000000 1.0
C      1  0.4705080000000  0.5773210000000  0.5757250000000 1.0
C      1  0.4822660000000  0.4783350000000  0.5212680000000 1.0
C      1  0.5150370000000  0.4673190000000  0.5550350000000 1.0
C      1  0.6069850000000  0.4541310000000  0.5397910000000 1.0
C      1  0.5333320000000  0.4513040000000  0.4934320000000 1.0
C      1  0.5653780000000  0.4526800000000  0.4162320000000 1.0
C      1  0.5324510000000  0.3924580000000  0.4812400000000 1.0
C      1  0.5426300000000  0.4742150000000  0.5136180000000 1.0
C      1  0.4942530000000  0.4791330000000  0.4949530000000 1.0
C      1  0.5410060000000  0.5719540000000  0.6061850000000 1.0
C      1  0.4387710000000  0.4638630000000  0.4947170000000 1.0
C      1  0.4989760000000  0.5776360000000  0.5800210000000 1.0
C      1  0.5377830000000  0.5030620000000  0.5509170000000 1.0
C      1  0.5245340000000  0.4883550000000  0.4422660000000 1.0
C      1  0.4142590000000  0.4243130000000  0.4832590000000 1.0
C      1  0.4601490000000  0.4726480000000  0.4262880000000 1.0
END
