TITL C-4164232-771-85 99.1367327776936 125000 -29764.3517321606 0 0 200 (C1) n - 1
REM
REM in /home/nfs/bkarasulu/CARBON/AIRSS/Generating-Clusters/ReaxFF-fromJPCA2015/Units_Real/with-SteepDescent/Only-C1/SD-CG/Try1-3A/FIRE-CG
REM
REM
REM
REM
REM
REM ./C.cell (11c1c37f851c82e70ff6c80c92926a4b)
REM
REM compiler GCC version 9.2.1 20190827 (Red Hat 9.2.1-1)
REM options -cpp -mtune=generic -march=x86-64 -g -O0 -fpre-include=/usr/include/finclude/math-vector-fortran.h
REM seed -180268017 -245809511 626873153 1462403353 -1259568498 1796320020 1020902997 960505170 146877246 2079765922 888524352 -638053353 -1199859817 -232980960 1173844268 1099488162 -481760556 1619123146 -1922656230 2125364486 1683027781 1162291811 -914324767 2021194085 1843510166 -691637032 66668118 1691037699 -314409230 -961032285 810812773 1922453648 -1419857314
REM
CELL 1.54180   50.00000   50.00000   50.00000   90.00000   90.00000   90.00000
LATT -1
SFAC C  
C      1  0.5575110000000  0.4339720000000  0.4236340000000 1.0
C      1  0.5764290000000  0.5821070000000  0.4922900000000 1.0
C      1  0.5685240000000  0.4321230000000  0.5772370000000 1.0
C      1  0.5589190000000  0.4713810000000  0.4627920000000 1.0
C      1  0.4875100000000  0.5701960000000  0.4084270000000 1.0
C      1  0.4108610000000  0.5622400000000  0.5310460000000 1.0
C      1  0.3967750000000  0.4647770000000  0.4688840000000 1.0
C      1  0.3908480000000  0.5278510000000  0.4947360000000 1.0
C      1  0.6141310000000  0.4446550000000  0.5110160000000 1.0
C      1  0.5079980000000  0.5523320000000  0.4096170000000 1.0
C      1  0.5173280000000  0.4365110000000  0.5963820000000 1.0
C      1  0.5374330000000  0.5525540000000  0.4670680000000 1.0
C      1  0.4636310000000  0.5331440000000  0.4629280000000 1.0
C      1  0.4734180000000  0.4033170000000  0.4442690000000 1.0
C      1  0.4682390000000  0.5840760000000  0.5789810000000 1.0
C      1  0.5314240000000  0.6145960000000  0.4630070000000 1.0
C      1  0.4839750000000  0.4208230000000  0.4193640000000 1.0
C      1  0.4939690000000  0.4803090000000  0.5720450000000 1.0
C      1  0.4270390000000  0.4546300000000  0.5634800000000 1.0
C      1  0.4486240000000  0.4128900000000  0.4529020000000 1.0
C      1  0.4798630000000  0.5474590000000  0.4489390000000 1.0
C      1  0.5416790000000  0.5672170000000  0.4436270000000 1.0
C      1  0.4193940000000  0.5595540000000  0.5596270000000 1.0
C      1  0.4556050000000  0.4640070000000  0.4433590000000 1.0
C      1  0.6086710000000  0.5373380000000  0.4817900000000 1.0
C      1  0.4562110000000  0.5453940000000  0.5879620000000 1.0
C      1  0.4700750000000  0.4713840000000  0.4875200000000 1.0
C      1  0.5645950000000  0.4475450000000  0.5113970000000 1.0
C      1  0.5883800000000  0.4735330000000  0.4723730000000 1.0
C      1  0.4445030000000  0.4734670000000  0.5745660000000 1.0
C      1  0.4208700000000  0.5778520000000  0.5078750000000 1.0
C      1  0.4963790000000  0.5053080000000  0.5851060000000 1.0
C      1  0.4439300000000  0.5880910000000  0.5234520000000 1.0
C      1  0.5029900000000  0.5864630000000  0.5445350000000 1.0
C      1  0.4877100000000  0.4060360000000  0.5417570000000 1.0
C      1  0.4847840000000  0.4626530000000  0.4390900000000 1.0
C      1  0.5235020000000  0.3872230000000  0.5155570000000 1.0
C      1  0.4834390000000  0.4924380000000  0.5046270000000 1.0
C      1  0.3945230000000  0.4533420000000  0.5214040000000 1.0
C      1  0.4961120000000  0.3873370000000  0.5196280000000 1.0
C      1  0.3749930000000  0.5020880000000  0.5337720000000 1.0
C      1  0.4346040000000  0.3937080000000  0.5242760000000 1.0
C      1  0.5855020000000  0.5555390000000  0.4823540000000 1.0
C      1  0.4895920000000  0.6066910000000  0.5038540000000 1.0
C      1  0.4914020000000  0.5293020000000  0.4252940000000 1.0
C      1  0.4389330000000  0.5009440000000  0.5732140000000 1.0
C      1  0.5514460000000  0.5488370000000  0.5897250000000 1.0
C      1  0.4426460000000  0.6286760000000  0.4970120000000 1.0
C      1  0.4706590000000  0.5205100000000  0.4013330000000 1.0
C      1  0.5405080000000  0.6017080000000  0.5319420000000 1.0
C      1  0.4287250000000  0.4975700000000  0.4053200000000 1.0
C      1  0.4946020000000  0.5123820000000  0.3879190000000 1.0
C      1  0.4674060000000  0.4921100000000  0.6250290000000 1.0
C      1  0.5204660000000  0.5045510000000  0.3910980000000 1.0
C      1  0.5191570000000  0.5236780000000  0.5195250000000 1.0
C      1  0.4593700000000  0.6119800000000  0.5152820000000 1.0
C      1  0.5886490000000  0.4792410000000  0.4296270000000 1.0
C      1  0.5555360000000  0.4926050000000  0.6000420000000 1.0
C      1  0.4115350000000  0.4217980000000  0.4824100000000 1.0
C      1  0.5710910000000  0.5223730000000  0.5327210000000 1.0
C      1  0.4174690000000  0.5549450000000  0.4600450000000 1.0
C      1  0.4772170000000  0.5808130000000  0.4927250000000 1.0
C      1  0.5203270000000  0.4698720000000  0.5678670000000 1.0
C      1  0.5116020000000  0.6066400000000  0.5259230000000 1.0
C      1  0.4751910000000  0.5203430000000  0.4987630000000 1.0
C      1  0.5637280000000  0.4137200000000  0.5559890000000 1.0
C      1  0.4959210000000  0.4528240000000  0.3853050000000 1.0
C      1  0.5144460000000  0.5358230000000  0.4708880000000 1.0
C      1  0.5579400000000  0.3998130000000  0.5350470000000 1.0
C      1  0.5438180000000  0.5896760000000  0.5594220000000 1.0
C      1  0.4515370000000  0.5225050000000  0.4810440000000 1.0
C      1  0.4065980000000  0.5353470000000  0.5191960000000 1.0
C      1  0.5539390000000  0.5470620000000  0.3977020000000 1.0
C      1  0.4879120000000  0.3927420000000  0.4677270000000 1.0
C      1  0.5197570000000  0.5100000000000  0.4585910000000 1.0
C      1  0.5173990000000  0.5992800000000  0.5665780000000 1.0
C      1  0.5120910000000  0.4093700000000  0.4708790000000 1.0
C      1  0.4596680000000  0.5220630000000  0.5709080000000 1.0
C      1  0.5136570000000  0.5611080000000  0.5357490000000 1.0
C      1  0.4539470000000  0.4821910000000  0.4646640000000 1.0
C      1  0.4368690000000  0.5037610000000  0.4683530000000 1.0
C      1  0.4084090000000  0.4033220000000  0.5200420000000 1.0
C      1  0.4945780000000  0.5933880000000  0.5869930000000 1.0
C      1  0.5150610000000  0.5267360000000  0.5733800000000 1.0
C      1  0.4282100000000  0.4753380000000  0.5088470000000 1.0
C      1  0.5341810000000  0.4421960000000  0.4080230000000 1.0
C      1  0.5356770000000  0.5580690000000  0.4171310000000 1.0
C      1  0.3996860000000  0.5341400000000  0.4683610000000 1.0
C      1  0.4719790000000  0.4637100000000  0.5823310000000 1.0
C      1  0.4831240000000  0.5086930000000  0.6092080000000 1.0
C      1  0.6023080000000  0.5003330000000  0.5749810000000 1.0
C      1  0.6042880000000  0.5300710000000  0.4424510000000 1.0
C      1  0.3964740000000  0.4264040000000  0.5089850000000 1.0
C      1  0.5608100000000  0.3991660000000  0.4827860000000 1.0
C      1  0.4973130000000  0.4587500000000  0.4846760000000 1.0
C      1  0.4692350000000  0.4661080000000  0.3923240000000 1.0
C      1  0.6109260000000  0.5361370000000  0.5114720000000 1.0
C      1  0.4966510000000  0.6281180000000  0.4817720000000 1.0
C      1  0.4817540000000  0.4684020000000  0.6137590000000 1.0
C      1  0.5971710000000  0.5114890000000  0.5201120000000 1.0
C      1  0.3939100000000  0.4902270000000  0.5542910000000 1.0
C      1  0.4224310000000  0.5233130000000  0.4167170000000 1.0
C      1  0.5819410000000  0.5487900000000  0.4049620000000 1.0
C      1  0.4112160000000  0.5092020000000  0.5694290000000 1.0
C      1  0.3971640000000  0.4856250000000  0.4479630000000 1.0
C      1  0.4950870000000  0.4222660000000  0.5656900000000 1.0
C      1  0.3828720000000  0.5017860000000  0.5054750000000 1.0
C      1  0.4412950000000  0.4202310000000  0.5361830000000 1.0
C      1  0.5315510000000  0.4755200000000  0.5971140000000 1.0
C      1  0.5020650000000  0.5282130000000  0.4959930000000 1.0
C      1  0.5434330000000  0.4920110000000  0.4015180000000 1.0
C      1  0.4753420000000  0.6319390000000  0.4598780000000 1.0
C      1  0.4524950000000  0.5512830000000  0.4144930000000 1.0
C      1  0.5059980000000  0.5695460000000  0.5947760000000 1.0
C      1  0.5585220000000  0.5396010000000  0.4837030000000 1.0
C      1  0.5077570000000  0.4306940000000  0.4013500000000 1.0
C      1  0.4606140000000  0.4386740000000  0.4034790000000 1.0
C      1  0.5240180000000  0.6321290000000  0.4758610000000 1.0
C      1  0.5640140000000  0.4784360000000  0.5122530000000 1.0
C      1  0.6136460000000  0.5153730000000  0.4622490000000 1.0
C      1  0.5043260000000  0.4799800000000  0.4278130000000 1.0
C      1  0.5544420000000  0.5834240000000  0.5139710000000 1.0
C      1  0.4516060000000  0.6179570000000  0.4700570000000 1.0
C      1  0.5393380000000  0.4004110000000  0.4636870000000 1.0
C      1  0.5043050000000  0.4467830000000  0.5293400000000 1.0
C      1  0.4352230000000  0.4048710000000  0.4773270000000 1.0
C      1  0.4333680000000  0.5245580000000  0.5229250000000 1.0
C      1  0.5420360000000  0.4314050000000  0.5864930000000 1.0
C      1  0.5591150000000  0.5650580000000  0.5666760000000 1.0
C      1  0.6005010000000  0.5560990000000  0.5322670000000 1.0
C      1  0.5747080000000  0.5216360000000  0.4431670000000 1.0
C      1  0.4493610000000  0.3899270000000  0.4982220000000 1.0
C      1  0.4592250000000  0.4932790000000  0.3981140000000 1.0
C      1  0.5143580000000  0.4429490000000  0.5558600000000 1.0
C      1  0.5655590000000  0.4902940000000  0.5391720000000 1.0
C      1  0.5055970000000  0.5063570000000  0.4363300000000 1.0
C      1  0.5153490000000  0.4527400000000  0.5052840000000 1.0
C      1  0.5479200000000  0.5955580000000  0.4472290000000 1.0
C      1  0.5810150000000  0.4499400000000  0.4335940000000 1.0
C      1  0.5393010000000  0.5125940000000  0.5683060000000 1.0
C      1  0.5225260000000  0.5482210000000  0.5959880000000 1.0
C      1  0.4274580000000  0.5719110000000  0.4796900000000 1.0
C      1  0.4332720000000  0.5327440000000  0.6023510000000 1.0
C      1  0.4032710000000  0.4631850000000  0.5477610000000 1.0
C      1  0.5386000000000  0.4900880000000  0.5498680000000 1.0
C      1  0.5283820000000  0.4706090000000  0.4150220000000 1.0
C      1  0.6099890000000  0.4606480000000  0.5267250000000 1.0
C      1  0.5671290000000  0.5896820000000  0.4666960000000 1.0
C      1  0.6039520000000  0.4892200000000  0.4521240000000 1.0
C      1  0.5049840000000  0.5349710000000  0.5452280000000 1.0
C      1  0.4095360000000  0.5084150000000  0.4637660000000 1.0
C      1  0.4108650000000  0.4415700000000  0.4616840000000 1.0
C      1  0.5831950000000  0.4953790000000  0.4934280000000 1.0
C      1  0.4775170000000  0.3868020000000  0.4947260000000 1.0
C      1  0.4697960000000  0.4352340000000  0.5728230000000 1.0
C      1  0.4727150000000  0.5757610000000  0.4513590000000 1.0
C      1  0.4429920000000  0.5100060000000  0.6172510000000 1.0
C      1  0.4592960000000  0.5394820000000  0.5221110000000 1.0
C      1  0.4697350000000  0.4962630000000  0.5298670000000 1.0
C      1  0.4643160000000  0.5770720000000  0.4223360000000 1.0
C      1  0.5704410000000  0.5005240000000  0.4167950000000 1.0
C      1  0.5882200000000  0.4319260000000  0.5058880000000 1.0
C      1  0.5715480000000  0.5229210000000  0.3965520000000 1.0
C      1  0.4449530000000  0.5698790000000  0.5746480000000 1.0
C      1  0.4927310000000  0.4383300000000  0.4398650000000 1.0
C      1  0.5857480000000  0.5476700000000  0.4339390000000 1.0
C      1  0.5383770000000  0.5610060000000  0.5211460000000 1.0
C      1  0.5488470000000  0.5345150000000  0.5141360000000 1.0
C      1  0.5015990000000  0.4370030000000  0.4653450000000 1.0
C      1  0.4438210000000  0.4312640000000  0.5620320000000 1.0
C      1  0.5825400000000  0.4186280000000  0.4790460000000 1.0
C      1  0.4362700000000  0.4402710000000  0.4423050000000 1.0
C      1  0.4409260000000  0.4962650000000  0.5245470000000 1.0
C      1  0.5838640000000  0.4578490000000  0.5747940000000 1.0
C      1  0.6084840000000  0.4960360000000  0.5470270000000 1.0
C      1  0.4751930000000  0.5219150000000  0.5448590000000 1.0
C      1  0.5509140000000  0.3880570000000  0.5098660000000 1.0
C      1  0.5419760000000  0.4942400000000  0.4734920000000 1.0
C      1  0.5823200000000  0.4818840000000  0.5896600000000 1.0
C      1  0.3980860000000  0.4739680000000  0.4989120000000 1.0
C      1  0.4110990000000  0.4853230000000  0.4234370000000 1.0
C      1  0.5873870000000  0.4408400000000  0.4607300000000 1.0
C      1  0.5894630000000  0.4720330000000  0.5479050000000 1.0
C      1  0.5388970000000  0.4872780000000  0.5018150000000 1.0
C      1  0.5402300000000  0.4418590000000  0.4974610000000 1.0
C      1  0.4565010000000  0.4353580000000  0.5186120000000 1.0
C      1  0.5102270000000  0.4609730000000  0.6118590000000 1.0
C      1  0.4650140000000  0.5687350000000  0.5163680000000 1.0
C      1  0.4826040000000  0.4287960000000  0.5248040000000 1.0
C      1  0.4139190000000  0.5372550000000  0.5769330000000 1.0
C      1  0.5776320000000  0.5486990000000  0.5487390000000 1.0
C      1  0.4332060000000  0.4350690000000  0.4105300000000 1.0
C      1  0.5442330000000  0.4255340000000  0.4485130000000 1.0
C      1  0.5668060000000  0.5127570000000  0.4738280000000 1.0
C      1  0.4289540000000  0.5472160000000  0.4300750000000 1.0
C      1  0.5240890000000  0.4953460000000  0.5238910000000 1.0
C      1  0.4490130000000  0.4564450000000  0.5031640000000 1.0
C      1  0.5581990000000  0.5200550000000  0.5886020000000 1.0
C      1  0.5448200000000  0.4469590000000  0.4686280000000 1.0
C      1  0.4558100000000  0.5864920000000  0.4721880000000 1.0
END
