TITL C-4164247-2821-458 7.28237387344647 125000 -16495.459688684 0 0 112 (C1) n - 1
REM
REM in /home/nfs/bkarasulu/CARBON/AIRSS/Generating-Clusters/ReaxFF-fromJPCA2015/Units_Real/with-SteepDescent/Only-C1/SD-CG/Try1-3A/FIRE-CG
REM
REM
REM
REM
REM
REM ./C.cell (11c1c37f851c82e70ff6c80c92926a4b)
REM
REM compiler GCC version 9.2.1 20190827 (Red Hat 9.2.1-1)
REM options -cpp -mtune=generic -march=x86-64 -g -O0 -fpre-include=/usr/include/finclude/math-vector-fortran.h
REM seed -1090129808 -1061002728 1040800629 -1667302506 1239944960 -2000256358 817329710 -1115999331 -1423075482 -958598454 203353948 191851807 -385953284 293752587 -1295164839 1852352781 549388865 -1616678961 786342974 -1709816853 1935054440 -651950630 653579834 2043800409 -798243763 -1054428061 702688846 958966132 -1753785960 348711302 -1644532426 -1432119881 639721248
REM
CELL 1.54180   50.00000   50.00000   50.00000   90.00000   90.00000   90.00000
LATT -1
SFAC C  
C      1  0.5352120000000  0.4974180000000  0.4668920000000 1.0
C      1  0.5156760000000  0.4456020000000  0.5358470000000 1.0
C      1  0.4954750000000  0.5839380000000  0.5393450000000 1.0
C      1  0.5675650000000  0.5075530000000  0.5634960000000 1.0
C      1  0.5413160000000  0.5477810000000  0.5747280000000 1.0
C      1  0.4974540000000  0.4400850000000  0.4615390000000 1.0
C      1  0.5332760000000  0.4560500000000  0.4451780000000 1.0
C      1  0.5615680000000  0.5352180000000  0.5561390000000 1.0
C      1  0.5479450000000  0.5725900000000  0.4569560000000 1.0
C      1  0.4204090000000  0.5319630000000  0.5077030000000 1.0
C      1  0.4748230000000  0.4084930000000  0.4685410000000 1.0
C      1  0.4607280000000  0.4731860000000  0.4203120000000 1.0
C      1  0.5801890000000  0.4602200000000  0.5071630000000 1.0
C      1  0.4665810000000  0.4321530000000  0.5233250000000 1.0
C      1  0.5052530000000  0.4923350000000  0.4213170000000 1.0
C      1  0.5156700000000  0.5799880000000  0.5189200000000 1.0
C      1  0.5061800000000  0.4493300000000  0.4359780000000 1.0
C      1  0.5701030000000  0.5395950000000  0.5015910000000 1.0
C      1  0.4776720000000  0.5811590000000  0.4840020000000 1.0
C      1  0.4935990000000  0.4531040000000  0.5159890000000 1.0
C      1  0.5092150000000  0.4501410000000  0.4857190000000 1.0
C      1  0.5805320000000  0.4880880000000  0.5459430000000 1.0
C      1  0.4925610000000  0.5398310000000  0.4240510000000 1.0
C      1  0.5484920000000  0.4663370000000  0.5697990000000 1.0
C      1  0.5410870000000  0.5492370000000  0.4936480000000 1.0
C      1  0.5334580000000  0.5760730000000  0.4816230000000 1.0
C      1  0.5769370000000  0.5013930000000  0.4605140000000 1.0
C      1  0.5067320000000  0.5140040000000  0.5014660000000 1.0
C      1  0.5240320000000  0.4640670000000  0.5543080000000 1.0
C      1  0.5726540000000  0.4612780000000  0.5536740000000 1.0
C      1  0.4242140000000  0.4391140000000  0.5144530000000 1.0
C      1  0.4736140000000  0.4580550000000  0.5749030000000 1.0
C      1  0.5290230000000  0.5717690000000  0.4339580000000 1.0
C      1  0.4208580000000  0.5062670000000  0.4600690000000 1.0
C      1  0.4549860000000  0.5084580000000  0.5674190000000 1.0
C      1  0.5488220000000  0.4930980000000  0.5811340000000 1.0
C      1  0.4532680000000  0.4252620000000  0.4741540000000 1.0
C      1  0.4327890000000  0.5453650000000  0.4504710000000 1.0
C      1  0.5745010000000  0.5290460000000  0.4748710000000 1.0
C      1  0.5083820000000  0.4081350000000  0.5202550000000 1.0
C      1  0.4864040000000  0.4154980000000  0.5382190000000 1.0
C      1  0.5088200000000  0.5297990000000  0.5250650000000 1.0
C      1  0.5224420000000  0.5456310000000  0.4223670000000 1.0
C      1  0.4904800000000  0.4865010000000  0.4680090000000 1.0
C      1  0.4307780000000  0.5470510000000  0.5452780000000 1.0
C      1  0.5739140000000  0.4724110000000  0.4598210000000 1.0
C      1  0.5102010000000  0.4992870000000  0.4514830000000 1.0
C      1  0.5276160000000  0.5712350000000  0.5706300000000 1.0
C      1  0.4346400000000  0.5195800000000  0.4391570000000 1.0
C      1  0.4785240000000  0.5194660000000  0.5520560000000 1.0
C      1  0.5572010000000  0.4940080000000  0.5012450000000 1.0
C      1  0.5744280000000  0.4433810000000  0.5303480000000 1.0
C      1  0.5066920000000  0.5843150000000  0.4919900000000 1.0
C      1  0.4356870000000  0.5555950000000  0.5155210000000 1.0
C      1  0.5055230000000  0.5378520000000  0.4636990000000 1.0
C      1  0.5632460000000  0.4523760000000  0.4831260000000 1.0
C      1  0.5105430000000  0.5938540000000  0.5651300000000 1.0
C      1  0.4831250000000  0.5007230000000  0.4922530000000 1.0
C      1  0.5332690000000  0.4644310000000  0.4741430000000 1.0
C      1  0.4380210000000  0.4626280000000  0.4348830000000 1.0
C      1  0.5812770000000  0.4883750000000  0.5159290000000 1.0
C      1  0.4601630000000  0.5001110000000  0.4358520000000 1.0
C      1  0.5291530000000  0.4191330000000  0.5362470000000 1.0
C      1  0.4380020000000  0.4863040000000  0.5029820000000 1.0
C      1  0.4996820000000  0.4889260000000  0.5822630000000 1.0
C      1  0.4831890000000  0.4767300000000  0.5291120000000 1.0
C      1  0.4329020000000  0.4962920000000  0.5471700000000 1.0
C      1  0.4889390000000  0.4662360000000  0.4202310000000 1.0
C      1  0.4167190000000  0.4792270000000  0.4499240000000 1.0
C      1  0.5056170000000  0.4859430000000  0.5503830000000 1.0
C      1  0.4187370000000  0.5226830000000  0.5353270000000 1.0
C      1  0.5075230000000  0.5656030000000  0.4531190000000 1.0
C      1  0.4350600000000  0.5124070000000  0.4885810000000 1.0
C      1  0.4187380000000  0.4644430000000  0.4997590000000 1.0
C      1  0.5627120000000  0.5471380000000  0.4545040000000 1.0
C      1  0.4385800000000  0.4418990000000  0.5395800000000 1.0
C      1  0.5541620000000  0.5054820000000  0.4425750000000 1.0
C      1  0.4468200000000  0.5395180000000  0.5690630000000 1.0
C      1  0.4712460000000  0.5518480000000  0.4439700000000 1.0
C      1  0.4465610000000  0.4234350000000  0.5024280000000 1.0
C      1  0.5553260000000  0.4231860000000  0.5207810000000 1.0
C      1  0.4637150000000  0.4822920000000  0.4613320000000 1.0
C      1  0.5197330000000  0.4192700000000  0.4918050000000 1.0
C      1  0.4282690000000  0.4674460000000  0.5449790000000 1.0
C      1  0.5321030000000  0.4915480000000  0.4006390000000 1.0
C      1  0.5179030000000  0.5325390000000  0.5851560000000 1.0
C      1  0.5601130000000  0.5441060000000  0.5286760000000 1.0
C      1  0.5511660000000  0.4767860000000  0.4133650000000 1.0
C      1  0.4839710000000  0.5135900000000  0.4207870000000 1.0
C      1  0.4702870000000  0.5566130000000  0.5694120000000 1.0
C      1  0.4573930000000  0.4884970000000  0.5247400000000 1.0
C      1  0.4764440000000  0.5625980000000  0.5411630000000 1.0
C      1  0.4416210000000  0.5625240000000  0.4703860000000 1.0
C      1  0.4655520000000  0.5247860000000  0.4941790000000 1.0
C      1  0.5245030000000  0.5247040000000  0.4821570000000 1.0
C      1  0.4808990000000  0.5777820000000  0.4551830000000 1.0
C      1  0.5605820000000  0.4617640000000  0.4358490000000 1.0
C      1  0.4898100000000  0.5349640000000  0.5748300000000 1.0
C      1  0.5230780000000  0.5043490000000  0.5905680000000 1.0
C      1  0.4806860000000  0.4333480000000  0.5629560000000 1.0
C      1  0.5473000000000  0.5330930000000  0.4338710000000 1.0
C      1  0.4779400000000  0.5359050000000  0.5270840000000 1.0
C      1  0.4770140000000  0.5362420000000  0.4693300000000 1.0
C      1  0.4508220000000  0.5719680000000  0.4952070000000 1.0
C      1  0.5491720000000  0.4270200000000  0.4933220000000 1.0
C      1  0.5220370000000  0.5067530000000  0.5375650000000 1.0
C      1  0.5404550000000  0.5000770000000  0.5185440000000 1.0
C      1  0.4183080000000  0.4599490000000  0.4712840000000 1.0
C      1  0.5311510000000  0.5528330000000  0.5211400000000 1.0
C      1  0.4712250000000  0.4853230000000  0.5829790000000 1.0
C      1  0.4490960000000  0.4559050000000  0.4623230000000 1.0
C      1  0.5021410000000  0.4121060000000  0.4675940000000 1.0
END
