TITL C-4164245-3996-52 6.98857535269532 125000 -16830.9499364429 0 0 114 (C1) n - 1
REM
REM in /home/nfs/bkarasulu/CARBON/AIRSS/Generating-Clusters/ReaxFF-fromJPCA2015/Units_Real/with-SteepDescent/Only-C1/SD-CG/Try1-3A/FIRE-CG
REM
REM
REM
REM
REM
REM ./C.cell (11c1c37f851c82e70ff6c80c92926a4b)
REM
REM compiler GCC version 9.2.1 20190827 (Red Hat 9.2.1-1)
REM options -cpp -mtune=generic -march=x86-64 -g -O0 -fpre-include=/usr/include/finclude/math-vector-fortran.h
REM seed 1093812044 -1320003782 1347736484 -437183796 -110379589 -1992927052 443730438 2068029820 476686915 1213858939 855692953 502438622 -121480105 1155973117 1259692776 1160784956 492704465 -1894218275 -1416586426 627324485 582263365 -2106319912 -254861468 -756432627 -1942755856 -963876181 968789029 1400485043 1447184139 2121727624 -1495089392 -1004373524 -753683973
REM
CELL 1.54180   50.00000   50.00000   50.00000   90.00000   90.00000   90.00000
LATT -1
SFAC C  
C      1  0.5570710000000  0.4394590000000  0.4580670000000 1.0
C      1  0.4204320000000  0.5270650000000  0.4697350000000 1.0
C      1  0.4693320000000  0.4658710000000  0.5252340000000 1.0
C      1  0.5015360000000  0.4260000000000  0.4515410000000 1.0
C      1  0.4771350000000  0.4404420000000  0.4411230000000 1.0
C      1  0.4242320000000  0.4334700000000  0.4978690000000 1.0
C      1  0.4717990000000  0.4974160000000  0.5507950000000 1.0
C      1  0.4961550000000  0.5124180000000  0.5407030000000 1.0
C      1  0.5364580000000  0.5265350000000  0.4278590000000 1.0
C      1  0.5245860000000  0.4788560000000  0.5444950000000 1.0
C      1  0.5849330000000  0.4865510000000  0.5432410000000 1.0
C      1  0.4515650000000  0.5750190000000  0.5284270000000 1.0
C      1  0.4311910000000  0.5502400000000  0.4873320000000 1.0
C      1  0.5739400000000  0.4632550000000  0.4569110000000 1.0
C      1  0.5432510000000  0.4219140000000  0.5002730000000 1.0
C      1  0.5334530000000  0.5290850000000  0.4749130000000 1.0
C      1  0.5300540000000  0.4770690000000  0.4198630000000 1.0
C      1  0.4471250000000  0.5279210000000  0.5396840000000 1.0
C      1  0.4995900000000  0.5545360000000  0.4232620000000 1.0
C      1  0.5784260000000  0.5419510000000  0.4871380000000 1.0
C      1  0.5935690000000  0.5203870000000  0.4776100000000 1.0
C      1  0.5906690000000  0.4691180000000  0.4815940000000 1.0
C      1  0.4859230000000  0.4828630000000  0.5085160000000 1.0
C      1  0.4926630000000  0.5121540000000  0.4803500000000 1.0
C      1  0.5916550000000  0.5002650000000  0.5194500000000 1.0
C      1  0.5203550000000  0.5850200000000  0.5244230000000 1.0
C      1  0.4976000000000  0.4095980000000  0.4757670000000 1.0
C      1  0.5078340000000  0.5826860000000  0.4587180000000 1.0
C      1  0.5042490000000  0.4207870000000  0.5224910000000 1.0
C      1  0.5709640000000  0.4881020000000  0.4408300000000 1.0
C      1  0.4817090000000  0.4454110000000  0.4824260000000 1.0
C      1  0.4504020000000  0.4436080000000  0.4535020000000 1.0
C      1  0.5091770000000  0.5277800000000  0.4168770000000 1.0
C      1  0.4837810000000  0.5182420000000  0.4538030000000 1.0
C      1  0.4789060000000  0.5507560000000  0.5708500000000 1.0
C      1  0.5728730000000  0.5116130000000  0.4581020000000 1.0
C      1  0.5827850000000  0.4512620000000  0.5020540000000 1.0
C      1  0.4440340000000  0.4928660000000  0.4385090000000 1.0
C      1  0.5489160000000  0.4996520000000  0.4250520000000 1.0
C      1  0.4618930000000  0.5390790000000  0.4546060000000 1.0
C      1  0.4667930000000  0.4571330000000  0.5534470000000 1.0
C      1  0.4540610000000  0.5354420000000  0.5699580000000 1.0
C      1  0.5220790000000  0.5654690000000  0.4395100000000 1.0
C      1  0.4339380000000  0.4688890000000  0.4520600000000 1.0
C      1  0.4046440000000  0.4769710000000  0.5189880000000 1.0
C      1  0.4430740000000  0.4988760000000  0.4965410000000 1.0
C      1  0.4128740000000  0.4754230000000  0.4711150000000 1.0
C      1  0.5005010000000  0.5338920000000  0.5830810000000 1.0
C      1  0.5007870000000  0.4177360000000  0.5503150000000 1.0
C      1  0.5292710000000  0.4353740000000  0.4466350000000 1.0
C      1  0.4585080000000  0.5122100000000  0.5856750000000 1.0
C      1  0.5085690000000  0.5351760000000  0.4904490000000 1.0
C      1  0.5126720000000  0.4488330000000  0.5191440000000 1.0
C      1  0.5477340000000  0.5668080000000  0.4866150000000 1.0
C      1  0.5258930000000  0.5821920000000  0.4957110000000 1.0
C      1  0.4445420000000  0.4265090000000  0.4762880000000 1.0
C      1  0.5664800000000  0.4319140000000  0.4849560000000 1.0
C      1  0.5597980000000  0.5521450000000  0.5024300000000 1.0
C      1  0.4853710000000  0.4369010000000  0.5641370000000 1.0
C      1  0.5230050000000  0.4638520000000  0.4459970000000 1.0
C      1  0.4076690000000  0.4587960000000  0.4956650000000 1.0
C      1  0.5636770000000  0.5585800000000  0.5313230000000 1.0
C      1  0.4382150000000  0.5200390000000  0.4486040000000 1.0
C      1  0.5039700000000  0.4720220000000  0.4096070000000 1.0
C      1  0.4923100000000  0.5872400000000  0.5323020000000 1.0
C      1  0.5527620000000  0.5205310000000  0.5752450000000 1.0
C      1  0.5401820000000  0.5453610000000  0.4511220000000 1.0
C      1  0.3999830000000  0.5044370000000  0.5090060000000 1.0
C      1  0.5220040000000  0.4712200000000  0.4749180000000 1.0
C      1  0.5310300000000  0.5393230000000  0.5823470000000 1.0
C      1  0.4601250000000  0.5497550000000  0.4868530000000 1.0
C      1  0.4373170000000  0.4510880000000  0.5486560000000 1.0
C      1  0.4677820000000  0.4884420000000  0.4216180000000 1.0
C      1  0.5492350000000  0.5063310000000  0.4767880000000 1.0
C      1  0.4907350000000  0.5067320000000  0.4277160000000 1.0
C      1  0.4739940000000  0.5772180000000  0.4848620000000 1.0
C      1  0.4061890000000  0.5029560000000  0.4792400000000 1.0
C      1  0.5392970000000  0.5592990000000  0.5646810000000 1.0
C      1  0.4237430000000  0.5128920000000  0.5121790000000 1.0
C      1  0.5152210000000  0.5012990000000  0.5606780000000 1.0
C      1  0.5563200000000  0.4465930000000  0.5411570000000 1.0
C      1  0.5073900000000  0.4525990000000  0.4907810000000 1.0
C      1  0.4792830000000  0.5832490000000  0.4545280000000 1.0
C      1  0.4701040000000  0.5907080000000  0.5128890000000 1.0
C      1  0.4241480000000  0.4768760000000  0.5409340000000 1.0
C      1  0.4987550000000  0.5047520000000  0.5854480000000 1.0
C      1  0.5694330000000  0.5198040000000  0.5227730000000 1.0
C      1  0.4735460000000  0.4886660000000  0.5795570000000 1.0
C      1  0.4204190000000  0.5342460000000  0.5276840000000 1.0
C      1  0.5796600000000  0.4606790000000  0.5309490000000 1.0
C      1  0.5140550000000  0.4360730000000  0.5671770000000 1.0
C      1  0.5031590000000  0.5687880000000  0.4837850000000 1.0
C      1  0.4295320000000  0.5591990000000  0.5149250000000 1.0
C      1  0.4743770000000  0.5698560000000  0.5486880000000 1.0
C      1  0.4468130000000  0.4703190000000  0.5030150000000 1.0
C      1  0.4795210000000  0.4608850000000  0.4194910000000 1.0
C      1  0.5424050000000  0.5761300000000  0.5423290000000 1.0
C      1  0.4708790000000  0.4184220000000  0.4854130000000 1.0
C      1  0.5346970000000  0.4551090000000  0.5587010000000 1.0
C      1  0.5990960000000  0.4952250000000  0.4920390000000 1.0
C      1  0.4703870000000  0.4713810000000  0.4851760000000 1.0
C      1  0.4442460000000  0.4990150000000  0.5431550000000 1.0
C      1  0.5004700000000  0.5322790000000  0.5201700000000 1.0
C      1  0.4296250000000  0.4377320000000  0.5251430000000 1.0
C      1  0.4745330000000  0.5615620000000  0.4368090000000 1.0
C      1  0.5423330000000  0.4821760000000  0.4933500000000 1.0
C      1  0.4711980000000  0.5355240000000  0.5155770000000 1.0
C      1  0.5410170000000  0.5219250000000  0.5180410000000 1.0
C      1  0.5746620000000  0.5104020000000  0.5614170000000 1.0
C      1  0.4708750000000  0.5100980000000  0.4995540000000 1.0
C      1  0.5334330000000  0.4942830000000  0.5191090000000 1.0
C      1  0.5769410000000  0.5365980000000  0.5459330000000 1.0
C      1  0.5415710000000  0.4479450000000  0.5151830000000 1.0
C      1  0.5168660000000  0.4092780000000  0.4986670000000 1.0
END
