TITL C-4164238-4211-338 48.6573974273998 125000 -28454.7966765498 0 0 192 (C1) n - 1
REM
REM in /home/nfs/bkarasulu/CARBON/AIRSS/Generating-Clusters/ReaxFF-fromJPCA2015/Units_Real/with-SteepDescent/Only-C1/SD-CG/Try1-3A/FIRE-CG
REM
REM
REM
REM
REM
REM ./C.cell (11c1c37f851c82e70ff6c80c92926a4b)
REM
REM compiler GCC version 9.2.1 20190827 (Red Hat 9.2.1-1)
REM options -cpp -mtune=generic -march=x86-64 -g -O0 -fpre-include=/usr/include/finclude/math-vector-fortran.h
REM seed 133981323 -99283848 -1085832688 730946355 1399235727 1804764360 903176716 -17638536 2128847593 2075104700 -1302266225 -1875257803 840932286 -356147532 1610335221 -116831129 -1190737165 1148416862 857852108 1968794752 966913216 1467683366 1423698828 -1844828402 76113818 1254499270 -1283838732 461970127 623905473 2126976652 121971306 183850155 -1162331009
REM
CELL 1.54180   50.00000   50.00000   50.00000   90.00000   90.00000   90.00000
LATT -1
SFAC C  
C      1  0.5167600000000  0.4326720000000  0.6037940000000 1.0
C      1  0.3978820000000  0.5392070000000  0.5189870000000 1.0
C      1  0.5752020000000  0.4172080000000  0.5012670000000 1.0
C      1  0.4760870000000  0.5068680000000  0.4786110000000 1.0
C      1  0.4326450000000  0.5132100000000  0.4877840000000 1.0
C      1  0.4600530000000  0.4594470000000  0.5875530000000 1.0
C      1  0.5261040000000  0.4254020000000  0.4171640000000 1.0
C      1  0.5267340000000  0.4943770000000  0.4797140000000 1.0
C      1  0.5631880000000  0.5243600000000  0.4800050000000 1.0
C      1  0.5819340000000  0.4332020000000  0.4590540000000 1.0
C      1  0.5170860000000  0.3933940000000  0.4541450000000 1.0
C      1  0.5310770000000  0.4365630000000  0.5372610000000 1.0
C      1  0.5460880000000  0.4290440000000  0.5614340000000 1.0
C      1  0.4828640000000  0.5258110000000  0.6034950000000 1.0
C      1  0.5196740000000  0.4472970000000  0.3975360000000 1.0
C      1  0.5473420000000  0.4609520000000  0.4377530000000 1.0
C      1  0.4877980000000  0.3871510000000  0.4592360000000 1.0
C      1  0.4576170000000  0.4178020000000  0.4273770000000 1.0
C      1  0.5604300000000  0.4550570000000  0.5730310000000 1.0
C      1  0.4698390000000  0.4296930000000  0.4027880000000 1.0
C      1  0.4338310000000  0.4631480000000  0.4891000000000 1.0
C      1  0.4880520000000  0.5540960000000  0.4962460000000 1.0
C      1  0.4331930000000  0.4909440000000  0.5401690000000 1.0
C      1  0.5858880000000  0.4596770000000  0.5611520000000 1.0
C      1  0.4953040000000  0.5958860000000  0.4398770000000 1.0
C      1  0.5233110000000  0.4167300000000  0.5813390000000 1.0
C      1  0.5445450000000  0.4737900000000  0.5864500000000 1.0
C      1  0.3999140000000  0.5431600000000  0.4660030000000 1.0
C      1  0.5730810000000  0.5174660000000  0.5059790000000 1.0
C      1  0.5186940000000  0.5598560000000  0.5878430000000 1.0
C      1  0.4709510000000  0.5603070000000  0.4580440000000 1.0
C      1  0.5071710000000  0.4769300000000  0.4661980000000 1.0
C      1  0.5735710000000  0.5893830000000  0.5228390000000 1.0
C      1  0.4973910000000  0.4878640000000  0.5646010000000 1.0
C      1  0.5709760000000  0.4596560000000  0.4547040000000 1.0
C      1  0.5215740000000  0.4811670000000  0.5500390000000 1.0
C      1  0.4500280000000  0.4975160000000  0.4721660000000 1.0
C      1  0.5145630000000  0.4639390000000  0.5970700000000 1.0
C      1  0.5910430000000  0.5701810000000  0.5246780000000 1.0
C      1  0.6106590000000  0.5434900000000  0.4907400000000 1.0
C      1  0.5033240000000  0.4045210000000  0.5629820000000 1.0
C      1  0.4306900000000  0.5608260000000  0.5484610000000 1.0
C      1  0.4165800000000  0.4498370000000  0.4344040000000 1.0
C      1  0.5236880000000  0.5426230000000  0.4568410000000 1.0
C      1  0.5335940000000  0.5417180000000  0.4991110000000 1.0
C      1  0.5483800000000  0.5470960000000  0.4774030000000 1.0
C      1  0.4126040000000  0.5642270000000  0.5249650000000 1.0
C      1  0.4675840000000  0.4088490000000  0.4542370000000 1.0
C      1  0.4332930000000  0.5810300000000  0.5107370000000 1.0
C      1  0.4802670000000  0.5429990000000  0.4050260000000 1.0
C      1  0.5260130000000  0.5103400000000  0.6064190000000 1.0
C      1  0.5286030000000  0.5606610000000  0.5198380000000 1.0
C      1  0.4441560000000  0.4738260000000  0.3994150000000 1.0
C      1  0.4217000000000  0.5812280000000  0.4675460000000 1.0
C      1  0.4679150000000  0.6093490000000  0.4448500000000 1.0
C      1  0.4516530000000  0.5952140000000  0.5298170000000 1.0
C      1  0.5045410000000  0.6029030000000  0.5311680000000 1.0
C      1  0.4184210000000  0.4063740000000  0.5024540000000 1.0
C      1  0.4416580000000  0.5684310000000  0.4858180000000 1.0
C      1  0.5374630000000  0.5112620000000  0.4065910000000 1.0
C      1  0.5939280000000  0.4325790000000  0.4852300000000 1.0
C      1  0.4715070000000  0.5282400000000  0.4990950000000 1.0
C      1  0.5281230000000  0.5072600000000  0.5409360000000 1.0
C      1  0.5458530000000  0.4128270000000  0.4936840000000 1.0
C      1  0.5986660000000  0.4848780000000  0.5627960000000 1.0
C      1  0.5879510000000  0.5478930000000  0.4514350000000 1.0
C      1  0.4683310000000  0.5268340000000  0.5778370000000 1.0
C      1  0.4286420000000  0.4595220000000  0.5757470000000 1.0
C      1  0.4798280000000  0.4353520000000  0.5275300000000 1.0
C      1  0.4759130000000  0.5546570000000  0.5409130000000 1.0
C      1  0.5483390000000  0.5366720000000  0.4148760000000 1.0
C      1  0.5703990000000  0.5331670000000  0.4336720000000 1.0
C      1  0.4949570000000  0.5095620000000  0.4323690000000 1.0
C      1  0.5429800000000  0.5818610000000  0.4379280000000 1.0
C      1  0.4319860000000  0.4736060000000  0.4275720000000 1.0
C      1  0.5382680000000  0.4628440000000  0.4899550000000 1.0
C      1  0.4992470000000  0.5790520000000  0.5770970000000 1.0
C      1  0.4444990000000  0.4432200000000  0.3964680000000 1.0
C      1  0.4787770000000  0.6159690000000  0.4972370000000 1.0
C      1  0.4436360000000  0.5395600000000  0.5005140000000 1.0
C      1  0.5680900000000  0.5492820000000  0.5740690000000 1.0
C      1  0.5927150000000  0.4448260000000  0.5362650000000 1.0
C      1  0.3929920000000  0.5294990000000  0.4917370000000 1.0
C      1  0.4388210000000  0.5323900000000  0.5750620000000 1.0
C      1  0.5275160000000  0.4382630000000  0.4842070000000 1.0
C      1  0.4848580000000  0.5924060000000  0.4853010000000 1.0
C      1  0.5273990000000  0.5942350000000  0.5132820000000 1.0
C      1  0.4944470000000  0.4590010000000  0.5137690000000 1.0
C      1  0.4459450000000  0.5933390000000  0.4365750000000 1.0
C      1  0.4882560000000  0.4655760000000  0.5799570000000 1.0
C      1  0.4824010000000  0.4235660000000  0.5570720000000 1.0
C      1  0.4313250000000  0.4293820000000  0.4188950000000 1.0
C      1  0.5309280000000  0.5965690000000  0.4817640000000 1.0
C      1  0.4836830000000  0.4737020000000  0.4834330000000 1.0
C      1  0.4561090000000  0.4824630000000  0.6049970000000 1.0
C      1  0.4738860000000  0.4296420000000  0.4762340000000 1.0
C      1  0.4614770000000  0.5215900000000  0.4031360000000 1.0
C      1  0.5780660000000  0.5500170000000  0.5459540000000 1.0
C      1  0.5412390000000  0.5914570000000  0.5602730000000 1.0
C      1  0.4600990000000  0.4858110000000  0.5326670000000 1.0
C      1  0.4107010000000  0.4733970000000  0.5337440000000 1.0
C      1  0.5605150000000  0.4690310000000  0.4112770000000 1.0
C      1  0.4510620000000  0.4844870000000  0.4457820000000 1.0
C      1  0.5093310000000  0.4195600000000  0.4421120000000 1.0
C      1  0.5590700000000  0.4077240000000  0.5451970000000 1.0
C      1  0.4764480000000  0.5179030000000  0.4511300000000 1.0
C      1  0.5202700000000  0.4696880000000  0.4418050000000 1.0
C      1  0.6126410000000  0.4994260000000  0.5440910000000 1.0
C      1  0.5507560000000  0.5466640000000  0.5357430000000 1.0
C      1  0.4501060000000  0.5475240000000  0.5307250000000 1.0
C      1  0.5534470000000  0.5185230000000  0.5337870000000 1.0
C      1  0.4962040000000  0.4944710000000  0.3801930000000 1.0
C      1  0.6051130000000  0.5247170000000  0.5120840000000 1.0
C      1  0.4977520000000  0.5515440000000  0.4690190000000 1.0
C      1  0.5281910000000  0.5569080000000  0.4280760000000 1.0
C      1  0.5649850000000  0.4089020000000  0.4508870000000 1.0
C      1  0.6139410000000  0.4841770000000  0.4900170000000 1.0
C      1  0.4769760000000  0.6088200000000  0.5239890000000 1.0
C      1  0.3923020000000  0.5710420000000  0.4708310000000 1.0
C      1  0.4737920000000  0.5709720000000  0.5652120000000 1.0
C      1  0.5209680000000  0.4990890000000  0.4320280000000 1.0
C      1  0.4114670000000  0.4467270000000  0.5329420000000 1.0
C      1  0.4385810000000  0.4174900000000  0.5509900000000 1.0
C      1  0.5630670000000  0.5116580000000  0.4544790000000 1.0
C      1  0.4256040000000  0.5744680000000  0.4377320000000 1.0
C      1  0.5033380000000  0.4335000000000  0.4674470000000 1.0
C      1  0.5072720000000  0.5961990000000  0.4674110000000 1.0
C      1  0.4643030000000  0.6099350000000  0.4742990000000 1.0
C      1  0.5847200000000  0.4834800000000  0.4166960000000 1.0
C      1  0.5755500000000  0.5674630000000  0.4715490000000 1.0
C      1  0.4188080000000  0.4372610000000  0.5590610000000 1.0
C      1  0.5808960000000  0.4182640000000  0.5295170000000 1.0
C      1  0.6187070000000  0.4998980000000  0.5147900000000 1.0
C      1  0.5176620000000  0.4596470000000  0.5312460000000 1.0
C      1  0.3811130000000  0.4808590000000  0.5375520000000 1.0
C      1  0.4035670000000  0.4196620000000  0.4802310000000 1.0
C      1  0.4799330000000  0.4981780000000  0.6134850000000 1.0
C      1  0.5487930000000  0.4155190000000  0.4291380000000 1.0
C      1  0.5860040000000  0.4622930000000  0.5169930000000 1.0
C      1  0.4694370000000  0.4614510000000  0.5245760000000 1.0
C      1  0.6065330000000  0.4994140000000  0.4664800000000 1.0
C      1  0.5505020000000  0.6001090000000  0.5330720000000 1.0
C      1  0.5204760000000  0.5167670000000  0.4985420000000 1.0
C      1  0.5335770000000  0.5110010000000  0.4552610000000 1.0
C      1  0.5947180000000  0.5679110000000  0.4952380000000 1.0
C      1  0.5106350000000  0.3944550000000  0.5360010000000 1.0
C      1  0.4467190000000  0.5030760000000  0.3862830000000 1.0
C      1  0.4283920000000  0.4460430000000  0.5103510000000 1.0
C      1  0.4160600000000  0.4904020000000  0.4909850000000 1.0
C      1  0.5372460000000  0.4697330000000  0.3915790000000 1.0
C      1  0.5010770000000  0.5495980000000  0.5234740000000 1.0
C      1  0.4283880000000  0.4944290000000  0.6007880000000 1.0
C      1  0.5075440000000  0.4887580000000  0.6134800000000 1.0
C      1  0.5433750000000  0.3977670000000  0.4679380000000 1.0
C      1  0.5449730000000  0.5675040000000  0.5770330000000 1.0
C      1  0.4694520000000  0.4131960000000  0.5069710000000 1.0
C      1  0.5106720000000  0.5351050000000  0.6017110000000 1.0
C      1  0.3995090000000  0.5224690000000  0.5444080000000 1.0
C      1  0.4123090000000  0.4826110000000  0.5785130000000 1.0
C      1  0.3877000000000  0.4999910000000  0.4875300000000 1.0
C      1  0.6063200000000  0.5292900000000  0.4651360000000 1.0
C      1  0.4518980000000  0.5402930000000  0.4495880000000 1.0
C      1  0.4414590000000  0.4105350000000  0.5212450000000 1.0
C      1  0.4241520000000  0.5450660000000  0.4453710000000 1.0
C      1  0.4977300000000  0.5625300000000  0.4151540000000 1.0
C      1  0.4894030000000  0.3922790000000  0.5162810000000 1.0
C      1  0.6048330000000  0.4570130000000  0.4987900000000 1.0
C      1  0.5590880000000  0.4682050000000  0.5098930000000 1.0
C      1  0.5531030000000  0.5891190000000  0.4639400000000 1.0
C      1  0.5063560000000  0.5169300000000  0.5237840000000 1.0
C      1  0.4909070000000  0.4498520000000  0.3963550000000 1.0
C      1  0.4600250000000  0.4574840000000  0.4753190000000 1.0
C      1  0.4694180000000  0.5003270000000  0.4284730000000 1.0
C      1  0.5264800000000  0.4961650000000  0.3844860000000 1.0
C      1  0.5701880000000  0.5204120000000  0.5788510000000 1.0
C      1  0.5636510000000  0.4923040000000  0.5027310000000 1.0
C      1  0.4817610000000  0.5739210000000  0.4336340000000 1.0
C      1  0.5361440000000  0.4099560000000  0.5267390000000 1.0
C      1  0.4487110000000  0.5837180000000  0.5563210000000 1.0
C      1  0.4572640000000  0.4275120000000  0.5701030000000 1.0
C      1  0.4814420000000  0.5114910000000  0.5576920000000 1.0
C      1  0.3918410000000  0.4979260000000  0.5593010000000 1.0
C      1  0.5855890000000  0.4860880000000  0.4485680000000 1.0
C      1  0.4770380000000  0.5099660000000  0.5284890000000 1.0
C      1  0.5129870000000  0.5975900000000  0.5586800000000 1.0
C      1  0.3797010000000  0.4886040000000  0.5109940000000 1.0
C      1  0.4254930000000  0.5242570000000  0.6010980000000 1.0
C      1  0.5501530000000  0.5016760000000  0.5912100000000 1.0
C      1  0.4036900000000  0.4399410000000  0.4593750000000 1.0
C      1  0.4275360000000  0.5177640000000  0.5505010000000 1.0
C      1  0.4775880000000  0.4748250000000  0.3901030000000 1.0
C      1  0.5904550000000  0.5123100000000  0.5594510000000 1.0
END
