TITL C-4164242-3624-289 -0.00387862163300511 125000 -3168.62517281054 0 0 23 (C1) n - 1
REM
REM in /home/nfs/bkarasulu/CARBON/AIRSS/Generating-Clusters/ReaxFF-fromJPCA2015/Units_Real/with-SteepDescent/Only-C1/SD-CG/Try1-3A/FIRE-CG
REM
REM
REM
REM
REM
REM ./C.cell (11c1c37f851c82e70ff6c80c92926a4b)
REM
REM compiler GCC version 9.2.1 20190827 (Red Hat 9.2.1-1)
REM options -cpp -mtune=generic -march=x86-64 -g -O0 -fpre-include=/usr/include/finclude/math-vector-fortran.h
REM seed -1185764399 1740437609 -735118330 -1809651810 -1798518981 1523190802 -1674913112 -2020466184 -1211885419 -1330143506 25246606 1531846238 -453964728 -856434929 -20423554 -280151948 -1259803427 -1102211444 14329590 1762559561 218059691 1758895901 -1213486169 -1377911431 130013830 1884444728 499672920 -303760846 -196159389 134531173 -741632847 451289932 -1888928115
REM
CELL 1.54180   50.00000   50.00000   50.00000   90.00000   90.00000   90.00000
LATT -1
SFAC C  
C      1  0.4668420000000  0.4561590000000  0.4783100000000 1.0
C      1  0.4622340000000  0.4957870000000  0.5342740000000 1.0
C      1  0.4892140000000  0.4774160000000  0.4842550000000 1.0
C      1  0.5329150000000  0.4976630000000  0.5247190000000 1.0
C      1  0.5245480000000  0.5290850000000  0.4732190000000 1.0
C      1  0.5376730000000  0.4604060000000  0.4905900000000 1.0
C      1  0.4892980000000  0.4705390000000  0.5154120000000 1.0
C      1  0.4803670000000  0.5320730000000  0.4931450000000 1.0
C      1  0.5127690000000  0.4776420000000  0.5327950000000 1.0
C      1  0.5628890000000  0.4990280000000  0.4804830000000 1.0
C      1  0.5511730000000  0.4843720000000  0.5047630000000 1.0
C      1  0.5327820000000  0.5528010000000  0.4691760000000 1.0
C      1  0.5185600000000  0.5245200000000  0.5240360000000 1.0
C      1  0.4755430000000  0.5061790000000  0.4758310000000 1.0
C      1  0.4628030000000  0.5084290000000  0.4544930000000 1.0
C      1  0.4609770000000  0.5392680000000  0.5138620000000 1.0
C      1  0.5090620000000  0.5368710000000  0.4984550000000 1.0
C      1  0.4483960000000  0.4569480000000  0.5008480000000 1.0
C      1  0.4617120000000  0.4697310000000  0.5259680000000 1.0
C      1  0.4977890000000  0.5276910000000  0.5443660000000 1.0
C      1  0.4681870000000  0.5229190000000  0.5391730000000 1.0
C      1  0.5358410000000  0.4987950000000  0.4678990000000 1.0
C      1  0.5184280000000  0.4756770000000  0.4739280000000 1.0
END
