TITL C-4164234-2335-147 17.6276749003907 125000 -27157.7056295924 0 0 180 (C1) n - 1
REM
REM in /home/nfs/bkarasulu/CARBON/AIRSS/Generating-Clusters/ReaxFF-fromJPCA2015/Units_Real/with-SteepDescent/Only-C1/SD-CG/Try1-3A/FIRE-CG
REM
REM
REM
REM
REM
REM ./C.cell (11c1c37f851c82e70ff6c80c92926a4b)
REM
REM compiler GCC version 9.2.1 20190827 (Red Hat 9.2.1-1)
REM options -cpp -mtune=generic -march=x86-64 -g -O0 -fpre-include=/usr/include/finclude/math-vector-fortran.h
REM seed -1027080453 -424863482 -1140559517 806365254 34613393 474260382 -638209312 1112168828 460503778 209837029 -1292081100 1719090828 -611812858 -204326248 -1239409253 948385976 -1812634118 -655955653 22666229 -792636003 -1553984175 -1019940808 1546571597 -1413061578 2005447702 -199702877 1050920073 1670246607 520265167 164100372 -1311464532 -1399169536 1919079487
REM
CELL 1.54180   50.00000   50.00000   50.00000   90.00000   90.00000   90.00000
LATT -1
SFAC C  
C      1  0.5208610000000  0.5495730000000  0.4954120000000 1.0
C      1  0.4406040000000  0.5597720000000  0.4420450000000 1.0
C      1  0.5106830000000  0.5376810000000  0.4226530000000 1.0
C      1  0.5727650000000  0.4349110000000  0.4379600000000 1.0
C      1  0.5945030000000  0.4568540000000  0.4700990000000 1.0
C      1  0.5281860000000  0.5491330000000  0.4013090000000 1.0
C      1  0.4792720000000  0.4846550000000  0.5749310000000 1.0
C      1  0.5466760000000  0.5888960000000  0.4268300000000 1.0
C      1  0.4573820000000  0.5470520000000  0.4148170000000 1.0
C      1  0.4924120000000  0.4131290000000  0.4982610000000 1.0
C      1  0.5404810000000  0.5696940000000  0.5684510000000 1.0
C      1  0.4676950000000  0.4156460000000  0.5689160000000 1.0
C      1  0.5386110000000  0.4439180000000  0.5409970000000 1.0
C      1  0.4388800000000  0.5333770000000  0.5826130000000 1.0
C      1  0.5478360000000  0.4008940000000  0.4594320000000 1.0
C      1  0.4785540000000  0.5286210000000  0.5449330000000 1.0
C      1  0.4027840000000  0.5281880000000  0.4379030000000 1.0
C      1  0.5525030000000  0.4147480000000  0.4336940000000 1.0
C      1  0.3855500000000  0.4986160000000  0.4631580000000 1.0
C      1  0.5346600000000  0.5240920000000  0.5098290000000 1.0
C      1  0.5963650000000  0.5061000000000  0.4519870000000 1.0
C      1  0.5748900000000  0.5279690000000  0.5722600000000 1.0
C      1  0.4939340000000  0.4592940000000  0.4530740000000 1.0
C      1  0.5415000000000  0.4726920000000  0.4706710000000 1.0
C      1  0.4185700000000  0.5619230000000  0.4964110000000 1.0
C      1  0.5307710000000  0.4214140000000  0.4155340000000 1.0
C      1  0.4424200000000  0.5995940000000  0.5124030000000 1.0
C      1  0.4260120000000  0.5681770000000  0.5464350000000 1.0
C      1  0.5327800000000  0.4481650000000  0.4034810000000 1.0
C      1  0.5398170000000  0.4445610000000  0.5087420000000 1.0
C      1  0.5113500000000  0.5376740000000  0.3820120000000 1.0
C      1  0.4622010000000  0.4659830000000  0.5922750000000 1.0
C      1  0.4758790000000  0.4910600000000  0.5160720000000 1.0
C      1  0.4218730000000  0.4570910000000  0.4299570000000 1.0
C      1  0.5668810000000  0.5872910000000  0.4477620000000 1.0
C      1  0.3969020000000  0.5019710000000  0.4351220000000 1.0
C      1  0.5177000000000  0.4560680000000  0.4687880000000 1.0
C      1  0.4777230000000  0.4036950000000  0.5439530000000 1.0
C      1  0.5076200000000  0.5134170000000  0.4663260000000 1.0
C      1  0.4537260000000  0.5149070000000  0.5451170000000 1.0
C      1  0.3997840000000  0.5217650000000  0.5340540000000 1.0
C      1  0.4846860000000  0.5547020000000  0.4182380000000 1.0
C      1  0.5893930000000  0.4768670000000  0.4492710000000 1.0
C      1  0.4958280000000  0.6017040000000  0.4307420000000 1.0
C      1  0.4614340000000  0.5213100000000  0.4027400000000 1.0
C      1  0.4226760000000  0.5520910000000  0.5236700000000 1.0
C      1  0.4925430000000  0.4410300000000  0.5058570000000 1.0
C      1  0.5100690000000  0.4585010000000  0.6093050000000 1.0
C      1  0.5401870000000  0.5119430000000  0.4367680000000 1.0
C      1  0.5473630000000  0.4113140000000  0.5048730000000 1.0
C      1  0.5205040000000  0.5252590000000  0.5706130000000 1.0
C      1  0.3998600000000  0.4783070000000  0.5213800000000 1.0
C      1  0.4526430000000  0.5785410000000  0.4636590000000 1.0
C      1  0.6051700000000  0.5053270000000  0.5037980000000 1.0
C      1  0.5107190000000  0.5420910000000  0.4676480000000 1.0
C      1  0.4974620000000  0.5878190000000  0.5067500000000 1.0
C      1  0.4451440000000  0.4334270000000  0.5635990000000 1.0
C      1  0.5300210000000  0.5412170000000  0.4448350000000 1.0
C      1  0.5695980000000  0.5587820000000  0.5337400000000 1.0
C      1  0.4951260000000  0.4521530000000  0.5326170000000 1.0
C      1  0.5884940000000  0.5056020000000  0.5531580000000 1.0
C      1  0.4908230000000  0.5190510000000  0.3884900000000 1.0
C      1  0.4648180000000  0.5325950000000  0.5004970000000 1.0
C      1  0.4373210000000  0.5831720000000  0.4882130000000 1.0
C      1  0.4863280000000  0.4232080000000  0.5899470000000 1.0
C      1  0.5285460000000  0.3961020000000  0.5770260000000 1.0
C      1  0.5639700000000  0.4304670000000  0.5486130000000 1.0
C      1  0.5333510000000  0.4692100000000  0.5585510000000 1.0
C      1  0.3925910000000  0.5053180000000  0.5115690000000 1.0
C      1  0.4616940000000  0.4868930000000  0.5428100000000 1.0
C      1  0.4709790000000  0.3987890000000  0.4529980000000 1.0
C      1  0.5046000000000  0.4493350000000  0.3987330000000 1.0
C      1  0.4441470000000  0.4904860000000  0.4511430000000 1.0
C      1  0.5357730000000  0.5911720000000  0.5472500000000 1.0
C      1  0.5457770000000  0.5410560000000  0.5311090000000 1.0
C      1  0.6059580000000  0.5192740000000  0.4778250000000 1.0
C      1  0.5821070000000  0.4306730000000  0.4653300000000 1.0
C      1  0.4425420000000  0.5603420000000  0.5689010000000 1.0
C      1  0.5976230000000  0.4540730000000  0.5237770000000 1.0
C      1  0.4792280000000  0.5451870000000  0.5211670000000 1.0
C      1  0.4572240000000  0.4210100000000  0.4700630000000 1.0
C      1  0.4284000000000  0.4792740000000  0.5716420000000 1.0
C      1  0.4918870000000  0.5065630000000  0.4424170000000 1.0
C      1  0.5075560000000  0.5988730000000  0.5500150000000 1.0
C      1  0.4609320000000  0.4713020000000  0.4035030000000 1.0
C      1  0.4574960000000  0.4137040000000  0.5245720000000 1.0
C      1  0.4951560000000  0.4799090000000  0.4349240000000 1.0
C      1  0.5610740000000  0.5559410000000  0.4504620000000 1.0
C      1  0.5857130000000  0.4523350000000  0.5506550000000 1.0
C      1  0.3993420000000  0.5069030000000  0.5592750000000 1.0
C      1  0.5127020000000  0.4183760000000  0.5776830000000 1.0
C      1  0.4472710000000  0.4959350000000  0.4061230000000 1.0
C      1  0.4517630000000  0.6033240000000  0.5524900000000 1.0
C      1  0.4229230000000  0.5077690000000  0.5769440000000 1.0
C      1  0.5013210000000  0.5616430000000  0.5133120000000 1.0
C      1  0.3890690000000  0.4748150000000  0.4783850000000 1.0
C      1  0.5737180000000  0.5488270000000  0.4246880000000 1.0
C      1  0.5675590000000  0.4962830000000  0.5330300000000 1.0
C      1  0.4342370000000  0.4334440000000  0.4288990000000 1.0
C      1  0.5524880000000  0.5644270000000  0.4101260000000 1.0
C      1  0.5006170000000  0.4780790000000  0.5203450000000 1.0
C      1  0.4229170000000  0.4860750000000  0.4269450000000 1.0
C      1  0.5186590000000  0.5003680000000  0.5286860000000 1.0
C      1  0.5681090000000  0.5543940000000  0.5636610000000 1.0
C      1  0.5969840000000  0.5441180000000  0.4898390000000 1.0
C      1  0.4987340000000  0.3969380000000  0.4465240000000 1.0
C      1  0.4988010000000  0.5925580000000  0.4788820000000 1.0
C      1  0.4540950000000  0.5366590000000  0.4551210000000 1.0
C      1  0.4581950000000  0.4438450000000  0.4126430000000 1.0
C      1  0.5341450000000  0.5165230000000  0.5938380000000 1.0
C      1  0.4398930000000  0.4552610000000  0.5810970000000 1.0
C      1  0.5565170000000  0.4643330000000  0.4940010000000 1.0
C      1  0.4808660000000  0.5797870000000  0.4219070000000 1.0
C      1  0.5750020000000  0.5020280000000  0.5061790000000 1.0
C      1  0.4455650000000  0.4663150000000  0.5279600000000 1.0
C      1  0.5413170000000  0.4899230000000  0.5405910000000 1.0
C      1  0.5123830000000  0.5707230000000  0.5862780000000 1.0
C      1  0.5106540000000  0.4994350000000  0.3955580000000 1.0
C      1  0.4624830000000  0.5817920000000  0.5695010000000 1.0
C      1  0.4111700000000  0.5512840000000  0.4492710000000 1.0
C      1  0.5855740000000  0.4627740000000  0.4977620000000 1.0
C      1  0.5318030000000  0.3939450000000  0.5484790000000 1.0
C      1  0.5671990000000  0.5450490000000  0.4807290000000 1.0
C      1  0.4644260000000  0.6120020000000  0.5274480000000 1.0
C      1  0.4626590000000  0.5115400000000  0.4444500000000 1.0
C      1  0.5575050000000  0.5190990000000  0.4925250000000 1.0
C      1  0.4056530000000  0.4795150000000  0.5500990000000 1.0
C      1  0.5472170000000  0.5623740000000  0.4926160000000 1.0
C      1  0.6043840000000  0.5196740000000  0.5295920000000 1.0
C      1  0.5690520000000  0.4823560000000  0.5908630000000 1.0
C      1  0.4921860000000  0.5852000000000  0.5711430000000 1.0
C      1  0.4297900000000  0.5938170000000  0.5377140000000 1.0
C      1  0.5508370000000  0.4643060000000  0.5840960000000 1.0
C      1  0.5159050000000  0.4474600000000  0.4942670000000 1.0
C      1  0.5061190000000  0.4031350000000  0.5360930000000 1.0
C      1  0.4811340000000  0.5102190000000  0.5989740000000 1.0
C      1  0.5349420000000  0.4656810000000  0.6056650000000 1.0
C      1  0.4134280000000  0.4416350000000  0.4784370000000 1.0
C      1  0.5721230000000  0.4633580000000  0.4298010000000 1.0
C      1  0.5179690000000  0.5174890000000  0.6142000000000 1.0
C      1  0.4848130000000  0.4305470000000  0.4081650000000 1.0
C      1  0.5951480000000  0.5442660000000  0.5190130000000 1.0
C      1  0.4928430000000  0.6068000000000  0.5261810000000 1.0
C      1  0.5491950000000  0.4708370000000  0.4129480000000 1.0
C      1  0.5034080000000  0.4126480000000  0.4213750000000 1.0
C      1  0.3938350000000  0.5175950000000  0.4844520000000 1.0
C      1  0.5263670000000  0.5995530000000  0.4741550000000 1.0
C      1  0.4321590000000  0.5238220000000  0.5267920000000 1.0
C      1  0.5028280000000  0.5522160000000  0.6010650000000 1.0
C      1  0.5526420000000  0.5876070000000  0.5240060000000 1.0
C      1  0.4834270000000  0.4488700000000  0.6040270000000 1.0
C      1  0.5471590000000  0.5909510000000  0.4954380000000 1.0
C      1  0.5036880000000  0.5142880000000  0.5507120000000 1.0
C      1  0.5042070000000  0.4751770000000  0.5664890000000 1.0
C      1  0.5359930000000  0.4972420000000  0.4117040000000 1.0
C      1  0.5339830000000  0.5000260000000  0.4622880000000 1.0
C      1  0.4928050000000  0.4756690000000  0.4074010000000 1.0
C      1  0.4439920000000  0.4384090000000  0.5350300000000 1.0
C      1  0.5617830000000  0.5112940000000  0.5914550000000 1.0
C      1  0.5235850000000  0.5980380000000  0.4457240000000 1.0
C      1  0.4639980000000  0.4072380000000  0.4973380000000 1.0
C      1  0.4509800000000  0.4837280000000  0.5025750000000 1.0
C      1  0.5123120000000  0.4311580000000  0.5465540000000 1.0
C      1  0.4709320000000  0.5443560000000  0.4761800000000 1.0
C      1  0.4624180000000  0.5262810000000  0.5954310000000 1.0
C      1  0.4967890000000  0.5298990000000  0.6153590000000 1.0
C      1  0.4277330000000  0.4280480000000  0.4592200000000 1.0
C      1  0.5288240000000  0.5462540000000  0.5534630000000 1.0
C      1  0.5878160000000  0.5231290000000  0.4296570000000 1.0
C      1  0.5648040000000  0.4117730000000  0.4799760000000 1.0
C      1  0.4517030000000  0.4721810000000  0.4721540000000 1.0
C      1  0.4808810000000  0.5708780000000  0.4674180000000 1.0
C      1  0.5552620000000  0.4073530000000  0.5338860000000 1.0
C      1  0.5182170000000  0.3992840000000  0.4963610000000 1.0
C      1  0.4691610000000  0.4505280000000  0.4654790000000 1.0
C      1  0.3976900000000  0.4572950000000  0.4980970000000 1.0
C      1  0.4439000000000  0.5125450000000  0.5028310000000 1.0
C      1  0.4051430000000  0.5442010000000  0.4775400000000 1.0
C      1  0.5208100000000  0.3943220000000  0.4684260000000 1.0
C      1  0.5852360000000  0.4773140000000  0.5667520000000 1.0
END
