TITL C-4164233-775-546 -4.12557787403734 125000 -9165.07631720191 0 0 63 (C1) n - 1
REM
REM in /home/nfs/bkarasulu/CARBON/AIRSS/Generating-Clusters/ReaxFF-fromJPCA2015/Units_Real/with-SteepDescent/Only-C1/SD-CG/Try1-3A/FIRE-CG
REM
REM
REM
REM
REM
REM ./C.cell (11c1c37f851c82e70ff6c80c92926a4b)
REM
REM compiler GCC version 9.2.1 20190827 (Red Hat 9.2.1-1)
REM options -cpp -mtune=generic -march=x86-64 -g -O0 -fpre-include=/usr/include/finclude/math-vector-fortran.h
REM seed 1098379261 -1656807569 10955628 1968528839 -1122375224 1377440273 23712922 993903809 -1231044271 1852794057 -440737667 919251751 1079901568 -935109831 2087910390 -1320851871 1479251007 -44720641 -1862395599 475795606 -406837512 -1591925816 -1291077126 -1750661762 1893070033 -151546311 -1642910502 1606618111 -204909232 1490814900 -1173457086 1199875009 -60286142
REM
CELL 1.54180   50.00000   50.00000   50.00000   90.00000   90.00000   90.00000
LATT -1
SFAC C  
C      1  0.4448740000000  0.5465120000000  0.4949630000000 1.0
C      1  0.5344540000000  0.5107750000000  0.5500130000000 1.0
C      1  0.5247050000000  0.5345040000000  0.4669180000000 1.0
C      1  0.5384490000000  0.4660710000000  0.5298320000000 1.0
C      1  0.4965260000000  0.5070440000000  0.5698100000000 1.0
C      1  0.5314120000000  0.5514390000000  0.5214840000000 1.0
C      1  0.5595280000000  0.4415280000000  0.4674500000000 1.0
C      1  0.5115560000000  0.4197410000000  0.5320760000000 1.0
C      1  0.5577210000000  0.5410950000000  0.5262560000000 1.0
C      1  0.5678510000000  0.4833000000000  0.4927630000000 1.0
C      1  0.4899590000000  0.4892250000000  0.5249820000000 1.0
C      1  0.4828900000000  0.4371010000000  0.4671930000000 1.0
C      1  0.5054420000000  0.5300460000000  0.4876470000000 1.0
C      1  0.4992020000000  0.5849110000000  0.5080850000000 1.0
C      1  0.5319870000000  0.5887250000000  0.4522400000000 1.0
C      1  0.5670840000000  0.4423490000000  0.4946620000000 1.0
C      1  0.5445770000000  0.4988180000000  0.4956230000000 1.0
C      1  0.4646780000000  0.4445920000000  0.5256340000000 1.0
C      1  0.4991360000000  0.4596830000000  0.5585310000000 1.0
C      1  0.5390550000000  0.4846290000000  0.4508350000000 1.0
C      1  0.4709030000000  0.4814580000000  0.4252350000000 1.0
C      1  0.4261150000000  0.4679790000000  0.5057170000000 1.0
C      1  0.4586480000000  0.4482930000000  0.4762020000000 1.0
C      1  0.5235130000000  0.5681080000000  0.4648090000000 1.0
C      1  0.5053040000000  0.5376840000000  0.5186480000000 1.0
C      1  0.5107240000000  0.5849550000000  0.4854770000000 1.0
C      1  0.5036520000000  0.5138800000000  0.4360580000000 1.0
C      1  0.4532070000000  0.5384330000000  0.5215380000000 1.0
C      1  0.5048440000000  0.5107300000000  0.5402640000000 1.0
C      1  0.5106880000000  0.5712990000000  0.5510740000000 1.0
C      1  0.4442000000000  0.5109760000000  0.5296470000000 1.0
C      1  0.4468230000000  0.4856680000000  0.4395130000000 1.0
C      1  0.5600570000000  0.4714530000000  0.4659790000000 1.0
C      1  0.4688770000000  0.5057210000000  0.5711590000000 1.0
C      1  0.4795470000000  0.5198980000000  0.4793670000000 1.0
C      1  0.4788940000000  0.5516580000000  0.5273300000000 1.0
C      1  0.4515510000000  0.4788680000000  0.4688230000000 1.0
C      1  0.4671250000000  0.5373960000000  0.4591870000000 1.0
C      1  0.5104750000000  0.4407050000000  0.4542740000000 1.0
C      1  0.4750440000000  0.4693580000000  0.5412560000000 1.0
C      1  0.4941880000000  0.4857060000000  0.4439650000000 1.0
C      1  0.4584800000000  0.5075070000000  0.4236720000000 1.0
C      1  0.5487860000000  0.5363730000000  0.5556900000000 1.0
C      1  0.4269190000000  0.4961730000000  0.5116270000000 1.0
C      1  0.5301410000000  0.5138190000000  0.4473560000000 1.0
C      1  0.4822180000000  0.4905750000000  0.4762620000000 1.0
C      1  0.5567300000000  0.5193830000000  0.5088250000000 1.0
C      1  0.4548660000000  0.4938880000000  0.5506120000000 1.0
C      1  0.4778130000000  0.5277170000000  0.4338340000000 1.0
C      1  0.5128460000000  0.4812590000000  0.5717250000000 1.0
C      1  0.5241470000000  0.4805390000000  0.5050730000000 1.0
C      1  0.5311410000000  0.5582890000000  0.5605310000000 1.0
C      1  0.4293170000000  0.4862430000000  0.4856260000000 1.0
C      1  0.5349540000000  0.4252580000000  0.4593010000000 1.0
C      1  0.4972670000000  0.4826000000000  0.4999130000000 1.0
C      1  0.5170630000000  0.4679250000000  0.4446570000000 1.0
C      1  0.4823270000000  0.4213060000000  0.5245810000000 1.0
C      1  0.5379160000000  0.4827520000000  0.5562280000000 1.0
C      1  0.4408380000000  0.5524570000000  0.4665250000000 1.0
C      1  0.5651790000000  0.4621820000000  0.5139700000000 1.0
C      1  0.4886080000000  0.5785910000000  0.5336710000000 1.0
C      1  0.5202260000000  0.4454440000000  0.5445930000000 1.0
C      1  0.4467510000000  0.4474050000000  0.5032070000000 1.0
END
