TITL C-4164241-3639-442 25.1535111967918 125000 -16738.0521977064 0 0 112 (C1) n - 1
REM
REM in /home/nfs/bkarasulu/CARBON/AIRSS/Generating-Clusters/ReaxFF-fromJPCA2015/Units_Real/with-SteepDescent/Only-C1/SD-CG/Try1-3A/FIRE-CG
REM
REM
REM
REM
REM
REM ./C.cell (11c1c37f851c82e70ff6c80c92926a4b)
REM
REM compiler GCC version 9.2.1 20190827 (Red Hat 9.2.1-1)
REM options -cpp -mtune=generic -march=x86-64 -g -O0 -fpre-include=/usr/include/finclude/math-vector-fortran.h
REM seed -473299835 932476765 1648919221 -1335530834 683478433 926551928 2099963879 -767612424 1758224436 -726988468 280116371 1666484889 2011394817 -325090659 545108323 -118735993 1602948174 875338451 -1546759986 632239468 -1542649840 -651993915 -2026632061 -458988687 -431877724 216658340 -1659367685 275306586 1988314790 -660962625 336664758 -559369881 -1016344032
REM
CELL 1.54180   50.00000   50.00000   50.00000   90.00000   90.00000   90.00000
LATT -1
SFAC C  
C      1  0.4526240000000  0.4281770000000  0.4527260000000 1.0
C      1  0.5210700000000  0.4449910000000  0.4447090000000 1.0
C      1  0.6024430000000  0.5024160000000  0.5066370000000 1.0
C      1  0.4592930000000  0.4107410000000  0.4727040000000 1.0
C      1  0.4911990000000  0.4654520000000  0.5378600000000 1.0
C      1  0.4254600000000  0.4456860000000  0.5197060000000 1.0
C      1  0.5833390000000  0.4660070000000  0.5280280000000 1.0
C      1  0.5103940000000  0.5691030000000  0.4941830000000 1.0
C      1  0.5930190000000  0.4828210000000  0.4596190000000 1.0
C      1  0.5216040000000  0.4939220000000  0.5038060000000 1.0
C      1  0.4852670000000  0.5358210000000  0.4796140000000 1.0
C      1  0.4691430000000  0.5659880000000  0.4422730000000 1.0
C      1  0.5479840000000  0.5160290000000  0.5747250000000 1.0
C      1  0.5542990000000  0.5631790000000  0.4843910000000 1.0
C      1  0.4064740000000  0.4913270000000  0.5055970000000 1.0
C      1  0.5392890000000  0.5742370000000  0.5290860000000 1.0
C      1  0.4208220000000  0.5117680000000  0.4902880000000 1.0
C      1  0.4307300000000  0.5033140000000  0.4613610000000 1.0
C      1  0.5248920000000  0.4718200000000  0.4303260000000 1.0
C      1  0.4599740000000  0.4511260000000  0.4909620000000 1.0
C      1  0.4979220000000  0.4406970000000  0.5800540000000 1.0
C      1  0.5210420000000  0.5150950000000  0.5889620000000 1.0
C      1  0.5147860000000  0.5281210000000  0.5264430000000 1.0
C      1  0.5222920000000  0.4181340000000  0.5367860000000 1.0
C      1  0.4431630000000  0.5752500000000  0.4895640000000 1.0
C      1  0.4801540000000  0.5378910000000  0.5643640000000 1.0
C      1  0.4295390000000  0.5407440000000  0.5385330000000 1.0
C      1  0.4546610000000  0.5089130000000  0.5283300000000 1.0
C      1  0.5312960000000  0.4332670000000  0.4671720000000 1.0
C      1  0.4734330000000  0.5090680000000  0.4275190000000 1.0
C      1  0.5585920000000  0.5555850000000  0.5407890000000 1.0
C      1  0.4384540000000  0.5480520000000  0.4786470000000 1.0
C      1  0.4455790000000  0.4533680000000  0.4407620000000 1.0
C      1  0.4665770000000  0.5915710000000  0.4962730000000 1.0
C      1  0.4328690000000  0.4748440000000  0.4563700000000 1.0
C      1  0.4835240000000  0.4563020000000  0.4745540000000 1.0
C      1  0.4824460000000  0.4850130000000  0.4698380000000 1.0
C      1  0.4903310000000  0.5298100000000  0.4124420000000 1.0
C      1  0.4451180000000  0.5658480000000  0.5410420000000 1.0
C      1  0.5396090000000  0.4318100000000  0.5196030000000 1.0
C      1  0.4811780000000  0.4005800000000  0.5041320000000 1.0
C      1  0.5152440000000  0.5196360000000  0.4022130000000 1.0
C      1  0.4377560000000  0.4671830000000  0.4833420000000 1.0
C      1  0.4317530000000  0.5216110000000  0.5608090000000 1.0
C      1  0.5500250000000  0.5436530000000  0.5670450000000 1.0
C      1  0.4890760000000  0.4710600000000  0.5866920000000 1.0
C      1  0.3993440000000  0.4914820000000  0.5341600000000 1.0
C      1  0.4939230000000  0.5021520000000  0.4495190000000 1.0
C      1  0.4906340000000  0.5718750000000  0.5424430000000 1.0
C      1  0.4351360000000  0.5251610000000  0.5134540000000 1.0
C      1  0.4543710000000  0.4066400000000  0.4999370000000 1.0
C      1  0.5212340000000  0.4994900000000  0.4429060000000 1.0
C      1  0.5918310000000  0.5161880000000  0.5288930000000 1.0
C      1  0.4676150000000  0.5659760000000  0.5594820000000 1.0
C      1  0.5605360000000  0.4903100000000  0.4820150000000 1.0
C      1  0.4126950000000  0.4744430000000  0.5519770000000 1.0
C      1  0.5050060000000  0.5389070000000  0.5812980000000 1.0
C      1  0.4946160000000  0.5434380000000  0.5384950000000 1.0
C      1  0.5845920000000  0.5056260000000  0.4427240000000 1.0
C      1  0.5258440000000  0.5251310000000  0.4994310000000 1.0
C      1  0.4782610000000  0.4084130000000  0.5479830000000 1.0
C      1  0.5413770000000  0.5474330000000  0.4380460000000 1.0
C      1  0.5339800000000  0.5790780000000  0.4990900000000 1.0
C      1  0.4156400000000  0.4641380000000  0.5007210000000 1.0
C      1  0.5685660000000  0.5175030000000  0.4811200000000 1.0
C      1  0.5053170000000  0.4921000000000  0.5886080000000 1.0
C      1  0.4914130000000  0.4439170000000  0.4491420000000 1.0
C      1  0.5533770000000  0.4706300000000  0.4364030000000 1.0
C      1  0.4667110000000  0.4828020000000  0.5716740000000 1.0
C      1  0.4773820000000  0.4807590000000  0.4141560000000 1.0
C      1  0.5139070000000  0.4945630000000  0.3857090000000 1.0
C      1  0.5614470000000  0.5537450000000  0.4580630000000 1.0
C      1  0.5374540000000  0.5182470000000  0.4254230000000 1.0
C      1  0.4725340000000  0.4556110000000  0.4279360000000 1.0
C      1  0.5797380000000  0.5300750000000  0.4585320000000 1.0
C      1  0.4935680000000  0.4782180000000  0.5134670000000 1.0
C      1  0.5143090000000  0.4800270000000  0.5491750000000 1.0
C      1  0.4977820000000  0.4008600000000  0.5264020000000 1.0
C      1  0.5518830000000  0.4599230000000  0.5237360000000 1.0
C      1  0.5214730000000  0.5016030000000  0.5311690000000 1.0
C      1  0.4849100000000  0.5809860000000  0.4598470000000 1.0
C      1  0.6071820000000  0.4837840000000  0.4861020000000 1.0
C      1  0.5421950000000  0.4724990000000  0.5494760000000 1.0
C      1  0.4499680000000  0.4344930000000  0.5125550000000 1.0
C      1  0.5103350000000  0.5453850000000  0.4761460000000 1.0
C      1  0.4633380000000  0.4590490000000  0.5542230000000 1.0
C      1  0.4598430000000  0.5102580000000  0.5589230000000 1.0
C      1  0.5607960000000  0.4974830000000  0.4281310000000 1.0
C      1  0.5665050000000  0.4703380000000  0.4636220000000 1.0
C      1  0.4108800000000  0.5015560000000  0.5586280000000 1.0
C      1  0.4459400000000  0.5468100000000  0.4505130000000 1.0
C      1  0.5436700000000  0.4766400000000  0.4974550000000 1.0
C      1  0.5157940000000  0.5571190000000  0.4444160000000 1.0
C      1  0.5833180000000  0.4912760000000  0.5432760000000 1.0
C      1  0.6027180000000  0.4603810000000  0.5068120000000 1.0
C      1  0.5036070000000  0.4740820000000  0.4051100000000 1.0
C      1  0.5414480000000  0.4208380000000  0.4911590000000 1.0
C      1  0.4746870000000  0.4314080000000  0.5659280000000 1.0
C      1  0.4333840000000  0.4569400000000  0.5432590000000 1.0
C      1  0.5572650000000  0.5371070000000  0.4984140000000 1.0
C      1  0.4681690000000  0.4923750000000  0.5105480000000 1.0
C      1  0.5735550000000  0.5386210000000  0.5237450000000 1.0
C      1  0.5248270000000  0.5576710000000  0.5723830000000 1.0
C      1  0.5593260000000  0.4927200000000  0.5605950000000 1.0
C      1  0.5198550000000  0.4285430000000  0.5649110000000 1.0
C      1  0.4480350000000  0.5838530000000  0.5175070000000 1.0
C      1  0.5188470000000  0.5757060000000  0.5492120000000 1.0
C      1  0.4628130000000  0.4975650000000  0.4847190000000 1.0
C      1  0.4927320000000  0.5554430000000  0.4266630000000 1.0
C      1  0.4460980000000  0.5193080000000  0.4431880000000 1.0
C      1  0.4962040000000  0.5891200000000  0.4856070000000 1.0
C      1  0.4625230000000  0.5271430000000  0.4827590000000 1.0
END
