TITL C-4164243-3780-529 7.394154004993 125000 -28672.1514990578 0 0 193 (C1) n - 1
REM
REM in /home/nfs/bkarasulu/CARBON/AIRSS/Generating-Clusters/ReaxFF-fromJPCA2015/Units_Real/with-SteepDescent/Only-C1/SD-CG/Try1-3A/FIRE-CG
REM
REM
REM
REM
REM
REM ./C.cell (11c1c37f851c82e70ff6c80c92926a4b)
REM
REM compiler GCC version 9.2.1 20190827 (Red Hat 9.2.1-1)
REM options -cpp -mtune=generic -march=x86-64 -g -O0 -fpre-include=/usr/include/finclude/math-vector-fortran.h
REM seed -303087093 2099609517 -1519945824 1730943358 -327863370 461515572 2083964359 -1680279882 -1805428904 -615385828 -2014111156 1566585203 -383156926 768744986 1312587871 673729616 -2034755605 -646344640 -1398799036 -2029707397 542227545 -1334409135 1074037290 -839062209 1303240801 -153341065 -120629134 -2087576322 -135668617 -257288476 701271168 1462802894 33655690
REM
CELL 1.54180   50.00000   50.00000   50.00000   90.00000   90.00000   90.00000
LATT -1
SFAC C  
C      1  0.4385230000000  0.4223110000000  0.4465870000000 1.0
C      1  0.5028030000000  0.3977190000000  0.4920490000000 1.0
C      1  0.5161700000000  0.4689250000000  0.5650620000000 1.0
C      1  0.5153520000000  0.4476450000000  0.4509220000000 1.0
C      1  0.5321970000000  0.5883390000000  0.5646980000000 1.0
C      1  0.4446050000000  0.4472370000000  0.4319540000000 1.0
C      1  0.4963160000000  0.3953270000000  0.5209970000000 1.0
C      1  0.5056700000000  0.5731340000000  0.5188130000000 1.0
C      1  0.4659930000000  0.6143170000000  0.5300270000000 1.0
C      1  0.5368140000000  0.5663360000000  0.4179280000000 1.0
C      1  0.5347310000000  0.5275640000000  0.4482830000000 1.0
C      1  0.5646990000000  0.5467210000000  0.5873270000000 1.0
C      1  0.4071130000000  0.5645170000000  0.5505970000000 1.0
C      1  0.4103770000000  0.5502960000000  0.4625180000000 1.0
C      1  0.4739490000000  0.5005850000000  0.4075900000000 1.0
C      1  0.4516020000000  0.4543780000000  0.5923230000000 1.0
C      1  0.4871580000000  0.5658190000000  0.6137270000000 1.0
C      1  0.4476080000000  0.4100220000000  0.5478510000000 1.0
C      1  0.5588310000000  0.5252500000000  0.5026580000000 1.0
C      1  0.4860120000000  0.5851310000000  0.5887760000000 1.0
C      1  0.4875350000000  0.4061590000000  0.4682430000000 1.0
C      1  0.5860940000000  0.4854670000000  0.5649590000000 1.0
C      1  0.5093970000000  0.4377350000000  0.3937180000000 1.0
C      1  0.4058320000000  0.5083600000000  0.4429360000000 1.0
C      1  0.5521750000000  0.5218970000000  0.5297550000000 1.0
C      1  0.4256380000000  0.5073710000000  0.4229040000000 1.0
C      1  0.5484180000000  0.4099650000000  0.4679310000000 1.0
C      1  0.6058260000000  0.5119540000000  0.5234060000000 1.0
C      1  0.5997090000000  0.5078920000000  0.5516040000000 1.0
C      1  0.5578570000000  0.4268770000000  0.5428240000000 1.0
C      1  0.3986830000000  0.4204440000000  0.4809390000000 1.0
C      1  0.4977140000000  0.4894650000000  0.5029290000000 1.0
C      1  0.4149800000000  0.4224590000000  0.5025240000000 1.0
C      1  0.4462350000000  0.4799360000000  0.4571690000000 1.0
C      1  0.3746330000000  0.4743720000000  0.5160310000000 1.0
C      1  0.4733650000000  0.5969940000000  0.4040530000000 1.0
C      1  0.4690070000000  0.5279550000000  0.4008170000000 1.0
C      1  0.4700610000000  0.5527490000000  0.4509320000000 1.0
C      1  0.5024760000000  0.5926040000000  0.4672760000000 1.0
C      1  0.4911110000000  0.5055560000000  0.5259260000000 1.0
C      1  0.3971160000000  0.5125050000000  0.5477060000000 1.0
C      1  0.5302360000000  0.4103870000000  0.4928410000000 1.0
C      1  0.4432130000000  0.4157180000000  0.4912480000000 1.0
C      1  0.4451500000000  0.4719040000000  0.5028320000000 1.0
C      1  0.4572860000000  0.4098430000000  0.4662020000000 1.0
C      1  0.4260390000000  0.4336100000000  0.5522690000000 1.0
C      1  0.5248360000000  0.4616570000000  0.3991920000000 1.0
C      1  0.5134980000000  0.5716580000000  0.4570930000000 1.0
C      1  0.4600310000000  0.6022440000000  0.5551730000000 1.0
C      1  0.4454630000000  0.3849210000000  0.5483000000000 1.0
C      1  0.4089810000000  0.4363300000000  0.5296220000000 1.0
C      1  0.4136510000000  0.4199290000000  0.4607040000000 1.0
C      1  0.4585030000000  0.5244510000000  0.5598210000000 1.0
C      1  0.4353360000000  0.5174660000000  0.4862930000000 1.0
C      1  0.5280440000000  0.4608700000000  0.4866740000000 1.0
C      1  0.4429260000000  0.5560630000000  0.5228460000000 1.0
C      1  0.4724200000000  0.4745540000000  0.3906700000000 1.0
C      1  0.5493140000000  0.5251180000000  0.6004160000000 1.0
C      1  0.5392770000000  0.4918260000000  0.5302570000000 1.0
C      1  0.4089350000000  0.5211010000000  0.4707850000000 1.0
C      1  0.5112820000000  0.4146590000000  0.5658930000000 1.0
C      1  0.4016740000000  0.4738550000000  0.4726680000000 1.0
C      1  0.5331010000000  0.4866150000000  0.6279530000000 1.0
C      1  0.4076830000000  0.5661830000000  0.4874460000000 1.0
C      1  0.4883620000000  0.4203900000000  0.5818800000000 1.0
C      1  0.4564220000000  0.5063760000000  0.4677240000000 1.0
C      1  0.5409020000000  0.5959360000000  0.5378890000000 1.0
C      1  0.5103810000000  0.6004320000000  0.5813410000000 1.0
C      1  0.5514360000000  0.4710730000000  0.6097530000000 1.0
C      1  0.5785090000000  0.4735960000000  0.6129240000000 1.0
C      1  0.5318140000000  0.5586320000000  0.5624450000000 1.0
C      1  0.4500370000000  0.5744450000000  0.4502110000000 1.0
C      1  0.5822380000000  0.4126030000000  0.5027720000000 1.0
C      1  0.4300090000000  0.4703170000000  0.4789660000000 1.0
C      1  0.4955630000000  0.4809390000000  0.3776340000000 1.0
C      1  0.5762200000000  0.5062770000000  0.4913140000000 1.0
C      1  0.5436700000000  0.4864470000000  0.4302560000000 1.0
C      1  0.5452400000000  0.4023110000000  0.5372350000000 1.0
C      1  0.4397710000000  0.6036760000000  0.5367130000000 1.0
C      1  0.4853030000000  0.5714520000000  0.4976130000000 1.0
C      1  0.5541530000000  0.4621990000000  0.4793350000000 1.0
C      1  0.4513110000000  0.5514450000000  0.5691820000000 1.0
C      1  0.4381110000000  0.4791440000000  0.5281950000000 1.0
C      1  0.5276290000000  0.4636870000000  0.4283350000000 1.0
C      1  0.5283870000000  0.5151530000000  0.6210640000000 1.0
C      1  0.4860800000000  0.4439370000000  0.4888490000000 1.0
C      1  0.4509590000000  0.5942270000000  0.4723770000000 1.0
C      1  0.5963580000000  0.4555070000000  0.4407930000000 1.0
C      1  0.5237830000000  0.4829490000000  0.3768200000000 1.0
C      1  0.4268180000000  0.5910110000000  0.4866570000000 1.0
C      1  0.5845130000000  0.5140740000000  0.4187780000000 1.0
C      1  0.5052560000000  0.4194380000000  0.4477840000000 1.0
C      1  0.5071420000000  0.5424750000000  0.5662590000000 1.0
C      1  0.5157400000000  0.3974820000000  0.5427940000000 1.0
C      1  0.4663120000000  0.5771190000000  0.5684530000000 1.0
C      1  0.5168680000000  0.5148750000000  0.5658860000000 1.0
C      1  0.4731080000000  0.4484170000000  0.4299200000000 1.0
C      1  0.5073260000000  0.5292570000000  0.4358990000000 1.0
C      1  0.3865210000000  0.4962510000000  0.4834950000000 1.0
C      1  0.5277550000000  0.4825230000000  0.5047190000000 1.0
C      1  0.5406750000000  0.4776120000000  0.5794730000000 1.0
C      1  0.4625850000000  0.4815330000000  0.5955720000000 1.0
C      1  0.5874790000000  0.4798220000000  0.5920900000000 1.0
C      1  0.4307380000000  0.4772700000000  0.4333950000000 1.0
C      1  0.4940920000000  0.4882200000000  0.4548530000000 1.0
C      1  0.5400600000000  0.6163140000000  0.5021070000000 1.0
C      1  0.4437890000000  0.5309260000000  0.4225120000000 1.0
C      1  0.5051370000000  0.5303770000000  0.4878790000000 1.0
C      1  0.5314670000000  0.4218490000000  0.4043140000000 1.0
C      1  0.4903960000000  0.5806950000000  0.4114740000000 1.0
C      1  0.5498730000000  0.6030690000000  0.4802920000000 1.0
C      1  0.4622960000000  0.5166200000000  0.5322980000000 1.0
C      1  0.4299670000000  0.5556350000000  0.4420390000000 1.0
C      1  0.4219780000000  0.5553190000000  0.5751710000000 1.0
C      1  0.4000510000000  0.5523050000000  0.5108580000000 1.0
C      1  0.5008640000000  0.5509720000000  0.5356010000000 1.0
C      1  0.4417630000000  0.5254510000000  0.5132000000000 1.0
C      1  0.5585030000000  0.4377190000000  0.4084810000000 1.0
C      1  0.4633010000000  0.5634700000000  0.5107270000000 1.0
C      1  0.4746360000000  0.4669180000000  0.5031720000000 1.0
C      1  0.5500600000000  0.5483940000000  0.4886290000000 1.0
C      1  0.5575720000000  0.5887360000000  0.4585880000000 1.0
C      1  0.5432390000000  0.5498970000000  0.5376820000000 1.0
C      1  0.5547370000000  0.4021170000000  0.5092780000000 1.0
C      1  0.5756640000000  0.5245690000000  0.5535240000000 1.0
C      1  0.4878730000000  0.6120460000000  0.5122440000000 1.0
C      1  0.5955030000000  0.5309440000000  0.4865060000000 1.0
C      1  0.4915240000000  0.5055630000000  0.4788580000000 1.0
C      1  0.5131270000000  0.4403150000000  0.5011510000000 1.0
C      1  0.6094060000000  0.5143810000000  0.4187360000000 1.0
C      1  0.4843620000000  0.4921430000000  0.6124930000000 1.0
C      1  0.5806950000000  0.5400280000000  0.4346650000000 1.0
C      1  0.5605490000000  0.4933670000000  0.4061090000000 1.0
C      1  0.5367570000000  0.5065480000000  0.5814880000000 1.0
C      1  0.5822080000000  0.5512330000000  0.5629460000000 1.0
C      1  0.5751690000000  0.4407520000000  0.4339680000000 1.0
C      1  0.4943260000000  0.5431450000000  0.5972490000000 1.0
C      1  0.5253670000000  0.5460100000000  0.4746520000000 1.0
C      1  0.5939300000000  0.4592940000000  0.5253980000000 1.0
C      1  0.5130320000000  0.4934230000000  0.5473470000000 1.0
C      1  0.5713530000000  0.4511650000000  0.5455310000000 1.0
C      1  0.5620120000000  0.4894830000000  0.4716490000000 1.0
C      1  0.5061330000000  0.4801750000000  0.6239830000000 1.0
C      1  0.4797490000000  0.4624900000000  0.5313450000000 1.0
C      1  0.5527130000000  0.5442900000000  0.4276960000000 1.0
C      1  0.4015810000000  0.5053530000000  0.5754110000000 1.0
C      1  0.5391550000000  0.3979930000000  0.4444010000000 1.0
C      1  0.3653960000000  0.4917070000000  0.5004170000000 1.0
C      1  0.4958580000000  0.5389480000000  0.3928600000000 1.0
C      1  0.5689070000000  0.5658280000000  0.4740930000000 1.0
C      1  0.4536870000000  0.4942510000000  0.5703620000000 1.0
C      1  0.5011720000000  0.5303020000000  0.5158860000000 1.0
C      1  0.5650940000000  0.4364540000000  0.4647580000000 1.0
C      1  0.5049150000000  0.4491110000000  0.5299230000000 1.0
C      1  0.5173670000000  0.4423730000000  0.5552490000000 1.0
C      1  0.4668840000000  0.4265740000000  0.5040060000000 1.0
C      1  0.5332660000000  0.5839370000000  0.4416290000000 1.0
C      1  0.5996740000000  0.4848920000000  0.5082790000000 1.0
C      1  0.4595340000000  0.4757550000000  0.5462730000000 1.0
C      1  0.5591310000000  0.4776920000000  0.5541740000000 1.0
C      1  0.5118620000000  0.5633560000000  0.4016830000000 1.0
C      1  0.5886190000000  0.5472860000000  0.4630160000000 1.0
C      1  0.4599630000000  0.5264020000000  0.4464250000000 1.0
C      1  0.5397830000000  0.5062410000000  0.3855690000000 1.0
C      1  0.6137180000000  0.4456100000000  0.4775220000000 1.0
C      1  0.4812430000000  0.6016920000000  0.4840140000000 1.0
C      1  0.5005950000000  0.5195460000000  0.6136400000000 1.0
C      1  0.6152210000000  0.4671910000000  0.4566620000000 1.0
C      1  0.4219080000000  0.4819450000000  0.5683230000000 1.0
C      1  0.4033040000000  0.4796230000000  0.4440430000000 1.0
C      1  0.4882690000000  0.4588080000000  0.4564110000000 1.0
C      1  0.5201430000000  0.4044980000000  0.4254160000000 1.0
C      1  0.5458410000000  0.5010760000000  0.4525860000000 1.0
C      1  0.4708540000000  0.4331670000000  0.5894750000000 1.0
C      1  0.4823660000000  0.4487110000000  0.4021560000000 1.0
C      1  0.5905350000000  0.4266370000000  0.4781570000000 1.0
C      1  0.5666700000000  0.4635420000000  0.3990280000000 1.0
C      1  0.4935870000000  0.5043290000000  0.4311830000000 1.0
C      1  0.4250940000000  0.5788680000000  0.5326840000000 1.0
C      1  0.5193050000000  0.5241000000000  0.3890100000000 1.0
C      1  0.5982960000000  0.5389030000000  0.5150180000000 1.0
C      1  0.4287470000000  0.4533210000000  0.5732460000000 1.0
C      1  0.5150550000000  0.6022410000000  0.5213450000000 1.0
C      1  0.4959460000000  0.5563110000000  0.4393820000000 1.0
C      1  0.5845920000000  0.5597530000000  0.5337740000000 1.0
C      1  0.4101900000000  0.5308100000000  0.5816450000000 1.0
C      1  0.3932830000000  0.4607580000000  0.5317990000000 1.0
C      1  0.5959420000000  0.4324780000000  0.5179850000000 1.0
C      1  0.3963090000000  0.5404350000000  0.5365270000000 1.0
C      1  0.4714230000000  0.4098160000000  0.5271840000000 1.0
C      1  0.5582830000000  0.5731640000000  0.5288940000000 1.0
C      1  0.6159880000000  0.4731450000000  0.4866040000000 1.0
C      1  0.4114650000000  0.4851420000000  0.5399210000000 1.0
END
