TITL C-4164240-4114-468 -0.89135929103286 125000 -11084.5104254153 0 0 75 (C1) n - 1
REM
REM in /home/nfs/bkarasulu/CARBON/AIRSS/Generating-Clusters/ReaxFF-fromJPCA2015/Units_Real/with-SteepDescent/Only-C1/SD-CG/Try1-3A/FIRE-CG
REM
REM
REM
REM
REM
REM ./C.cell (11c1c37f851c82e70ff6c80c92926a4b)
REM
REM compiler GCC version 9.2.1 20190827 (Red Hat 9.2.1-1)
REM options -cpp -mtune=generic -march=x86-64 -g -O0 -fpre-include=/usr/include/finclude/math-vector-fortran.h
REM seed 973325391 2108518514 1948388279 478203900 977955693 -482952939 1773591274 -1586796309 588033881 1358384846 -1948606992 735577160 -972333596 1590635411 -1486937554 2023887205 -473906538 -452233537 1823680264 573975871 -1098703548 -581427258 1516997333 2086309050 1308209895 1857259380 -526539769 1083054726 875367334 -1982550947 161203692 -1257448287 -445712833
REM
CELL 1.54180   50.00000   50.00000   50.00000   90.00000   90.00000   90.00000
LATT -1
SFAC C  
C      1  0.5197960000000  0.4195130000000  0.4952190000000 1.0
C      1  0.4839640000000  0.5658140000000  0.4784240000000 1.0
C      1  0.4722730000000  0.4146450000000  0.4687550000000 1.0
C      1  0.5168510000000  0.4734930000000  0.5742980000000 1.0
C      1  0.4478510000000  0.4363840000000  0.5161950000000 1.0
C      1  0.4732660000000  0.4693230000000  0.4156190000000 1.0
C      1  0.5628430000000  0.4997850000000  0.4508220000000 1.0
C      1  0.5439290000000  0.4843350000000  0.5743810000000 1.0
C      1  0.5377870000000  0.4373180000000  0.4783660000000 1.0
C      1  0.4733340000000  0.5389620000000  0.4837920000000 1.0
C      1  0.4339470000000  0.5109500000000  0.4667540000000 1.0
C      1  0.4232150000000  0.4528120000000  0.5227180000000 1.0
C      1  0.5401680000000  0.5090400000000  0.4352250000000 1.0
C      1  0.5411140000000  0.5617740000000  0.4684250000000 1.0
C      1  0.5631400000000  0.4769630000000  0.5531540000000 1.0
C      1  0.4682620000000  0.5182770000000  0.5589290000000 1.0
C      1  0.5300480000000  0.4450700000000  0.4557480000000 1.0
C      1  0.5112010000000  0.5255640000000  0.5062730000000 1.0
C      1  0.5171760000000  0.4239920000000  0.5235730000000 1.0
C      1  0.5310710000000  0.5679690000000  0.5388160000000 1.0
C      1  0.4385990000000  0.5210940000000  0.5561840000000 1.0
C      1  0.4575340000000  0.5072500000000  0.4205610000000 1.0
C      1  0.5492780000000  0.5382970000000  0.4771930000000 1.0
C      1  0.5604930000000  0.4544730000000  0.4811290000000 1.0
C      1  0.5154220000000  0.5302360000000  0.5657490000000 1.0
C      1  0.4834910000000  0.5622620000000  0.5409170000000 1.0
C      1  0.4686830000000  0.4460500000000  0.5354840000000 1.0
C      1  0.5405180000000  0.5299610000000  0.5056870000000 1.0
C      1  0.4585520000000  0.5662910000000  0.5247780000000 1.0
C      1  0.4535170000000  0.5437290000000  0.5061180000000 1.0
C      1  0.5665250000000  0.4820520000000  0.4730600000000 1.0
C      1  0.5143270000000  0.5034440000000  0.4409880000000 1.0
C      1  0.4959790000000  0.4195460000000  0.4506500000000 1.0
C      1  0.4414840000000  0.4967420000000  0.4924210000000 1.0
C      1  0.5760570000000  0.4873050000000  0.4998790000000 1.0
C      1  0.4270020000000  0.5396940000000  0.4699000000000 1.0
C      1  0.4596160000000  0.5835400000000  0.4796330000000 1.0
C      1  0.5506080000000  0.5530550000000  0.5228220000000 1.0
C      1  0.5015770000000  0.4627990000000  0.4177960000000 1.0
C      1  0.5004550000000  0.5004550000000  0.4663980000000 1.0
C      1  0.4566520000000  0.4261810000000  0.4899310000000 1.0
C      1  0.5559160000000  0.5274130000000  0.4520290000000 1.0
C      1  0.4417730000000  0.4979470000000  0.4414750000000 1.0
C      1  0.4975050000000  0.5241240000000  0.4833310000000 1.0
C      1  0.5370240000000  0.4373560000000  0.5412750000000 1.0
C      1  0.5373820000000  0.5493180000000  0.5614270000000 1.0
C      1  0.4208880000000  0.5092050000000  0.5100070000000 1.0
C      1  0.4436490000000  0.5630200000000  0.4674300000000 1.0
C      1  0.4612150000000  0.4721320000000  0.5456550000000 1.0
C      1  0.4796870000000  0.4951390000000  0.5442500000000 1.0
C      1  0.5082870000000  0.5659050000000  0.4953370000000 1.0
C      1  0.5279640000000  0.5848510000000  0.4785840000000 1.0
C      1  0.4597770000000  0.4726420000000  0.4427530000000 1.0
C      1  0.4541680000000  0.5910060000000  0.5086600000000 1.0
C      1  0.5795980000000  0.4966640000000  0.5394200000000 1.0
C      1  0.4225670000000  0.5031560000000  0.5387330000000 1.0
C      1  0.4797670000000  0.4972470000000  0.4064780000000 1.0
C      1  0.4321650000000  0.4746930000000  0.5408820000000 1.0
C      1  0.5109120000000  0.4421740000000  0.4377220000000 1.0
C      1  0.5009540000000  0.4078460000000  0.4765520000000 1.0
C      1  0.4673130000000  0.4987010000000  0.5048380000000 1.0
C      1  0.4253980000000  0.5365740000000  0.4999670000000 1.0
C      1  0.5081840000000  0.4913280000000  0.4170330000000 1.0
C      1  0.5214350000000  0.5030750000000  0.5756290000000 1.0
C      1  0.4951730000000  0.4356890000000  0.5406480000000 1.0
C      1  0.5700910000000  0.4601460000000  0.5082510000000 1.0
C      1  0.4797660000000  0.4796600000000  0.4635720000000 1.0
C      1  0.5595580000000  0.4548880000000  0.5349480000000 1.0
C      1  0.5152990000000  0.4495220000000  0.5574390000000 1.0
C      1  0.5058430000000  0.5710930000000  0.5244960000000 1.0
C      1  0.5792280000000  0.5231390000000  0.5391470000000 1.0
C      1  0.5632560000000  0.5434630000000  0.5475810000000 1.0
C      1  0.4885080000000  0.5399420000000  0.5590520000000 1.0
C      1  0.4919610000000  0.5033700000000  0.5174790000000 1.0
C      1  0.5701900000000  0.5111340000000  0.5151550000000 1.0
END
