TITL C-4164242-3624-401 7.6370259444295 125000 -5326.41613250697 0 0 38 (C1) n - 1
REM
REM in /home/nfs/bkarasulu/CARBON/AIRSS/Generating-Clusters/ReaxFF-fromJPCA2015/Units_Real/with-SteepDescent/Only-C1/SD-CG/Try1-3A/FIRE-CG
REM
REM
REM
REM
REM
REM ./C.cell (11c1c37f851c82e70ff6c80c92926a4b)
REM
REM compiler GCC version 9.2.1 20190827 (Red Hat 9.2.1-1)
REM options -cpp -mtune=generic -march=x86-64 -g -O0 -fpre-include=/usr/include/finclude/math-vector-fortran.h
REM seed -2004698923 -405207869 902522540 2093274957 -2050444472 -436195454 1595401756 1331209193 1700792569 783510564 548968876 -1661450401 30593580 -911679683 883403910 2074255249 854179627 -712954667 563763560 1514551460 -1072350528 -1941389452 -149292537 1239467217 -2131994393 919017873 -293532109 808117263 -740715547 1511096436 1252967448 -1255419994 30796375
REM
CELL 1.54180   50.00000   50.00000   50.00000   90.00000   90.00000   90.00000
LATT -1
SFAC C  
C      1  0.4966860000000  0.4384900000000  0.5042200000000 1.0
C      1  0.5618880000000  0.5884490000000  0.5143920000000 1.0
C      1  0.4962370000000  0.5170460000000  0.5588520000000 1.0
C      1  0.5057820000000  0.4843580000000  0.5037020000000 1.0
C      1  0.4754230000000  0.4664840000000  0.4671250000000 1.0
C      1  0.4474260000000  0.4787010000000  0.5188610000000 1.0
C      1  0.5476850000000  0.4575400000000  0.4873390000000 1.0
C      1  0.5341530000000  0.5647060000000  0.4800290000000 1.0
C      1  0.5302450000000  0.4410050000000  0.5422310000000 1.0
C      1  0.5515040000000  0.4622660000000  0.5390510000000 1.0
C      1  0.4922560000000  0.5600630000000  0.4490200000000 1.0
C      1  0.5445240000000  0.4671910000000  0.4616630000000 1.0
C      1  0.4868920000000  0.5312710000000  0.4449240000000 1.0
C      1  0.5427600000000  0.4882310000000  0.5527180000000 1.0
C      1  0.4403140000000  0.4988760000000  0.4956170000000 1.0
C      1  0.5194650000000  0.5518370000000  0.4618980000000 1.0
C      1  0.5638520000000  0.4625240000000  0.5112810000000 1.0
C      1  0.4959360000000  0.5072930000000  0.4888940000000 1.0
C      1  0.4430940000000  0.5280770000000  0.4954830000000 1.0
C      1  0.4916720000000  0.5314740000000  0.5077390000000 1.0
C      1  0.4674480000000  0.5115450000000  0.5517770000000 1.0
C      1  0.5031100000000  0.4604440000000  0.4601690000000 1.0
C      1  0.5242030000000  0.4718540000000  0.4427480000000 1.0
C      1  0.4511670000000  0.5297820000000  0.5353970000000 1.0
C      1  0.4635660000000  0.5138200000000  0.4507440000000 1.0
C      1  0.5143440000000  0.4591790000000  0.4892270000000 1.0
C      1  0.4305280000000  0.5185630000000  0.5174390000000 1.0
C      1  0.5016250000000  0.5275970000000  0.5337850000000 1.0
C      1  0.5031360000000  0.4459010000000  0.5316410000000 1.0
C      1  0.4725090000000  0.4447890000000  0.4878620000000 1.0
C      1  0.5131980000000  0.5204260000000  0.4625690000000 1.0
C      1  0.5483200000000  0.5770800000000  0.4975070000000 1.0
C      1  0.5139980000000  0.4934540000000  0.5536970000000 1.0
C      1  0.4675210000000  0.4956060000000  0.4745960000000 1.0
C      1  0.4669020000000  0.4849420000000  0.5384400000000 1.0
C      1  0.4637350000000  0.5410120000000  0.5107350000000 1.0
C      1  0.5292030000000  0.5017340000000  0.4450890000000 1.0
C      1  0.4976950000000  0.4763870000000  0.5315400000000 1.0
END
