TITL C-4164233-775-694 129.139885699131 125000 -29559.3543217217 0 0 199 (C1) n - 1
REM
REM in /home/nfs/bkarasulu/CARBON/AIRSS/Generating-Clusters/ReaxFF-fromJPCA2015/Units_Real/with-SteepDescent/Only-C1/SD-CG/Try1-3A/FIRE-CG
REM
REM
REM
REM
REM
REM ./C.cell (11c1c37f851c82e70ff6c80c92926a4b)
REM
REM compiler GCC version 9.2.1 20190827 (Red Hat 9.2.1-1)
REM options -cpp -mtune=generic -march=x86-64 -g -O0 -fpre-include=/usr/include/finclude/math-vector-fortran.h
REM seed 418029957 -1300758751 2078697089 -2134960815 1813110965 -2029307018 -1361747343 957341806 -1772567004 -1912311220 -120351862 -2115644083 -1041320790 1251554152 299162080 659328395 1069144748 1819805672 -1847713568 695034161 -320931309 921629194 1945520064 -1676891112 -1208869722 -1154163550 201227580 1233640511 -384980253 1453627199 -2109659065 1646267660 -22642223
REM
CELL 1.54180   50.00000   50.00000   50.00000   90.00000   90.00000   90.00000
LATT -1
SFAC C  
C      1  0.5169620000000  0.4970130000000  0.6005760000000 1.0
C      1  0.5326480000000  0.5508350000000  0.5994760000000 1.0
C      1  0.5282350000000  0.5155710000000  0.4634340000000 1.0
C      1  0.4561620000000  0.4722130000000  0.3876470000000 1.0
C      1  0.4430910000000  0.5049900000000  0.4516940000000 1.0
C      1  0.4955830000000  0.5065450000000  0.3816500000000 1.0
C      1  0.5622120000000  0.5265630000000  0.5387470000000 1.0
C      1  0.5371880000000  0.4287730000000  0.4149910000000 1.0
C      1  0.4961860000000  0.5193180000000  0.6080310000000 1.0
C      1  0.5543480000000  0.4787500000000  0.5539870000000 1.0
C      1  0.4680980000000  0.5134570000000  0.6069300000000 1.0
C      1  0.4552810000000  0.5380080000000  0.5425830000000 1.0
C      1  0.5308910000000  0.4384490000000  0.5244090000000 1.0
C      1  0.4336460000000  0.5879920000000  0.5159620000000 1.0
C      1  0.4816990000000  0.4164720000000  0.4568990000000 1.0
C      1  0.5620270000000  0.5038780000000  0.6008660000000 1.0
C      1  0.4819840000000  0.5842140000000  0.5677370000000 1.0
C      1  0.3981500000000  0.4961040000000  0.5570360000000 1.0
C      1  0.6173220000000  0.4849530000000  0.5238030000000 1.0
C      1  0.5348540000000  0.5674120000000  0.5781820000000 1.0
C      1  0.4639740000000  0.5926540000000  0.5220110000000 1.0
C      1  0.4220020000000  0.4902210000000  0.4348670000000 1.0
C      1  0.5813240000000  0.5744560000000  0.4912790000000 1.0
C      1  0.4839640000000  0.5695320000000  0.5944700000000 1.0
C      1  0.4528750000000  0.5073350000000  0.5298360000000 1.0
C      1  0.5117180000000  0.4980710000000  0.4226480000000 1.0
C      1  0.4514040000000  0.4204980000000  0.5722890000000 1.0
C      1  0.5629880000000  0.5865310000000  0.5110570000000 1.0
C      1  0.4054160000000  0.5485870000000  0.4259160000000 1.0
C      1  0.6056420000000  0.5247450000000  0.4882400000000 1.0
C      1  0.5455370000000  0.5449650000000  0.4049610000000 1.0
C      1  0.5110470000000  0.5881820000000  0.4314210000000 1.0
C      1  0.5051710000000  0.4710260000000  0.5606590000000 1.0
C      1  0.4871050000000  0.6139580000000  0.5129290000000 1.0
C      1  0.5586130000000  0.5323290000000  0.5985480000000 1.0
C      1  0.5320160000000  0.4773420000000  0.5083630000000 1.0
C      1  0.5060770000000  0.4497710000000  0.5402630000000 1.0
C      1  0.4325920000000  0.5701600000000  0.4645860000000 1.0
C      1  0.4535760000000  0.5474260000000  0.5016110000000 1.0
C      1  0.5152770000000  0.6114540000000  0.5118990000000 1.0
C      1  0.5151580000000  0.5116630000000  0.5528540000000 1.0
C      1  0.5666860000000  0.4043960000000  0.5326100000000 1.0
C      1  0.4470650000000  0.4480460000000  0.4054640000000 1.0
C      1  0.4582210000000  0.4543960000000  0.5436270000000 1.0
C      1  0.5141410000000  0.4114100000000  0.4207940000000 1.0
C      1  0.4750740000000  0.5469560000000  0.4810340000000 1.0
C      1  0.4894010000000  0.5115740000000  0.4336580000000 1.0
C      1  0.5361710000000  0.5836190000000  0.5564980000000 1.0
C      1  0.4247490000000  0.5357000000000  0.5771620000000 1.0
C      1  0.5108040000000  0.4749600000000  0.6156820000000 1.0
C      1  0.4674470000000  0.6299420000000  0.4619260000000 1.0
C      1  0.5055340000000  0.5822110000000  0.5505680000000 1.0
C      1  0.5144340000000  0.5778340000000  0.4804760000000 1.0
C      1  0.4752820000000  0.4456390000000  0.4578870000000 1.0
C      1  0.4555960000000  0.4877290000000  0.6044660000000 1.0
C      1  0.5550940000000  0.5447320000000  0.4796360000000 1.0
C      1  0.4865020000000  0.4163330000000  0.4151340000000 1.0
C      1  0.4580170000000  0.5910100000000  0.5514320000000 1.0
C      1  0.4767160000000  0.5304350000000  0.3887940000000 1.0
C      1  0.5126550000000  0.4986910000000  0.5259680000000 1.0
C      1  0.5739590000000  0.4094340000000  0.5046310000000 1.0
C      1  0.4461390000000  0.3965940000000  0.5244750000000 1.0
C      1  0.4208590000000  0.4608500000000  0.5797310000000 1.0
C      1  0.5611780000000  0.4096780000000  0.4580160000000 1.0
C      1  0.4720060000000  0.3961660000000  0.4760390000000 1.0
C      1  0.4300580000000  0.4310090000000  0.4512030000000 1.0
C      1  0.4256480000000  0.4434970000000  0.4250390000000 1.0
C      1  0.5040300000000  0.5463680000000  0.6027440000000 1.0
C      1  0.4506760000000  0.5544670000000  0.4764960000000 1.0
C      1  0.5167930000000  0.4703760000000  0.4259310000000 1.0
C      1  0.6162450000000  0.4771650000000  0.4950830000000 1.0
C      1  0.4093330000000  0.4317220000000  0.4722380000000 1.0
C      1  0.4369030000000  0.5330460000000  0.4470750000000 1.0
C      1  0.4713670000000  0.5021340000000  0.4543200000000 1.0
C      1  0.4923990000000  0.4539060000000  0.6071180000000 1.0
C      1  0.5015980000000  0.4504910000000  0.4931430000000 1.0
C      1  0.5293130000000  0.5305640000000  0.4427370000000 1.0
C      1  0.4072140000000  0.5392750000000  0.5279530000000 1.0
C      1  0.5539240000000  0.4001750000000  0.4845340000000 1.0
C      1  0.5263360000000  0.4899280000000  0.5679930000000 1.0
C      1  0.4311390000000  0.5807070000000  0.5445240000000 1.0
C      1  0.5595020000000  0.5771860000000  0.5386140000000 1.0
C      1  0.4245350000000  0.5504400000000  0.5502640000000 1.0
C      1  0.4800120000000  0.5138350000000  0.4814130000000 1.0
C      1  0.5216200000000  0.4596720000000  0.4562980000000 1.0
C      1  0.5403440000000  0.5317630000000  0.5217460000000 1.0
C      1  0.5652510000000  0.4775940000000  0.4112580000000 1.0
C      1  0.5165580000000  0.3939450000000  0.5249430000000 1.0
C      1  0.4808220000000  0.4372360000000  0.5501860000000 1.0
C      1  0.4553080000000  0.4820380000000  0.5529150000000 1.0
C      1  0.3969950000000  0.4492500000000  0.5345680000000 1.0
C      1  0.5259540000000  0.5560080000000  0.5183980000000 1.0
C      1  0.5028710000000  0.4322320000000  0.5914220000000 1.0
C      1  0.5395260000000  0.4809580000000  0.6129570000000 1.0
C      1  0.5274770000000  0.4545440000000  0.4042030000000 1.0
C      1  0.4707900000000  0.5583670000000  0.5232250000000 1.0
C      1  0.5484530000000  0.5715970000000  0.4133570000000 1.0
C      1  0.5979700000000  0.4707110000000  0.5386860000000 1.0
C      1  0.3886320000000  0.4611630000000  0.5104490000000 1.0
C      1  0.5235450000000  0.3962710000000  0.4962750000000 1.0
C      1  0.4478540000000  0.4491410000000  0.4655680000000 1.0
C      1  0.5282590000000  0.4316270000000  0.4647200000000 1.0
C      1  0.5351760000000  0.5181810000000  0.4056200000000 1.0
C      1  0.4821270000000  0.4867530000000  0.5642180000000 1.0
C      1  0.5490850000000  0.4570890000000  0.5963370000000 1.0
C      1  0.5897470000000  0.4435340000000  0.5346320000000 1.0
C      1  0.5404150000000  0.6051990000000  0.5007340000000 1.0
C      1  0.4216920000000  0.5749240000000  0.4923080000000 1.0
C      1  0.5809340000000  0.5708510000000  0.4584240000000 1.0
C      1  0.5714010000000  0.5524520000000  0.5503120000000 1.0
C      1  0.4463510000000  0.5835210000000  0.4411850000000 1.0
C      1  0.5420480000000  0.4767390000000  0.3921190000000 1.0
C      1  0.4405100000000  0.5433180000000  0.4185780000000 1.0
C      1  0.5658710000000  0.4984020000000  0.4933170000000 1.0
C      1  0.5606840000000  0.5821220000000  0.4394940000000 1.0
C      1  0.4165770000000  0.4270050000000  0.5275740000000 1.0
C      1  0.4262100000000  0.5024820000000  0.5184160000000 1.0
C      1  0.4898990000000  0.5689600000000  0.4698580000000 1.0
C      1  0.4353630000000  0.4869020000000  0.5811270000000 1.0
C      1  0.4612580000000  0.5654580000000  0.4209530000000 1.0
C      1  0.4057540000000  0.5345060000000  0.4502840000000 1.0
C      1  0.4812410000000  0.4210890000000  0.5739790000000 1.0
C      1  0.5766950000000  0.5001570000000  0.4202310000000 1.0
C      1  0.5808430000000  0.5452810000000  0.4438240000000 1.0
C      1  0.5933100000000  0.5576830000000  0.5095630000000 1.0
C      1  0.5909490000000  0.5167020000000  0.4363240000000 1.0
C      1  0.4901420000000  0.5695150000000  0.4411150000000 1.0
C      1  0.5031710000000  0.5398250000000  0.4326090000000 1.0
C      1  0.4509270000000  0.5224730000000  0.3986000000000 1.0
C      1  0.4244010000000  0.4932190000000  0.4117920000000 1.0
C      1  0.4580540000000  0.5661960000000  0.6056050000000 1.0
C      1  0.5753150000000  0.5247630000000  0.4877000000000 1.0
C      1  0.4402820000000  0.4967490000000  0.3907190000000 1.0
C      1  0.4875210000000  0.3969500000000  0.5188670000000 1.0
C      1  0.5263720000000  0.5007300000000  0.3841050000000 1.0
C      1  0.4512370000000  0.5369540000000  0.5923250000000 1.0
C      1  0.4021650000000  0.4993790000000  0.4835190000000 1.0
C      1  0.5367490000000  0.4120820000000  0.5390350000000 1.0
C      1  0.4961290000000  0.4632760000000  0.4686750000000 1.0
C      1  0.4942870000000  0.3862890000000  0.4915780000000 1.0
C      1  0.5103760000000  0.4133370000000  0.4497730000000 1.0
C      1  0.5894190000000  0.4667810000000  0.4542160000000 1.0
C      1  0.4694030000000  0.5353690000000  0.5673830000000 1.0
C      1  0.6017300000000  0.4929020000000  0.4525170000000 1.0
C      1  0.6097760000000  0.5105420000000  0.5365510000000 1.0
C      1  0.5942650000000  0.4575470000000  0.4866130000000 1.0
C      1  0.6079760000000  0.5334910000000  0.5160790000000 1.0
C      1  0.5724890000000  0.4574450000000  0.4340540000000 1.0
C      1  0.5517880000000  0.5446040000000  0.4511750000000 1.0
C      1  0.4251900000000  0.4864510000000  0.4951060000000 1.0
C      1  0.4011820000000  0.5114570000000  0.5319080000000 1.0
C      1  0.5688770000000  0.4685180000000  0.5785210000000 1.0
C      1  0.4901700000000  0.5150220000000  0.5659950000000 1.0
C      1  0.4524380000000  0.4039370000000  0.4970700000000 1.0
C      1  0.5516280000000  0.4620710000000  0.5241470000000 1.0
C      1  0.5333490000000  0.4766880000000  0.4793210000000 1.0
C      1  0.4788780000000  0.4857980000000  0.3839060000000 1.0
C      1  0.5716810000000  0.4998010000000  0.5443940000000 1.0
C      1  0.5000610000000  0.5635140000000  0.5296800000000 1.0
C      1  0.4634360000000  0.4294890000000  0.4130130000000 1.0
C      1  0.4681320000000  0.5026500000000  0.5055520000000 1.0
C      1  0.4842370000000  0.6275390000000  0.4882600000000 1.0
C      1  0.5726640000000  0.4716000000000  0.5021620000000 1.0
C      1  0.5329130000000  0.5580840000000  0.4914890000000 1.0
C      1  0.4629960000000  0.4480200000000  0.5159870000000 1.0
C      1  0.5093020000000  0.5168490000000  0.4833990000000 1.0
C      1  0.5578090000000  0.4309440000000  0.4356260000000 1.0
C      1  0.5742780000000  0.4232540000000  0.5527760000000 1.0
C      1  0.6165430000000  0.4994290000000  0.4774460000000 1.0
C      1  0.4892970000000  0.4607460000000  0.5152180000000 1.0
C      1  0.4021750000000  0.4669470000000  0.5584240000000 1.0
C      1  0.4566600000000  0.6066340000000  0.4497500000000 1.0
C      1  0.3963160000000  0.4560810000000  0.4624380000000 1.0
C      1  0.4394110000000  0.4568960000000  0.4941470000000 1.0
C      1  0.5488000000000  0.4205120000000  0.5670230000000 1.0
C      1  0.4358870000000  0.4125050000000  0.5459110000000 1.0
C      1  0.4636440000000  0.4599890000000  0.6032870000000 1.0
C      1  0.4144010000000  0.5094810000000  0.5772790000000 1.0
C      1  0.5757100000000  0.5472640000000  0.5794140000000 1.0
C      1  0.5924730000000  0.5085150000000  0.5603730000000 1.0
C      1  0.4085050000000  0.4649520000000  0.4372350000000 1.0
C      1  0.4216240000000  0.4334110000000  0.4992970000000 1.0
C      1  0.5180070000000  0.5756660000000  0.4059090000000 1.0
C      1  0.4728590000000  0.4212980000000  0.5088490000000 1.0
C      1  0.5832520000000  0.4935780000000  0.5846360000000 1.0
C      1  0.5355690000000  0.5967390000000  0.4454870000000 1.0
C      1  0.3858000000000  0.4729130000000  0.4846550000000 1.0
C      1  0.4134390000000  0.5469730000000  0.4999000000000 1.0
C      1  0.5900570000000  0.4336320000000  0.5067210000000 1.0
C      1  0.5064010000000  0.5507220000000  0.4052040000000 1.0
C      1  0.4879180000000  0.4881190000000  0.5185120000000 1.0
C      1  0.5494780000000  0.4987750000000  0.4694800000000 1.0
C      1  0.4816020000000  0.5577680000000  0.3986390000000 1.0
C      1  0.5223360000000  0.4304380000000  0.4945530000000 1.0
C      1  0.4435080000000  0.4438330000000  0.5878130000000 1.0
C      1  0.5201250000000  0.5175400000000  0.5094630000000 1.0
C      1  0.5285380000000  0.6027870000000  0.4735160000000 1.0
C      1  0.4005190000000  0.5283480000000  0.4796630000000 1.0
C      1  0.5327920000000  0.4349310000000  0.5867860000000 1.0
END
