TITL C-4164237-1827-504 14.3574962687427 125000 -28780.4338260835 0 0 190 (C1) n - 1
REM
REM in /home/nfs/bkarasulu/CARBON/AIRSS/Generating-Clusters/ReaxFF-fromJPCA2015/Units_Real/with-SteepDescent/Only-C1/SD-CG/Try1-3A/FIRE-CG
REM
REM
REM
REM
REM
REM ./C.cell (11c1c37f851c82e70ff6c80c92926a4b)
REM
REM compiler GCC version 9.2.1 20190827 (Red Hat 9.2.1-1)
REM options -cpp -mtune=generic -march=x86-64 -g -O0 -fpre-include=/usr/include/finclude/math-vector-fortran.h
REM seed 1020697426 349941937 -1233373698 1775947669 -55296510 995806800 -1318302142 1833146792 -495222467 1461990255 -166124191 -729687991 1702187892 383544584 903897386 -2005106935 138152418 -1129483117 731030693 -1745500179 -1912817450 1949114071 1849405806 -2032856899 -36892071 -1231860530 626253184 239030097 1197329920 -1423217265 1178889022 -808181644 966089158
REM
CELL 1.54180   50.00000   50.00000   50.00000   90.00000   90.00000   90.00000
LATT -1
SFAC C  
C      1  0.4291350000000  0.5645810000000  0.5352650000000 1.0
C      1  0.5645810000000  0.4675380000000  0.6009750000000 1.0
C      1  0.5013900000000  0.5435390000000  0.4271380000000 1.0
C      1  0.4228740000000  0.5152900000000  0.5572340000000 1.0
C      1  0.5104980000000  0.4971650000000  0.4991470000000 1.0
C      1  0.5822640000000  0.4933110000000  0.4243370000000 1.0
C      1  0.5768750000000  0.5878180000000  0.5175110000000 1.0
C      1  0.4485600000000  0.5004190000000  0.4983520000000 1.0
C      1  0.4677710000000  0.4047780000000  0.4413260000000 1.0
C      1  0.4820030000000  0.5136660000000  0.5381000000000 1.0
C      1  0.5747930000000  0.4577990000000  0.4936170000000 1.0
C      1  0.4771640000000  0.5432670000000  0.5262000000000 1.0
C      1  0.4872660000000  0.4509850000000  0.5924240000000 1.0
C      1  0.4280520000000  0.5017690000000  0.5823730000000 1.0
C      1  0.4554300000000  0.4871420000000  0.5800410000000 1.0
C      1  0.4420470000000  0.5683400000000  0.4469550000000 1.0
C      1  0.4436630000000  0.4111260000000  0.5123030000000 1.0
C      1  0.4971720000000  0.5208780000000  0.4031420000000 1.0
C      1  0.5246280000000  0.5568040000000  0.4690600000000 1.0
C      1  0.5788050000000  0.5311310000000  0.5640440000000 1.0
C      1  0.5509070000000  0.5626240000000  0.4061600000000 1.0
C      1  0.3975220000000  0.4503760000000  0.5040590000000 1.0
C      1  0.4354690000000  0.4918210000000  0.5428660000000 1.0
C      1  0.5339770000000  0.4325800000000  0.5938310000000 1.0
C      1  0.4723210000000  0.5369230000000  0.3897710000000 1.0
C      1  0.5271940000000  0.5449860000000  0.4411040000000 1.0
C      1  0.4998660000000  0.3906100000000  0.4868450000000 1.0
C      1  0.5298680000000  0.4054840000000  0.5486030000000 1.0
C      1  0.4763070000000  0.5125020000000  0.5675540000000 1.0
C      1  0.4322130000000  0.5259870000000  0.5040090000000 1.0
C      1  0.5616370000000  0.4568180000000  0.4041350000000 1.0
C      1  0.4135070000000  0.4834250000000  0.4646090000000 1.0
C      1  0.4652210000000  0.3951710000000  0.5231890000000 1.0
C      1  0.5259770000000  0.4523850000000  0.4925340000000 1.0
C      1  0.5670640000000  0.4966870000000  0.5988760000000 1.0
C      1  0.5851510000000  0.5062260000000  0.5782130000000 1.0
C      1  0.4626660000000  0.4560220000000  0.3918530000000 1.0
C      1  0.6113960000000  0.5343550000000  0.4483550000000 1.0
C      1  0.4763030000000  0.4521060000000  0.4996820000000 1.0
C      1  0.5783340000000  0.4215890000000  0.5288410000000 1.0
C      1  0.5545970000000  0.5831820000000  0.4513670000000 1.0
C      1  0.4375080000000  0.4244430000000  0.4816510000000 1.0
C      1  0.3894970000000  0.4821860000000  0.5533820000000 1.0
C      1  0.4405220000000  0.4981130000000  0.4035520000000 1.0
C      1  0.4528180000000  0.5165370000000  0.4540930000000 1.0
C      1  0.4348730000000  0.5210180000000  0.6027410000000 1.0
C      1  0.4507110000000  0.4524650000000  0.4860020000000 1.0
C      1  0.4978690000000  0.5916410000000  0.5430610000000 1.0
C      1  0.4355520000000  0.4758980000000  0.4844830000000 1.0
C      1  0.5147990000000  0.4725500000000  0.6012850000000 1.0
C      1  0.4706720000000  0.5393200000000  0.5865000000000 1.0
C      1  0.3992240000000  0.5479060000000  0.4742040000000 1.0
C      1  0.4964520000000  0.4583930000000  0.5379820000000 1.0
C      1  0.5091090000000  0.4348460000000  0.4265700000000 1.0
C      1  0.5462820000000  0.4535230000000  0.5377590000000 1.0
C      1  0.5016750000000  0.4372450000000  0.4945470000000 1.0
C      1  0.5831670000000  0.5352460000000  0.5046300000000 1.0
C      1  0.5059530000000  0.4085000000000  0.5643900000000 1.0
C      1  0.5119260000000  0.5021940000000  0.5289370000000 1.0
C      1  0.4056390000000  0.5336020000000  0.4477930000000 1.0
C      1  0.5022330000000  0.5198420000000  0.6095810000000 1.0
C      1  0.4048600000000  0.5630830000000  0.5142260000000 1.0
C      1  0.5023150000000  0.6121720000000  0.5003730000000 1.0
C      1  0.5688360000000  0.5391750000000  0.4775820000000 1.0
C      1  0.5948700000000  0.4446560000000  0.5338670000000 1.0
C      1  0.5621350000000  0.4746440000000  0.5454200000000 1.0
C      1  0.4747850000000  0.5285970000000  0.6143180000000 1.0
C      1  0.4531450000000  0.4358630000000  0.5571120000000 1.0
C      1  0.4618970000000  0.4536680000000  0.5791610000000 1.0
C      1  0.5421130000000  0.5017560000000  0.3929830000000 1.0
C      1  0.5777780000000  0.4478810000000  0.5836850000000 1.0
C      1  0.5371530000000  0.5884890000000  0.4746760000000 1.0
C      1  0.4350310000000  0.4287180000000  0.5334670000000 1.0
C      1  0.5691580000000  0.5797380000000  0.5696040000000 1.0
C      1  0.5514290000000  0.5887300000000  0.5023410000000 1.0
C      1  0.5916700000000  0.4961330000000  0.5163860000000 1.0
C      1  0.5720370000000  0.4076060000000  0.5024570000000 1.0
C      1  0.5504090000000  0.3949260000000  0.5144700000000 1.0
C      1  0.4751670000000  0.5913690000000  0.5825460000000 1.0
C      1  0.5275650000000  0.5051520000000  0.4525220000000 1.0
C      1  0.5639810000000  0.5141640000000  0.4111920000000 1.0
C      1  0.4887120000000  0.4687990000000  0.3972780000000 1.0
C      1  0.5376320000000  0.5371960000000  0.4869540000000 1.0
C      1  0.6059580000000  0.5170230000000  0.5003510000000 1.0
C      1  0.4602860000000  0.4942130000000  0.4283370000000 1.0
C      1  0.5402420000000  0.5206300000000  0.5318880000000 1.0
C      1  0.4557630000000  0.5065130000000  0.6190640000000 1.0
C      1  0.5900130000000  0.5515210000000  0.4356410000000 1.0
C      1  0.4829500000000  0.6005010000000  0.4660000000000 1.0
C      1  0.4395770000000  0.4475340000000  0.4063000000000 1.0
C      1  0.5038910000000  0.4468810000000  0.4552050000000 1.0
C      1  0.4738630000000  0.3879290000000  0.4976800000000 1.0
C      1  0.5280620000000  0.5519130000000  0.3911830000000 1.0
C      1  0.5634450000000  0.4156490000000  0.4740720000000 1.0
C      1  0.4805490000000  0.4357900000000  0.5469050000000 1.0
C      1  0.5443990000000  0.5226900000000  0.4364080000000 1.0
C      1  0.5138070000000  0.4565870000000  0.4016610000000 1.0
C      1  0.4603970000000  0.4930510000000  0.5275510000000 1.0
C      1  0.4282270000000  0.5476800000000  0.5603950000000 1.0
C      1  0.5235730000000  0.3970390000000  0.5220570000000 1.0
C      1  0.5361050000000  0.4224920000000  0.4336870000000 1.0
C      1  0.4594660000000  0.6019770000000  0.5126270000000 1.0
C      1  0.4860220000000  0.6108790000000  0.5225030000000 1.0
C      1  0.4158430000000  0.4715770000000  0.5449390000000 1.0
C      1  0.5475300000000  0.4692480000000  0.4477060000000 1.0
C      1  0.5955990000000  0.4561080000000  0.5616330000000 1.0
C      1  0.4014340000000  0.5253630000000  0.4943900000000 1.0
C      1  0.5109130000000  0.4859230000000  0.4387150000000 1.0
C      1  0.3816870000000  0.4753070000000  0.5054140000000 1.0
C      1  0.4648770000000  0.4823230000000  0.6067650000000 1.0
C      1  0.5156700000000  0.4855330000000  0.5751740000000 1.0
C      1  0.5402540000000  0.5828810000000  0.4255390000000 1.0
C      1  0.4756620000000  0.4689640000000  0.5219260000000 1.0
C      1  0.5738780000000  0.5623530000000  0.4574130000000 1.0
C      1  0.5723660000000  0.5442670000000  0.4127090000000 1.0
C      1  0.4939690000000  0.3927910000000  0.4426400000000 1.0
C      1  0.5021370000000  0.5096080000000  0.5814660000000 1.0
C      1  0.4977270000000  0.5527940000000  0.4779250000000 1.0
C      1  0.5105050000000  0.6065390000000  0.4754870000000 1.0
C      1  0.4593960000000  0.5782210000000  0.4249730000000 1.0
C      1  0.3878140000000  0.5396310000000  0.5172880000000 1.0
C      1  0.3885100000000  0.4961750000000  0.4833380000000 1.0
C      1  0.5057110000000  0.4112710000000  0.5047120000000 1.0
C      1  0.4665100000000  0.5070710000000  0.4778450000000 1.0
C      1  0.4466470000000  0.5445090000000  0.5176170000000 1.0
C      1  0.4551950000000  0.4678700000000  0.4389230000000 1.0
C      1  0.5518760000000  0.4464610000000  0.4295910000000 1.0
C      1  0.4358750000000  0.4434020000000  0.4373790000000 1.0
C      1  0.5051970000000  0.5650170000000  0.4043630000000 1.0
C      1  0.3741210000000  0.4902510000000  0.5295740000000 1.0
C      1  0.5205930000000  0.4986450000000  0.6165100000000 1.0
C      1  0.4857220000000  0.5656150000000  0.5483330000000 1.0
C      1  0.5688570000000  0.4898360000000  0.4498190000000 1.0
C      1  0.6072450000000  0.5145570000000  0.4698260000000 1.0
C      1  0.5271100000000  0.5889690000000  0.5458310000000 1.0
C      1  0.4495890000000  0.5223190000000  0.3942430000000 1.0
C      1  0.5289560000000  0.4568780000000  0.4658340000000 1.0
C      1  0.5059720000000  0.4293310000000  0.5859770000000 1.0
C      1  0.4578620000000  0.5446900000000  0.4519250000000 1.0
C      1  0.4590120000000  0.5957390000000  0.4837050000000 1.0
C      1  0.5132420000000  0.4788480000000  0.5476620000000 1.0
C      1  0.4135070000000  0.4472350000000  0.5284270000000 1.0
C      1  0.4122650000000  0.5704540000000  0.4868760000000 1.0
C      1  0.4838480000000  0.5536670000000  0.4529980000000 1.0
C      1  0.5529230000000  0.4239370000000  0.5494530000000 1.0
C      1  0.4228230000000  0.5102940000000  0.4504740000000 1.0
C      1  0.3938320000000  0.5102780000000  0.5603490000000 1.0
C      1  0.3787870000000  0.5191420000000  0.5366520000000 1.0
C      1  0.5575150000000  0.4285440000000  0.5779520000000 1.0
C      1  0.5945010000000  0.4663270000000  0.5126770000000 1.0
C      1  0.5114750000000  0.5866510000000  0.4222020000000 1.0
C      1  0.5265840000000  0.5108270000000  0.4804940000000 1.0
C      1  0.4363010000000  0.5818620000000  0.4725150000000 1.0
C      1  0.5367050000000  0.5345040000000  0.5845650000000 1.0
C      1  0.4915820000000  0.5625210000000  0.5772770000000 1.0
C      1  0.5796410000000  0.4400620000000  0.4687860000000 1.0
C      1  0.5496530000000  0.5291000000000  0.5584850000000 1.0
C      1  0.5860540000000  0.5821090000000  0.5454830000000 1.0
C      1  0.4898150000000  0.4126650000000  0.4246090000000 1.0
C      1  0.5143080000000  0.3930500000000  0.4619140000000 1.0
C      1  0.5857180000000  0.4839300000000  0.5584580000000 1.0
C      1  0.4452240000000  0.5919940000000  0.5356950000000 1.0
C      1  0.5392720000000  0.5794600000000  0.5709100000000 1.0
C      1  0.5490380000000  0.4585190000000  0.5087850000000 1.0
C      1  0.4393840000000  0.4711010000000  0.3921330000000 1.0
C      1  0.4092660000000  0.4385750000000  0.4796850000000 1.0
C      1  0.4857360000000  0.5855880000000  0.4402050000000 1.0
C      1  0.4887040000000  0.4897170000000  0.4808430000000 1.0
C      1  0.5367860000000  0.5737940000000  0.5225540000000 1.0
C      1  0.4122660000000  0.4544090000000  0.4562600000000 1.0
C      1  0.5432910000000  0.5129560000000  0.6051000000000 1.0
C      1  0.5867040000000  0.4651130000000  0.4183880000000 1.0
C      1  0.4916940000000  0.4932410000000  0.4162730000000 1.0
C      1  0.5231850000000  0.5227800000000  0.3882750000000 1.0
C      1  0.5907350000000  0.4498340000000  0.4436750000000 1.0
C      1  0.4924670000000  0.4731240000000  0.4568360000000 1.0
C      1  0.5882280000000  0.5586910000000  0.5648050000000 1.0
C      1  0.4820450000000  0.4069090000000  0.5481320000000 1.0
C      1  0.4405760000000  0.5451340000000  0.5856760000000 1.0
C      1  0.4586270000000  0.5951880000000  0.5606020000000 1.0
C      1  0.5682000000000  0.5145890000000  0.5188860000000 1.0
C      1  0.5781820000000  0.5103500000000  0.4683900000000 1.0
C      1  0.5266770000000  0.5458290000000  0.5146550000000 1.0
C      1  0.4978750000000  0.5470200000000  0.5050530000000 1.0
C      1  0.5223800000000  0.5598230000000  0.5836950000000 1.0
C      1  0.5380870000000  0.4723600000000  0.3955220000000 1.0
C      1  0.5382950000000  0.4571980000000  0.6060960000000 1.0
C      1  0.4472830000000  0.4199030000000  0.4538480000000 1.0
C      1  0.4629550000000  0.5595270000000  0.4039950000000 1.0
C      1  0.5397190000000  0.4075460000000  0.4579940000000 1.0
END
