TITL C-4164233-775-647 66.3847025236574 125000 -26014.5081042832 0 0 177 (C1) n - 1
REM
REM in /home/nfs/bkarasulu/CARBON/AIRSS/Generating-Clusters/ReaxFF-fromJPCA2015/Units_Real/with-SteepDescent/Only-C1/SD-CG/Try1-3A/FIRE-CG
REM
REM
REM
REM
REM
REM ./C.cell (11c1c37f851c82e70ff6c80c92926a4b)
REM
REM compiler GCC version 9.2.1 20190827 (Red Hat 9.2.1-1)
REM options -cpp -mtune=generic -march=x86-64 -g -O0 -fpre-include=/usr/include/finclude/math-vector-fortran.h
REM seed 998618316 609348586 -1327415181 -605516025 1588615895 1551519084 2055302969 -951422944 1603449115 1466012663 -425448334 1710256877 -1636169090 -2143189028 -765523083 -908756098 -1449655945 -1768243669 -1636057342 1349817979 -1340248093 -1536294985 415227344 1483084637 426865953 91640416 1667128067 -1626681143 1124152124 1401842869 7148893 1514021335 47506146
REM
CELL 1.54180   50.00000   50.00000   50.00000   90.00000   90.00000   90.00000
LATT -1
SFAC C  
C      1  0.5140360000000  0.5562640000000  0.5038740000000 1.0
C      1  0.4484810000000  0.4417670000000  0.4153430000000 1.0
C      1  0.4071950000000  0.4359700000000  0.4815650000000 1.0
C      1  0.5775780000000  0.5230380000000  0.5573620000000 1.0
C      1  0.4755650000000  0.5580770000000  0.4130860000000 1.0
C      1  0.5572130000000  0.5780330000000  0.5627510000000 1.0
C      1  0.5062940000000  0.5058380000000  0.6135320000000 1.0
C      1  0.4649540000000  0.5181260000000  0.5305370000000 1.0
C      1  0.5475400000000  0.3957270000000  0.5187940000000 1.0
C      1  0.3925510000000  0.4634740000000  0.4837590000000 1.0
C      1  0.3900670000000  0.5060680000000  0.5043640000000 1.0
C      1  0.5289940000000  0.5525650000000  0.5297920000000 1.0
C      1  0.4436910000000  0.4776620000000  0.5855730000000 1.0
C      1  0.4487660000000  0.5322030000000  0.5892580000000 1.0
C      1  0.5097590000000  0.5523170000000  0.5525310000000 1.0
C      1  0.4674070000000  0.4749130000000  0.4880060000000 1.0
C      1  0.4178280000000  0.5297840000000  0.4411870000000 1.0
C      1  0.5099890000000  0.5884850000000  0.4359740000000 1.0
C      1  0.4449390000000  0.4128080000000  0.5141090000000 1.0
C      1  0.4785780000000  0.6033460000000  0.4784120000000 1.0
C      1  0.5479940000000  0.5268530000000  0.4624880000000 1.0
C      1  0.5832710000000  0.4419670000000  0.5196320000000 1.0
C      1  0.5246990000000  0.4404840000000  0.4777920000000 1.0
C      1  0.5724880000000  0.4485290000000  0.4462450000000 1.0
C      1  0.4862510000000  0.5525070000000  0.5122340000000 1.0
C      1  0.5494230000000  0.5138830000000  0.5112410000000 1.0
C      1  0.4620330000000  0.5087170000000  0.4551320000000 1.0
C      1  0.5491740000000  0.4787130000000  0.5429100000000 1.0
C      1  0.4646540000000  0.5882900000000  0.4542720000000 1.0
C      1  0.4847220000000  0.5731920000000  0.5921960000000 1.0
C      1  0.5871190000000  0.5611370000000  0.4912350000000 1.0
C      1  0.4699290000000  0.5988220000000  0.5315560000000 1.0
C      1  0.4906380000000  0.5396950000000  0.4588930000000 1.0
C      1  0.5941880000000  0.5016720000000  0.5183130000000 1.0
C      1  0.5601800000000  0.4489060000000  0.4189580000000 1.0
C      1  0.4456600000000  0.5047420000000  0.5985700000000 1.0
C      1  0.5028030000000  0.4145680000000  0.5730050000000 1.0
C      1  0.5042030000000  0.4682510000000  0.5673900000000 1.0
C      1  0.5629470000000  0.5138280000000  0.4855030000000 1.0
C      1  0.5208290000000  0.5046020000000  0.3784010000000 1.0
C      1  0.5779730000000  0.5532470000000  0.5586810000000 1.0
C      1  0.5370920000000  0.4624510000000  0.5230050000000 1.0
C      1  0.5924170000000  0.5567700000000  0.5375680000000 1.0
C      1  0.3919810000000  0.4933020000000  0.4778170000000 1.0
C      1  0.5060500000000  0.4224570000000  0.5166760000000 1.0
C      1  0.4302510000000  0.4471410000000  0.5461310000000 1.0
C      1  0.5830800000000  0.5055130000000  0.5799310000000 1.0
C      1  0.5316270000000  0.4689100000000  0.5627940000000 1.0
C      1  0.4922350000000  0.4442060000000  0.5027410000000 1.0
C      1  0.5494880000000  0.4151460000000  0.5424090000000 1.0
C      1  0.4135440000000  0.5086810000000  0.5269460000000 1.0
C      1  0.4300880000000  0.4637680000000  0.4143550000000 1.0
C      1  0.5476660000000  0.5953290000000  0.5405780000000 1.0
C      1  0.5109150000000  0.4656890000000  0.4858930000000 1.0
C      1  0.5397780000000  0.4466080000000  0.5783950000000 1.0
C      1  0.5079080000000  0.6048250000000  0.4826580000000 1.0
C      1  0.5197580000000  0.4152700000000  0.4278990000000 1.0
C      1  0.4707450000000  0.5189510000000  0.3880330000000 1.0
C      1  0.4645030000000  0.5687250000000  0.5284480000000 1.0
C      1  0.3986950000000  0.5305630000000  0.4955770000000 1.0
C      1  0.5103560000000  0.5382790000000  0.4801810000000 1.0
C      1  0.5964900000000  0.4951210000000  0.4409520000000 1.0
C      1  0.4934960000000  0.6049490000000  0.5488440000000 1.0
C      1  0.4110610000000  0.4925960000000  0.5513210000000 1.0
C      1  0.4612130000000  0.5414600000000  0.5480640000000 1.0
C      1  0.5831220000000  0.4737100000000  0.5790020000000 1.0
C      1  0.4348530000000  0.5203480000000  0.4185610000000 1.0
C      1  0.4736370000000  0.4157000000000  0.5595020000000 1.0
C      1  0.4391380000000  0.4924850000000  0.4102630000000 1.0
C      1  0.4320130000000  0.5396830000000  0.5620730000000 1.0
C      1  0.5509390000000  0.5419840000000  0.3951720000000 1.0
C      1  0.4560910000000  0.5373710000000  0.4054760000000 1.0
C      1  0.4654490000000  0.3983710000000  0.4998530000000 1.0
C      1  0.5538690000000  0.5516550000000  0.4534470000000 1.0
C      1  0.5599600000000  0.4684300000000  0.3979670000000 1.0
C      1  0.5775300000000  0.4767040000000  0.4837960000000 1.0
C      1  0.5222590000000  0.4795790000000  0.5067120000000 1.0
C      1  0.5325160000000  0.4860570000000  0.4435440000000 1.0
C      1  0.5868440000000  0.5325100000000  0.4844730000000 1.0
C      1  0.5486240000000  0.4267040000000  0.4856520000000 1.0
C      1  0.5199750000000  0.5071520000000  0.5114910000000 1.0
C      1  0.4907140000000  0.4072730000000  0.4318080000000 1.0
C      1  0.5103150000000  0.3934230000000  0.4797810000000 1.0
C      1  0.5844550000000  0.5149680000000  0.4231830000000 1.0
C      1  0.5249160000000  0.6074360000000  0.5070790000000 1.0
C      1  0.4209260000000  0.5612810000000  0.5432190000000 1.0
C      1  0.4160910000000  0.4530430000000  0.4385490000000 1.0
C      1  0.4442840000000  0.5347780000000  0.4884680000000 1.0
C      1  0.5028160000000  0.4293600000000  0.5980550000000 1.0
C      1  0.4990860000000  0.5232840000000  0.3822740000000 1.0
C      1  0.5259340000000  0.4716600000000  0.4195230000000 1.0
C      1  0.4913900000000  0.4764560000000  0.4408860000000 1.0
C      1  0.4809830000000  0.4981070000000  0.4790430000000 1.0
C      1  0.4645330000000  0.4323770000000  0.5780060000000 1.0
C      1  0.3980840000000  0.4669700000000  0.5096090000000 1.0
C      1  0.4863390000000  0.4671740000000  0.3927150000000 1.0
C      1  0.5336880000000  0.5149620000000  0.4374600000000 1.0
C      1  0.5666120000000  0.5220360000000  0.5978230000000 1.0
C      1  0.5521650000000  0.5956100000000  0.5106510000000 1.0
C      1  0.4817920000000  0.5794210000000  0.4321670000000 1.0
C      1  0.5307560000000  0.4428870000000  0.4122540000000 1.0
C      1  0.5017340000000  0.5254950000000  0.4346110000000 1.0
C      1  0.4463760000000  0.4235610000000  0.4643140000000 1.0
C      1  0.5317280000000  0.4205090000000  0.5683420000000 1.0
C      1  0.4140160000000  0.5629470000000  0.5150410000000 1.0
C      1  0.5235690000000  0.5970550000000  0.4605280000000 1.0
C      1  0.4686770000000  0.4771350000000  0.5318850000000 1.0
C      1  0.4617960000000  0.4931390000000  0.6216270000000 1.0
C      1  0.4134730000000  0.5197710000000  0.5528040000000 1.0
C      1  0.4675430000000  0.4923890000000  0.4014700000000 1.0
C      1  0.5559910000000  0.5754520000000  0.4395570000000 1.0
C      1  0.4722180000000  0.5457600000000  0.5985900000000 1.0
C      1  0.5271120000000  0.5596680000000  0.4009180000000 1.0
C      1  0.5151200000000  0.5759470000000  0.5987320000000 1.0
C      1  0.5366630000000  0.5783660000000  0.5804660000000 1.0
C      1  0.4972840000000  0.5089030000000  0.5651440000000 1.0
C      1  0.4104650000000  0.4461190000000  0.5252750000000 1.0
C      1  0.4877900000000  0.4866300000000  0.5520020000000 1.0
C      1  0.4894430000000  0.3966450000000  0.4587180000000 1.0
C      1  0.5316330000000  0.4331350000000  0.5251680000000 1.0
C      1  0.4728590000000  0.4306450000000  0.4250040000000 1.0
C      1  0.4663310000000  0.6103590000000  0.5038290000000 1.0
C      1  0.4922750000000  0.4601220000000  0.5947930000000 1.0
C      1  0.4819300000000  0.5027740000000  0.4312430000000 1.0
C      1  0.4574040000000  0.4533940000000  0.4669930000000 1.0
C      1  0.4551480000000  0.4298240000000  0.5373070000000 1.0
C      1  0.4198000000000  0.4252710000000  0.5056340000000 1.0
C      1  0.5657180000000  0.5031940000000  0.5337260000000 1.0
C      1  0.5694390000000  0.4300480000000  0.4690440000000 1.0
C      1  0.4526210000000  0.4853750000000  0.5099720000000 1.0
C      1  0.4755570000000  0.4528140000000  0.4444420000000 1.0
C      1  0.4962400000000  0.5337160000000  0.6115540000000 1.0
C      1  0.5560740000000  0.5221880000000  0.4165430000000 1.0
C      1  0.4279690000000  0.4710230000000  0.5618880000000 1.0
C      1  0.4952710000000  0.3976340000000  0.5038900000000 1.0
C      1  0.4426310000000  0.5137640000000  0.5110440000000 1.0
C      1  0.4363340000000  0.5763750000000  0.5246130000000 1.0
C      1  0.4870880000000  0.5350580000000  0.5608600000000 1.0
C      1  0.5422340000000  0.4002060000000  0.4784330000000 1.0
C      1  0.5371620000000  0.4039800000000  0.4498710000000 1.0
C      1  0.4865950000000  0.5889170000000  0.5703140000000 1.0
C      1  0.5110390000000  0.4789900000000  0.4600870000000 1.0
C      1  0.5840420000000  0.4553020000000  0.5588910000000 1.0
C      1  0.5660890000000  0.5820110000000  0.4889070000000 1.0
C      1  0.5070710000000  0.5098950000000  0.4854910000000 1.0
C      1  0.5825890000000  0.4466990000000  0.4921350000000 1.0
C      1  0.5207390000000  0.6074090000000  0.5359150000000 1.0
C      1  0.5026750000000  0.4525260000000  0.3924550000000 1.0
C      1  0.5598590000000  0.4626080000000  0.5947440000000 1.0
C      1  0.5324500000000  0.5797020000000  0.4204790000000 1.0
C      1  0.4903010000000  0.5255720000000  0.5188090000000 1.0
C      1  0.5184490000000  0.4264370000000  0.4536260000000 1.0
C      1  0.4191880000000  0.4284610000000  0.4556720000000 1.0
C      1  0.5013990000000  0.5439780000000  0.4062950000000 1.0
C      1  0.4220920000000  0.5546900000000  0.4580880000000 1.0
C      1  0.4623120000000  0.4003420000000  0.4708530000000 1.0
C      1  0.5374410000000  0.4846560000000  0.3938450000000 1.0
C      1  0.4615800000000  0.4554380000000  0.5930230000000 1.0
C      1  0.6061460000000  0.5248320000000  0.5054460000000 1.0
C      1  0.5341580000000  0.5377870000000  0.5543210000000 1.0
C      1  0.5229710000000  0.5041540000000  0.5881020000000 1.0
C      1  0.4349560000000  0.4949770000000  0.4559080000000 1.0
C      1  0.5955740000000  0.4859830000000  0.4956750000000 1.0
C      1  0.4181190000000  0.5478240000000  0.4897690000000 1.0
C      1  0.5529600000000  0.5915760000000  0.4640040000000 1.0
C      1  0.5391560000000  0.4822740000000  0.5995320000000 1.0
C      1  0.4725170000000  0.4507270000000  0.5217420000000 1.0
C      1  0.5209130000000  0.5479920000000  0.6052760000000 1.0
C      1  0.5787740000000  0.4322920000000  0.5439870000000 1.0
C      1  0.4327900000000  0.4673150000000  0.4576200000000 1.0
C      1  0.5868390000000  0.4720320000000  0.4575310000000 1.0
C      1  0.4891310000000  0.4826730000000  0.6166730000000 1.0
C      1  0.4432330000000  0.5713800000000  0.4561920000000 1.0
C      1  0.4628960000000  0.5352110000000  0.4661770000000 1.0
C      1  0.6062060000000  0.5551730000000  0.5135990000000 1.0
C      1  0.5396130000000  0.5328660000000  0.5858440000000 1.0
C      1  0.4086880000000  0.5061770000000  0.4558910000000 1.0
END
