TITL C-4164235-1454-56 109.781970850029 125000 -27928.2871856813 0 0 188 (C1) n - 1
REM
REM in /home/nfs/bkarasulu/CARBON/AIRSS/Generating-Clusters/ReaxFF-fromJPCA2015/Units_Real/with-SteepDescent/Only-C1/SD-CG/Try1-3A/FIRE-CG
REM
REM
REM
REM
REM
REM ./C.cell (11c1c37f851c82e70ff6c80c92926a4b)
REM
REM compiler GCC version 9.2.1 20190827 (Red Hat 9.2.1-1)
REM options -cpp -mtune=generic -march=x86-64 -g -O0 -fpre-include=/usr/include/finclude/math-vector-fortran.h
REM seed 358119406 -203704770 1952473404 -968235220 -60186030 -322183273 -1442246658 9379690 107632057 1242881275 -1118075515 1825203518 1115915554 -1319076664 -1648548973 -548553574 1887047273 2000340889 -1013453429 -1258573828 -1600381347 -1701839160 203284308 -1246007626 1855160105 750157405 -930758464 1106567640 -1256312677 -324331218 -1991243708 -998344638 284573347
REM
CELL 1.54180   50.00000   50.00000   50.00000   90.00000   90.00000   90.00000
LATT -1
SFAC C  
C      1  0.3932390000000  0.4762880000000  0.4593230000000 1.0
C      1  0.5179220000000  0.5965300000000  0.4426190000000 1.0
C      1  0.4723540000000  0.5980230000000  0.4456870000000 1.0
C      1  0.5319330000000  0.3971950000000  0.4792050000000 1.0
C      1  0.5595660000000  0.5366560000000  0.5796800000000 1.0
C      1  0.5331610000000  0.5755780000000  0.5587030000000 1.0
C      1  0.5047800000000  0.5132410000000  0.5432480000000 1.0
C      1  0.4629780000000  0.4702250000000  0.3995800000000 1.0
C      1  0.4510790000000  0.4040830000000  0.4637120000000 1.0
C      1  0.4725390000000  0.4788990000000  0.5629130000000 1.0
C      1  0.4688410000000  0.5918920000000  0.5530950000000 1.0
C      1  0.4768260000000  0.5214140000000  0.5478620000000 1.0
C      1  0.5580880000000  0.5194300000000  0.4062640000000 1.0
C      1  0.4745970000000  0.4257670000000  0.4239100000000 1.0
C      1  0.5095430000000  0.4921520000000  0.4191350000000 1.0
C      1  0.4451820000000  0.5872800000000  0.4489140000000 1.0
C      1  0.4322320000000  0.5903240000000  0.4743950000000 1.0
C      1  0.4898900000000  0.4810560000000  0.5152680000000 1.0
C      1  0.4940930000000  0.5878370000000  0.4291400000000 1.0
C      1  0.4669950000000  0.4450060000000  0.4899070000000 1.0
C      1  0.4963530000000  0.5657850000000  0.4103150000000 1.0
C      1  0.4169380000000  0.5348720000000  0.5373000000000 1.0
C      1  0.5427270000000  0.6015650000000  0.5153510000000 1.0
C      1  0.4729960000000  0.4000600000000  0.4845450000000 1.0
C      1  0.4722630000000  0.4187880000000  0.5351780000000 1.0
C      1  0.4071700000000  0.5211660000000  0.5601450000000 1.0
C      1  0.4345930000000  0.4492600000000  0.4370650000000 1.0
C      1  0.4417490000000  0.4144090000000  0.5617800000000 1.0
C      1  0.4859970000000  0.6055520000000  0.4703260000000 1.0
C      1  0.3934950000000  0.4667350000000  0.4873260000000 1.0
C      1  0.6042280000000  0.5469930000000  0.5046060000000 1.0
C      1  0.5249660000000  0.5262330000000  0.5573880000000 1.0
C      1  0.4949300000000  0.5941860000000  0.5339610000000 1.0
C      1  0.3981780000000  0.4754120000000  0.5348070000000 1.0
C      1  0.4668870000000  0.5579570000000  0.4756480000000 1.0
C      1  0.5343470000000  0.4417460000000  0.5943040000000 1.0
C      1  0.4767260000000  0.4897780000000  0.4738120000000 1.0
C      1  0.5352390000000  0.4951680000000  0.4410550000000 1.0
C      1  0.4842280000000  0.5037380000000  0.4295070000000 1.0
C      1  0.5363300000000  0.5487170000000  0.5136790000000 1.0
C      1  0.5617540000000  0.5353070000000  0.5162340000000 1.0
C      1  0.4907470000000  0.4668060000000  0.6048420000000 1.0
C      1  0.5444380000000  0.5252790000000  0.4801900000000 1.0
C      1  0.5391250000000  0.4246370000000  0.5710370000000 1.0
C      1  0.4961940000000  0.4607440000000  0.5310390000000 1.0
C      1  0.4626710000000  0.4193450000000  0.5039080000000 1.0
C      1  0.4186810000000  0.4511730000000  0.4923840000000 1.0
C      1  0.5136790000000  0.3858800000000  0.5498170000000 1.0
C      1  0.5746910000000  0.4407900000000  0.4866600000000 1.0
C      1  0.4496030000000  0.5454790000000  0.4070950000000 1.0
C      1  0.5694600000000  0.4322410000000  0.4600500000000 1.0
C      1  0.5730120000000  0.4491010000000  0.4353340000000 1.0
C      1  0.5314680000000  0.4394660000000  0.4948240000000 1.0
C      1  0.5784110000000  0.4679260000000  0.4954620000000 1.0
C      1  0.4945500000000  0.5628820000000  0.5269740000000 1.0
C      1  0.4828670000000  0.4514680000000  0.4092410000000 1.0
C      1  0.5952840000000  0.4530960000000  0.5355080000000 1.0
C      1  0.5279110000000  0.4706550000000  0.4880190000000 1.0
C      1  0.4959680000000  0.4841110000000  0.5808020000000 1.0
C      1  0.5029830000000  0.4002590000000  0.4868440000000 1.0
C      1  0.4681240000000  0.5412350000000  0.5250020000000 1.0
C      1  0.5235400000000  0.5563540000000  0.4083980000000 1.0
C      1  0.4219210000000  0.4843850000000  0.5798490000000 1.0
C      1  0.4996470000000  0.4284720000000  0.5315980000000 1.0
C      1  0.4660380000000  0.5492020000000  0.4484440000000 1.0
C      1  0.4845290000000  0.5194730000000  0.3898190000000 1.0
C      1  0.4948690000000  0.4173740000000  0.5868890000000 1.0
C      1  0.5795660000000  0.4772840000000  0.4322370000000 1.0
C      1  0.5925400000000  0.4683050000000  0.5606380000000 1.0
C      1  0.4529900000000  0.4697780000000  0.4823840000000 1.0
C      1  0.5297530000000  0.3901270000000  0.5283520000000 1.0
C      1  0.5446310000000  0.3978710000000  0.5055360000000 1.0
C      1  0.5262110000000  0.5658930000000  0.4918340000000 1.0
C      1  0.5486040000000  0.4106870000000  0.4584880000000 1.0
C      1  0.5695350000000  0.4880520000000  0.4777170000000 1.0
C      1  0.4416030000000  0.5173690000000  0.4023030000000 1.0
C      1  0.5647800000000  0.5153010000000  0.4926580000000 1.0
C      1  0.6077560000000  0.5247760000000  0.5234570000000 1.0
C      1  0.5274450000000  0.5957090000000  0.4914310000000 1.0
C      1  0.4722820000000  0.5374850000000  0.5792960000000 1.0
C      1  0.4321390000000  0.5058250000000  0.5059850000000 1.0
C      1  0.5958110000000  0.5230800000000  0.4546980000000 1.0
C      1  0.5899470000000  0.5732640000000  0.5099400000000 1.0
C      1  0.4869280000000  0.4961360000000  0.6075980000000 1.0
C      1  0.4861880000000  0.5886390000000  0.5744680000000 1.0
C      1  0.4897820000000  0.3962950000000  0.5681780000000 1.0
C      1  0.5101430000000  0.5763410000000  0.5809890000000 1.0
C      1  0.5603780000000  0.5781880000000  0.4713890000000 1.0
C      1  0.5206660000000  0.5502980000000  0.5402620000000 1.0
C      1  0.5021710000000  0.5302370000000  0.4631820000000 1.0
C      1  0.5481920000000  0.4885790000000  0.5775970000000 1.0
C      1  0.5807890000000  0.5431850000000  0.4404400000000 1.0
C      1  0.5556970000000  0.4369250000000  0.4139530000000 1.0
C      1  0.5289610000000  0.5214580000000  0.4584810000000 1.0
C      1  0.5579510000000  0.5579700000000  0.5612250000000 1.0
C      1  0.5797900000000  0.4926910000000  0.5500700000000 1.0
C      1  0.4830170000000  0.5180750000000  0.4822470000000 1.0
C      1  0.4425540000000  0.5581520000000  0.4334920000000 1.0
C      1  0.5779570000000  0.5156270000000  0.5682870000000 1.0
C      1  0.4635800000000  0.3961980000000  0.5543740000000 1.0
C      1  0.4058020000000  0.4620810000000  0.4368490000000 1.0
C      1  0.5324130000000  0.5302470000000  0.3978490000000 1.0
C      1  0.4205410000000  0.4352180000000  0.5596870000000 1.0
C      1  0.5664980000000  0.4296740000000  0.5613760000000 1.0
C      1  0.4663580000000  0.4907950000000  0.4470370000000 1.0
C      1  0.4497860000000  0.4698700000000  0.4536940000000 1.0
C      1  0.5151570000000  0.6083940000000  0.4675280000000 1.0
C      1  0.5375380000000  0.4885400000000  0.5115160000000 1.0
C      1  0.5188820000000  0.4613900000000  0.5483110000000 1.0
C      1  0.5583470000000  0.4268930000000  0.5074580000000 1.0
C      1  0.4510640000000  0.4216750000000  0.4403580000000 1.0
C      1  0.4065470000000  0.5377780000000  0.4967920000000 1.0
C      1  0.4116660000000  0.4478200000000  0.5343200000000 1.0
C      1  0.6155350000000  0.4977720000000  0.5143170000000 1.0
C      1  0.5729830000000  0.5466490000000  0.5398860000000 1.0
C      1  0.5186010000000  0.4344800000000  0.5530280000000 1.0
C      1  0.4629830000000  0.5000540000000  0.3932880000000 1.0
C      1  0.4374910000000  0.5073740000000  0.5910910000000 1.0
C      1  0.5417010000000  0.4740110000000  0.4615390000000 1.0
C      1  0.5819700000000  0.5613900000000  0.4621230000000 1.0
C      1  0.3903450000000  0.4859730000000  0.5086090000000 1.0
C      1  0.5444560000000  0.5653980000000  0.4250340000000 1.0
C      1  0.4261530000000  0.5762930000000  0.5273440000000 1.0
C      1  0.4066860000000  0.5554040000000  0.5208990000000 1.0
C      1  0.5097610000000  0.4320720000000  0.4615640000000 1.0
C      1  0.3946190000000  0.5049620000000  0.4630960000000 1.0
C      1  0.4469680000000  0.5522660000000  0.5708070000000 1.0
C      1  0.4331960000000  0.5269340000000  0.4889700000000 1.0
C      1  0.5536750000000  0.4639550000000  0.5925070000000 1.0
C      1  0.4987770000000  0.5644150000000  0.4987960000000 1.0
C      1  0.5096710000000  0.4231440000000  0.5036420000000 1.0
C      1  0.4423430000000  0.5377900000000  0.5315350000000 1.0
C      1  0.6246490000000  0.4931870000000  0.4884400000000 1.0
C      1  0.4652620000000  0.5137900000000  0.5969600000000 1.0
C      1  0.4598330000000  0.4354370000000  0.5541590000000 1.0
C      1  0.4272440000000  0.5316410000000  0.5781180000000 1.0
C      1  0.4175530000000  0.4238040000000  0.5016550000000 1.0
C      1  0.4802390000000  0.5802140000000  0.4857930000000 1.0
C      1  0.5740770000000  0.4336820000000  0.5340470000000 1.0
C      1  0.4618030000000  0.4960280000000  0.5445510000000 1.0
C      1  0.6001990000000  0.4718070000000  0.5134880000000 1.0
C      1  0.4916410000000  0.4496500000000  0.4751650000000 1.0
C      1  0.4447040000000  0.5747280000000  0.5513580000000 1.0
C      1  0.4965840000000  0.5535660000000  0.5921560000000 1.0
C      1  0.4939840000000  0.5051570000000  0.5055790000000 1.0
C      1  0.5267150000000  0.4481700000000  0.4435250000000 1.0
C      1  0.5409100000000  0.4795750000000  0.5510770000000 1.0
C      1  0.4075910000000  0.5200240000000  0.4398500000000 1.0
C      1  0.4231000000000  0.5410250000000  0.4393180000000 1.0
C      1  0.5188850000000  0.5089170000000  0.5190270000000 1.0
C      1  0.4309090000000  0.5938860000000  0.5044730000000 1.0
C      1  0.4038660000000  0.4923160000000  0.5584780000000 1.0
C      1  0.5387630000000  0.4228840000000  0.4340790000000 1.0
C      1  0.4595790000000  0.5994640000000  0.5059840000000 1.0
C      1  0.4627040000000  0.5366270000000  0.4926530000000 1.0
C      1  0.5237220000000  0.5059850000000  0.5795910000000 1.0
C      1  0.4338980000000  0.4579320000000  0.5173590000000 1.0
C      1  0.4934850000000  0.4135440000000  0.4429610000000 1.0
C      1  0.5257880000000  0.5961910000000  0.5378400000000 1.0
C      1  0.3928160000000  0.5120340000000  0.4914160000000 1.0
C      1  0.4429090000000  0.4866660000000  0.5234070000000 1.0
C      1  0.5054030000000  0.4413000000000  0.6009860000000 1.0
C      1  0.5431070000000  0.5360010000000  0.6040200000000 1.0
C      1  0.5763760000000  0.4519780000000  0.5784840000000 1.0
C      1  0.5419240000000  0.5832850000000  0.4480630000000 1.0
C      1  0.4832500000000  0.6150240000000  0.5108660000000 1.0
C      1  0.5597230000000  0.4823790000000  0.5286790000000 1.0
C      1  0.5025200000000  0.4753630000000  0.4734160000000 1.0
C      1  0.5218960000000  0.5162270000000  0.6066990000000 1.0
C      1  0.4137130000000  0.4773250000000  0.4136770000000 1.0
C      1  0.4305430000000  0.4064900000000  0.4840730000000 1.0
C      1  0.4862850000000  0.5311660000000  0.4393630000000 1.0
C      1  0.5158390000000  0.5423480000000  0.6090020000000 1.0
C      1  0.5996770000000  0.5428490000000  0.4763280000000 1.0
C      1  0.5941880000000  0.5311540000000  0.5484380000000 1.0
C      1  0.4309810000000  0.4569950000000  0.5765920000000 1.0
C      1  0.4771700000000  0.5469210000000  0.3988820000000 1.0
C      1  0.5115310000000  0.4589040000000  0.4152290000000 1.0
C      1  0.4177780000000  0.5066640000000  0.4153370000000 1.0
C      1  0.4368530000000  0.4604520000000  0.4083710000000 1.0
C      1  0.5353140000000  0.4500660000000  0.3974610000000 1.0
C      1  0.5918960000000  0.4931930000000  0.4554500000000 1.0
C      1  0.6238240000000  0.4849370000000  0.4621920000000 1.0
C      1  0.4582630000000  0.4568250000000  0.5690310000000 1.0
C      1  0.5636330000000  0.5447180000000  0.4196160000000 1.0
C      1  0.5114780000000  0.5102700000000  0.3952450000000 1.0
C      1  0.5674620000000  0.5877680000000  0.4991300000000 1.0
C      1  0.5587730000000  0.4948240000000  0.4219100000000 1.0
END
