TITL C-4164247-2821-172 9.18026640158171 125000 -27041.4140718456 0 0 179 (C1) n - 1
REM
REM in /home/nfs/bkarasulu/CARBON/AIRSS/Generating-Clusters/ReaxFF-fromJPCA2015/Units_Real/with-SteepDescent/Only-C1/SD-CG/Try1-3A/FIRE-CG
REM
REM
REM
REM
REM
REM ./C.cell (11c1c37f851c82e70ff6c80c92926a4b)
REM
REM compiler GCC version 9.2.1 20190827 (Red Hat 9.2.1-1)
REM options -cpp -mtune=generic -march=x86-64 -g -O0 -fpre-include=/usr/include/finclude/math-vector-fortran.h
REM seed 1573284046 1757579831 1401016862 -1823374668 1053502787 1381518815 -1145444223 -1261579323 1399672222 -1660582604 -575284116 -2038531365 1242330406 -1169140480 424135126 -1364556460 221065390 -949781275 1747658332 -1310856933 961844079 -949970221 1426598849 -1850346762 627147043 1000980876 -1605458917 1255691401 -1097010319 576801416 1430359416 299977372 -1524753473
REM
CELL 1.54180   50.00000   50.00000   50.00000   90.00000   90.00000   90.00000
LATT -1
SFAC C  
C      1  0.5011620000000  0.4957740000000  0.4132570000000 1.0
C      1  0.4584970000000  0.5953070000000  0.4483570000000 1.0
C      1  0.6008110000000  0.5438320000000  0.5154000000000 1.0
C      1  0.5099210000000  0.3794770000000  0.4823680000000 1.0
C      1  0.5925900000000  0.4661700000000  0.4693040000000 1.0
C      1  0.4349660000000  0.4378370000000  0.4346900000000 1.0
C      1  0.4805240000000  0.3776750000000  0.4878210000000 1.0
C      1  0.5237300000000  0.3932360000000  0.4599930000000 1.0
C      1  0.4200170000000  0.4819270000000  0.5619920000000 1.0
C      1  0.5140060000000  0.4948230000000  0.5058050000000 1.0
C      1  0.5102030000000  0.4392900000000  0.6030360000000 1.0
C      1  0.5216770000000  0.4637050000000  0.5936960000000 1.0
C      1  0.5260030000000  0.4591560000000  0.5281960000000 1.0
C      1  0.4841230000000  0.4491240000000  0.6079880000000 1.0
C      1  0.4242530000000  0.4529300000000  0.5614290000000 1.0
C      1  0.4994050000000  0.5433730000000  0.5260160000000 1.0
C      1  0.4663710000000  0.3850340000000  0.5125860000000 1.0
C      1  0.5030460000000  0.5914760000000  0.5075110000000 1.0
C      1  0.4410400000000  0.4864930000000  0.5428460000000 1.0
C      1  0.4303170000000  0.5914530000000  0.4898330000000 1.0
C      1  0.5664140000000  0.4653430000000  0.4258800000000 1.0
C      1  0.5660210000000  0.6090250000000  0.4910480000000 1.0
C      1  0.4903140000000  0.5504470000000  0.4772560000000 1.0
C      1  0.4116840000000  0.5504370000000  0.5518920000000 1.0
C      1  0.4357220000000  0.5270720000000  0.5088420000000 1.0
C      1  0.4463660000000  0.4319490000000  0.4873670000000 1.0
C      1  0.4831730000000  0.5722530000000  0.4963690000000 1.0
C      1  0.4978630000000  0.5481510000000  0.4055210000000 1.0
C      1  0.5511620000000  0.4007170000000  0.5016080000000 1.0
C      1  0.4855730000000  0.4169930000000  0.4364590000000 1.0
C      1  0.5816120000000  0.4379730000000  0.5059780000000 1.0
C      1  0.3947510000000  0.5341750000000  0.4864730000000 1.0
C      1  0.4064200000000  0.5317300000000  0.5143010000000 1.0
C      1  0.5809000000000  0.5992490000000  0.4667910000000 1.0
C      1  0.4670850000000  0.4936740000000  0.5988760000000 1.0
C      1  0.4903940000000  0.4985300000000  0.4900050000000 1.0
C      1  0.5413040000000  0.5695720000000  0.4687850000000 1.0
C      1  0.5795500000000  0.5348100000000  0.5829640000000 1.0
C      1  0.5339650000000  0.4219120000000  0.4290790000000 1.0
C      1  0.5173590000000  0.4914660000000  0.4372440000000 1.0
C      1  0.4515070000000  0.5175640000000  0.6039420000000 1.0
C      1  0.4271460000000  0.4513090000000  0.4948360000000 1.0
C      1  0.5272000000000  0.5472920000000  0.4107950000000 1.0
C      1  0.5077380000000  0.5897020000000  0.4479610000000 1.0
C      1  0.4326830000000  0.5425530000000  0.4192360000000 1.0
C      1  0.4758880000000  0.5110700000000  0.5313170000000 1.0
C      1  0.5536130000000  0.4999170000000  0.6070120000000 1.0
C      1  0.5261830000000  0.5399260000000  0.4388420000000 1.0
C      1  0.5326720000000  0.5600200000000  0.5713300000000 1.0
C      1  0.3951020000000  0.5098370000000  0.4705900000000 1.0
C      1  0.5888230000000  0.5023980000000  0.4068930000000 1.0
C      1  0.4828410000000  0.4772350000000  0.4705840000000 1.0
C      1  0.6121590000000  0.5328340000000  0.4925300000000 1.0
C      1  0.4347780000000  0.4863740000000  0.4568250000000 1.0
C      1  0.5616820000000  0.5069350000000  0.4919420000000 1.0
C      1  0.4741590000000  0.4840280000000  0.4098370000000 1.0
C      1  0.4032640000000  0.4434360000000  0.4630130000000 1.0
C      1  0.4929910000000  0.4973080000000  0.5874340000000 1.0
C      1  0.5568260000000  0.4989960000000  0.5512180000000 1.0
C      1  0.5597830000000  0.4270350000000  0.5490480000000 1.0
C      1  0.5150070000000  0.5279240000000  0.5450880000000 1.0
C      1  0.4415700000000  0.5360960000000  0.4820110000000 1.0
C      1  0.5158430000000  0.5628040000000  0.4575100000000 1.0
C      1  0.3941090000000  0.5065730000000  0.5311290000000 1.0
C      1  0.5572740000000  0.4745300000000  0.5670590000000 1.0
C      1  0.5652670000000  0.5769780000000  0.4527840000000 1.0
C      1  0.4762080000000  0.5564100000000  0.5759250000000 1.0
C      1  0.5966350000000  0.4645530000000  0.5447060000000 1.0
C      1  0.5077460000000  0.4738590000000  0.5442970000000 1.0
C      1  0.4541540000000  0.5829060000000  0.5327530000000 1.0
C      1  0.4631790000000  0.5637760000000  0.5144630000000 1.0
C      1  0.4562550000000  0.5511080000000  0.4374600000000 1.0
C      1  0.5812980000000  0.5108280000000  0.5420600000000 1.0
C      1  0.4394530000000  0.5748520000000  0.4442040000000 1.0
C      1  0.5047660000000  0.4308650000000  0.4824170000000 1.0
C      1  0.5073450000000  0.5391400000000  0.4986970000000 1.0
C      1  0.5763070000000  0.5260630000000  0.3943990000000 1.0
C      1  0.4312410000000  0.5331400000000  0.5927070000000 1.0
C      1  0.5470210000000  0.4738950000000  0.5945490000000 1.0
C      1  0.4270210000000  0.4111100000000  0.5350760000000 1.0
C      1  0.6154960000000  0.5131440000000  0.4545300000000 1.0
C      1  0.5932930000000  0.5308650000000  0.5569780000000 1.0
C      1  0.5502630000000  0.5404890000000  0.3938990000000 1.0
C      1  0.5400630000000  0.5756370000000  0.5481320000000 1.0
C      1  0.4689500000000  0.4347430000000  0.5038550000000 1.0
C      1  0.4413510000000  0.4976510000000  0.5115670000000 1.0
C      1  0.5756910000000  0.5558910000000  0.4352460000000 1.0
C      1  0.3998480000000  0.4406640000000  0.4930830000000 1.0
C      1  0.5890200000000  0.4678490000000  0.5143770000000 1.0
C      1  0.6190470000000  0.5037860000000  0.4824930000000 1.0
C      1  0.5350760000000  0.5437740000000  0.4986680000000 1.0
C      1  0.5234750000000  0.4522240000000  0.4745780000000 1.0
C      1  0.5050580000000  0.5454870000000  0.5744130000000 1.0
C      1  0.4939980000000  0.5194340000000  0.3965860000000 1.0
C      1  0.5788280000000  0.4422930000000  0.4779690000000 1.0
C      1  0.4560230000000  0.4510830000000  0.5724660000000 1.0
C      1  0.5350020000000  0.5136000000000  0.4468100000000 1.0
C      1  0.4644920000000  0.5328250000000  0.4645450000000 1.0
C      1  0.5325230000000  0.4715780000000  0.5025160000000 1.0
C      1  0.5786770000000  0.4837850000000  0.4476680000000 1.0
C      1  0.5229890000000  0.4316190000000  0.5301900000000 1.0
C      1  0.5038300000000  0.5024940000000  0.5331130000000 1.0
C      1  0.4015620000000  0.5052420000000  0.5584370000000 1.0
C      1  0.5522670000000  0.4346800000000  0.4645370000000 1.0
C      1  0.4462560000000  0.4051150000000  0.5566000000000 1.0
C      1  0.4917370000000  0.5865750000000  0.5507150000000 1.0
C      1  0.5361740000000  0.5228410000000  0.6003230000000 1.0
C      1  0.5420180000000  0.5192370000000  0.5384550000000 1.0
C      1  0.4111470000000  0.5310590000000  0.5713490000000 1.0
C      1  0.4762180000000  0.6148850000000  0.4862140000000 1.0
C      1  0.6005720000000  0.4918250000000  0.5465780000000 1.0
C      1  0.4572150000000  0.5436680000000  0.5935100000000 1.0
C      1  0.5654940000000  0.4195580000000  0.5206140000000 1.0
C      1  0.4518220000000  0.6071660000000  0.4751740000000 1.0
C      1  0.4440280000000  0.5348070000000  0.3947770000000 1.0
C      1  0.6030970000000  0.5376620000000  0.4647000000000 1.0
C      1  0.5732270000000  0.4517490000000  0.5576020000000 1.0
C      1  0.5089920000000  0.4157540000000  0.5099400000000 1.0
C      1  0.4648820000000  0.3962270000000  0.4721520000000 1.0
C      1  0.6077500000000  0.4784800000000  0.4899840000000 1.0
C      1  0.4617790000000  0.4639970000000  0.6004870000000 1.0
C      1  0.5897780000000  0.5540130000000  0.5382350000000 1.0
C      1  0.4795630000000  0.5623590000000  0.4229990000000 1.0
C      1  0.4608760000000  0.4676420000000  0.5473900000000 1.0
C      1  0.5248990000000  0.3891900000000  0.5053430000000 1.0
C      1  0.5548070000000  0.4384250000000  0.4338810000000 1.0
C      1  0.5086210000000  0.5219710000000  0.5923410000000 1.0
C      1  0.4752750000000  0.4127590000000  0.5523710000000 1.0
C      1  0.5035000000000  0.4727970000000  0.5743830000000 1.0
C      1  0.4399420000000  0.4038730000000  0.4852440000000 1.0
C      1  0.4841560000000  0.4194210000000  0.4655280000000 1.0
C      1  0.5423330000000  0.6143450000000  0.4763590000000 1.0
C      1  0.4799290000000  0.4104420000000  0.5219340000000 1.0
C      1  0.4699850000000  0.5397310000000  0.5287680000000 1.0
C      1  0.4286770000000  0.5138500000000  0.4262090000000 1.0
C      1  0.5088590000000  0.4262780000000  0.5757260000000 1.0
C      1  0.4102970000000  0.5617770000000  0.5282760000000 1.0
C      1  0.5806090000000  0.5123530000000  0.6026420000000 1.0
C      1  0.4688540000000  0.4984010000000  0.5084160000000 1.0
C      1  0.5125560000000  0.4046570000000  0.4338580000000 1.0
C      1  0.5446820000000  0.5686180000000  0.4952240000000 1.0
C      1  0.4282990000000  0.5838790000000  0.5185450000000 1.0
C      1  0.4690910000000  0.4573270000000  0.4161540000000 1.0
C      1  0.4789910000000  0.4603930000000  0.5004100000000 1.0
C      1  0.4134410000000  0.4389080000000  0.5387570000000 1.0
C      1  0.4640480000000  0.4321000000000  0.4222600000000 1.0
C      1  0.4665580000000  0.5794770000000  0.5600530000000 1.0
C      1  0.3949920000000  0.4524330000000  0.5195200000000 1.0
C      1  0.6002640000000  0.4987370000000  0.4336090000000 1.0
C      1  0.4384260000000  0.3945900000000  0.5125900000000 1.0
C      1  0.3979700000000  0.4872970000000  0.4897650000000 1.0
C      1  0.5667340000000  0.5752600000000  0.5371690000000 1.0
C      1  0.4210610000000  0.5757850000000  0.4674320000000 1.0
C      1  0.4151390000000  0.5472320000000  0.4710040000000 1.0
C      1  0.4566140000000  0.5025300000000  0.4275180000000 1.0
C      1  0.5745560000000  0.4757940000000  0.3998950000000 1.0
C      1  0.5620190000000  0.5120950000000  0.4602180000000 1.0
C      1  0.3883320000000  0.4818880000000  0.5170850000000 1.0
C      1  0.4679730000000  0.5265400000000  0.3879280000000 1.0
C      1  0.5738310000000  0.5523510000000  0.4064380000000 1.0
C      1  0.5505260000000  0.5249220000000  0.5116200000000 1.0
C      1  0.5468830000000  0.4054350000000  0.4729630000000 1.0
C      1  0.4836130000000  0.4372400000000  0.5653290000000 1.0
C      1  0.5510730000000  0.5441110000000  0.5864240000000 1.0
C      1  0.4252890000000  0.4791290000000  0.4953940000000 1.0
C      1  0.4828620000000  0.5870400000000  0.4359720000000 1.0
C      1  0.5033170000000  0.6170800000000  0.4913830000000 1.0
C      1  0.4259210000000  0.4595390000000  0.4514100000000 1.0
C      1  0.5143650000000  0.5898060000000  0.5351710000000 1.0
C      1  0.5622160000000  0.4811890000000  0.5038830000000 1.0
C      1  0.4610460000000  0.4994540000000  0.4564180000000 1.0
C      1  0.5173690000000  0.6122870000000  0.4639120000000 1.0
C      1  0.4827050000000  0.4646500000000  0.5283790000000 1.0
C      1  0.4117470000000  0.4207710000000  0.4443690000000 1.0
C      1  0.5594690000000  0.5868480000000  0.5116660000000 1.0
C      1  0.5313290000000  0.4220120000000  0.5562910000000 1.0
C      1  0.5083230000000  0.4710360000000  0.4568600000000 1.0
C      1  0.4150870000000  0.5040790000000  0.4496210000000 1.0
C      1  0.5760610000000  0.5376650000000  0.4562890000000 1.0
END
