TITL C-4164232-771-347 2.14697547105093 125000 -9779.42526992155 0 0 67 (C1) n - 1
REM
REM in /home/nfs/bkarasulu/CARBON/AIRSS/Generating-Clusters/ReaxFF-fromJPCA2015/Units_Real/with-SteepDescent/Only-C1/SD-CG/Try1-3A/FIRE-CG
REM
REM
REM
REM
REM
REM ./C.cell (11c1c37f851c82e70ff6c80c92926a4b)
REM
REM compiler GCC version 9.2.1 20190827 (Red Hat 9.2.1-1)
REM options -cpp -mtune=generic -march=x86-64 -g -O0 -fpre-include=/usr/include/finclude/math-vector-fortran.h
REM seed 40642818 -1668486504 557109386 1846681839 91322005 -920689938 -57062788 -482567399 -184821555 1352030761 1018828220 1381723819 763468311 7232168 -413677978 1922368473 -674329454 -861579683 79869118 -513679007 107535555 1085162305 -600508830 1881182303 -462984573 -1772065124 1117058050 2039387150 -1102568520 -1537568975 -735238919 -1438242404 539576654
REM
CELL 1.54180   50.00000   50.00000   50.00000   90.00000   90.00000   90.00000
LATT -1
SFAC C  
C      1  0.4317400000000  0.4866550000000  0.5219690000000 1.0
C      1  0.5486070000000  0.5353810000000  0.5411970000000 1.0
C      1  0.4962530000000  0.4655470000000  0.5728190000000 1.0
C      1  0.4951270000000  0.5601810000000  0.4571730000000 1.0
C      1  0.4185430000000  0.5350550000000  0.5331020000000 1.0
C      1  0.4603650000000  0.5098290000000  0.5616630000000 1.0
C      1  0.5780940000000  0.5273190000000  0.5045100000000 1.0
C      1  0.4646900000000  0.4656900000000  0.4144370000000 1.0
C      1  0.5438980000000  0.4874860000000  0.5664170000000 1.0
C      1  0.5233260000000  0.5439890000000  0.4138260000000 1.0
C      1  0.5698830000000  0.5316230000000  0.5255260000000 1.0
C      1  0.4872830000000  0.5561280000000  0.5470320000000 1.0
C      1  0.4867110000000  0.4279370000000  0.4492080000000 1.0
C      1  0.4752220000000  0.4348690000000  0.5260010000000 1.0
C      1  0.5118280000000  0.5681670000000  0.4800800000000 1.0
C      1  0.4350350000000  0.5575040000000  0.5420880000000 1.0
C      1  0.5746250000000  0.5222650000000  0.4786270000000 1.0
C      1  0.4996660000000  0.5763830000000  0.5055060000000 1.0
C      1  0.4618280000000  0.4921220000000  0.5108580000000 1.0
C      1  0.5097070000000  0.5657410000000  0.5313720000000 1.0
C      1  0.5473040000000  0.4656620000000  0.5475060000000 1.0
C      1  0.4832130000000  0.4753420000000  0.4799220000000 1.0
C      1  0.5532880000000  0.5411200000000  0.4742970000000 1.0
C      1  0.4762250000000  0.4424640000000  0.4730340000000 1.0
C      1  0.5434200000000  0.4557650000000  0.4955540000000 1.0
C      1  0.5390060000000  0.4292350000000  0.4899010000000 1.0
C      1  0.5484540000000  0.5038060000000  0.4471990000000 1.0
C      1  0.5050330000000  0.4358040000000  0.5251540000000 1.0
C      1  0.5365120000000  0.5136190000000  0.5539930000000 1.0
C      1  0.4775360000000  0.4515860000000  0.5636720000000 1.0
C      1  0.4726290000000  0.5421330000000  0.4597380000000 1.0
C      1  0.5433090000000  0.5326230000000  0.4483800000000 1.0
C      1  0.4357690000000  0.4694180000000  0.5447620000000 1.0
C      1  0.4707510000000  0.4430590000000  0.4316600000000 1.0
C      1  0.4569910000000  0.4470340000000  0.5459550000000 1.0
C      1  0.5109070000000  0.4387820000000  0.4396730000000 1.0
C      1  0.4869590000000  0.4787120000000  0.5089780000000 1.0
C      1  0.5341870000000  0.5523900000000  0.5224320000000 1.0
C      1  0.5198530000000  0.4232540000000  0.5056810000000 1.0
C      1  0.4628980000000  0.5667710000000  0.5356300000000 1.0
C      1  0.4723390000000  0.5189070000000  0.5220890000000 1.0
C      1  0.5748140000000  0.4764690000000  0.5127230000000 1.0
C      1  0.5255080000000  0.4599200000000  0.5247540000000 1.0
C      1  0.4433040000000  0.4915020000000  0.5604120000000 1.0
C      1  0.5293870000000  0.4862380000000  0.4345080000000 1.0
C      1  0.4447900000000  0.5360340000000  0.4661110000000 1.0
C      1  0.4571760000000  0.4874650000000  0.4822270000000 1.0
C      1  0.5099470000000  0.5033880000000  0.5491520000000 1.0
C      1  0.4818490000000  0.4908660000000  0.4157310000000 1.0
C      1  0.4834150000000  0.5246230000000  0.5499080000000 1.0
C      1  0.4661890000000  0.4301990000000  0.4970070000000 1.0
C      1  0.4261920000000  0.5231860000000  0.4855130000000 1.0
C      1  0.4786890000000  0.5355170000000  0.5006070000000 1.0
C      1  0.5015360000000  0.4954870000000  0.4370190000000 1.0
C      1  0.5343110000000  0.5545690000000  0.4928940000000 1.0
C      1  0.5663840000000  0.4967690000000  0.4688050000000 1.0
C      1  0.4730020000000  0.5638690000000  0.5080780000000 1.0
C      1  0.4411560000000  0.5068440000000  0.4672340000000 1.0
C      1  0.5701290000000  0.4766940000000  0.5377460000000 1.0
C      1  0.4875830000000  0.5247270000000  0.4751800000000 1.0
C      1  0.5330000000000  0.4556770000000  0.4321140000000 1.0
C      1  0.5185320000000  0.5481920000000  0.4382630000000 1.0
C      1  0.4926010000000  0.4988610000000  0.4649530000000 1.0
C      1  0.5086560000000  0.4843030000000  0.5257820000000 1.0
C      1  0.4216960000000  0.5127070000000  0.5133700000000 1.0
C      1  0.5148660000000  0.4850850000000  0.5746950000000 1.0
C      1  0.5662760000000  0.4734480000000  0.4865920000000 1.0
END
