TITL C-4164242-3624-25 10.2872138935637 125000 -12393.9772022507 0 0 85 (C1) n - 1
REM
REM in /home/nfs/bkarasulu/CARBON/AIRSS/Generating-Clusters/ReaxFF-fromJPCA2015/Units_Real/with-SteepDescent/Only-C1/SD-CG/Try1-3A/FIRE-CG
REM
REM
REM
REM
REM
REM ./C.cell (11c1c37f851c82e70ff6c80c92926a4b)
REM
REM compiler GCC version 9.2.1 20190827 (Red Hat 9.2.1-1)
REM options -cpp -mtune=generic -march=x86-64 -g -O0 -fpre-include=/usr/include/finclude/math-vector-fortran.h
REM seed -868168146 -1063095786 -1437168045 -1128707554 1713113241 -334642053 75246980 584909572 727924759 -901917689 372327230 -1195791733 1235015816 1376912666 -1758357876 -885940112 -1098735473 675433246 -2087906933 -1163330382 -1062552315 -40897244 -581583092 -864735325 1433226487 1793711827 1327969306 -551895072 2118257066 -582679645 -546635856 -309956452 -759988346
REM
CELL 1.54180   50.00000   50.00000   50.00000   90.00000   90.00000   90.00000
LATT -1
SFAC C  
C      1  0.5386760000000  0.4759140000000  0.5478450000000 1.0
C      1  0.4503260000000  0.5514450000000  0.4552060000000 1.0
C      1  0.5120440000000  0.5205830000000  0.5965330000000 1.0
C      1  0.4785210000000  0.4314040000000  0.4453120000000 1.0
C      1  0.4302730000000  0.4506930000000  0.5032610000000 1.0
C      1  0.4622010000000  0.4949010000000  0.4329290000000 1.0
C      1  0.5387580000000  0.5600160000000  0.5013120000000 1.0
C      1  0.5196140000000  0.5008520000000  0.4650330000000 1.0
C      1  0.4507780000000  0.4559750000000  0.4840970000000 1.0
C      1  0.5027770000000  0.4971360000000  0.5827310000000 1.0
C      1  0.5156820000000  0.5675880000000  0.4636010000000 1.0
C      1  0.5514810000000  0.4564390000000  0.4734210000000 1.0
C      1  0.5143820000000  0.4871250000000  0.4216490000000 1.0
C      1  0.5311320000000  0.5446130000000  0.5559800000000 1.0
C      1  0.5093750000000  0.4914400000000  0.5141190000000 1.0
C      1  0.5588270000000  0.5435850000000  0.5469760000000 1.0
C      1  0.4762660000000  0.4976990000000  0.4815900000000 1.0
C      1  0.4662020000000  0.4213910000000  0.5193560000000 1.0
C      1  0.5137180000000  0.4247410000000  0.4954000000000 1.0
C      1  0.4997960000000  0.5487920000000  0.4445080000000 1.0
C      1  0.4365830000000  0.5448390000000  0.5025160000000 1.0
C      1  0.5721070000000  0.5149570000000  0.5421770000000 1.0
C      1  0.4165660000000  0.5270950000000  0.5125290000000 1.0
C      1  0.4543520000000  0.5116290000000  0.5715960000000 1.0
C      1  0.4981000000000  0.5076280000000  0.5358580000000 1.0
C      1  0.4903300000000  0.5730070000000  0.4776470000000 1.0
C      1  0.5596640000000  0.5608080000000  0.5233020000000 1.0
C      1  0.4766540000000  0.5112690000000  0.4171850000000 1.0
C      1  0.5195210000000  0.4423760000000  0.4497000000000 1.0
C      1  0.4907180000000  0.4790220000000  0.4370540000000 1.0
C      1  0.4188940000000  0.5103250000000  0.5339380000000 1.0
C      1  0.4484360000000  0.4995340000000  0.4598320000000 1.0
C      1  0.5760750000000  0.4913030000000  0.5087330000000 1.0
C      1  0.4724750000000  0.4510820000000  0.5643050000000 1.0
C      1  0.5582690000000  0.4747640000000  0.4520850000000 1.0
C      1  0.4570750000000  0.5391810000000  0.4836020000000 1.0
C      1  0.5593480000000  0.5388060000000  0.4578450000000 1.0
C      1  0.4635910000000  0.5600320000000  0.5447110000000 1.0
C      1  0.4588030000000  0.5370930000000  0.5608140000000 1.0
C      1  0.4903970000000  0.5639270000000  0.5318250000000 1.0
C      1  0.4520730000000  0.5651510000000  0.5166610000000 1.0
C      1  0.4743960000000  0.4766330000000  0.5555360000000 1.0
C      1  0.5141310000000  0.4931500000000  0.5555450000000 1.0
C      1  0.4740570000000  0.4895820000000  0.5787350000000 1.0
C      1  0.4687260000000  0.4321840000000  0.4728960000000 1.0
C      1  0.5814170000000  0.5209640000000  0.4648430000000 1.0
C      1  0.5513300000000  0.5233530000000  0.4340670000000 1.0
C      1  0.5895400000000  0.5000370000000  0.4844920000000 1.0
C      1  0.4697170000000  0.4763220000000  0.5046050000000 1.0
C      1  0.5381770000000  0.4937260000000  0.4384760000000 1.0
C      1  0.4393980000000  0.5270380000000  0.4655130000000 1.0
C      1  0.4963950000000  0.4657110000000  0.5102000000000 1.0
C      1  0.5052350000000  0.5386240000000  0.4129790000000 1.0
C      1  0.4429570000000  0.5027510000000  0.5455740000000 1.0
C      1  0.4602270000000  0.4342190000000  0.5434670000000 1.0
C      1  0.5036240000000  0.5264480000000  0.4638920000000 1.0
C      1  0.5024030000000  0.5094400000000  0.4057640000000 1.0
C      1  0.5587150000000  0.4919120000000  0.5491150000000 1.0
C      1  0.5180710000000  0.5377010000000  0.5062580000000 1.0
C      1  0.5395190000000  0.4587880000000  0.5239300000000 1.0
C      1  0.5089810000000  0.5399700000000  0.5344160000000 1.0
C      1  0.4343070000000  0.4768220000000  0.4717700000000 1.0
C      1  0.4995910000000  0.4490770000000  0.4316580000000 1.0
C      1  0.5316220000000  0.5349840000000  0.4192460000000 1.0
C      1  0.5424580000000  0.5592960000000  0.4719270000000 1.0
C      1  0.5634600000000  0.5140560000000  0.5167320000000 1.0
C      1  0.4885250000000  0.5256890000000  0.4879530000000 1.0
C      1  0.5309890000000  0.4959920000000  0.4934220000000 1.0
C      1  0.5814720000000  0.4916000000000  0.4578550000000 1.0
C      1  0.4664090000000  0.4912420000000  0.5323200000000 1.0
C      1  0.4172960000000  0.4761070000000  0.4952360000000 1.0
C      1  0.5221840000000  0.5341220000000  0.5806580000000 1.0
C      1  0.4789780000000  0.5716260000000  0.5060720000000 1.0
C      1  0.5319540000000  0.4339740000000  0.4726160000000 1.0
C      1  0.4410230000000  0.4343680000000  0.5233380000000 1.0
C      1  0.4961940000000  0.4375290000000  0.5764980000000 1.0
C      1  0.4747770000000  0.5658430000000  0.4538300000000 1.0
C      1  0.5397370000000  0.5200280000000  0.5029650000000 1.0
C      1  0.5535830000000  0.4712480000000  0.5008720000000 1.0
C      1  0.4847440000000  0.4222840000000  0.4959720000000 1.0
C      1  0.5251050000000  0.4418390000000  0.5790630000000 1.0
C      1  0.4083160000000  0.4996380000000  0.5101480000000 1.0
C      1  0.5152360000000  0.4434730000000  0.5173030000000 1.0
C      1  0.5482400000000  0.4590250000000  0.5734720000000 1.0
C      1  0.4959210000000  0.4854270000000  0.4639980000000 1.0
END
