TITL C-4164233-775-507 -0.0362502060928616 125000 -1579.00798289668 0 0 12 (C1) n - 1
REM
REM in /home/nfs/bkarasulu/CARBON/AIRSS/Generating-Clusters/ReaxFF-fromJPCA2015/Units_Real/with-SteepDescent/Only-C1/SD-CG/Try1-3A/FIRE-CG
REM
REM
REM
REM
REM
REM ./C.cell (11c1c37f851c82e70ff6c80c92926a4b)
REM
REM compiler GCC version 9.2.1 20190827 (Red Hat 9.2.1-1)
REM options -cpp -mtune=generic -march=x86-64 -g -O0 -fpre-include=/usr/include/finclude/math-vector-fortran.h
REM seed 432682525 1796811960 -1738689013 -1451939297 1063217493 -576416746 348996986 -565668224 2117360885 -2102275171 1124359454 -1077485509 -984293554 -1971731134 1339119442 -298088736 -1781893457 1687443105 -1648977774 996856851 528215135 1394452472 276075833 -750581519 -528770903 -1643920533 151462736 -1824155660 -580925093 -1367131527 -1333981793 -1847007953 1713921351
REM
CELL 1.54180   50.00000   50.00000   50.00000   90.00000   90.00000   90.00000
LATT -1
SFAC C  
C      1  0.5293950000000  0.4634150000000  0.4627570000000 1.0
C      1  0.5354280000000  0.4894910000000  0.4834480000000 1.0
C      1  0.4651370000000  0.5117210000000  0.5163570000000 1.0
C      1  0.4706930000000  0.5353220000000  0.5386200000000 1.0
C      1  0.5591780000000  0.4979620000000  0.4849030000000 1.0
C      1  0.5030060000000  0.4666860000000  0.4693280000000 1.0
C      1  0.5125330000000  0.5029870000000  0.5009470000000 1.0
C      1  0.5191500000000  0.5234740000000  0.5200700000000 1.0
C      1  0.4444190000000  0.5004420000000  0.5078790000000 1.0
C      1  0.4767230000000  0.4734460000000  0.4789030000000 1.0
C      1  0.4991280000000  0.5386060000000  0.5379880000000 1.0
C      1  0.4852090000000  0.4964480000000  0.4988020000000 1.0
END
