TITL C-4164243-3780-552 -1.72200800129939 125000 -14416.4012168978 0 0 97 (C1) n - 1
REM
REM in /home/nfs/bkarasulu/CARBON/AIRSS/Generating-Clusters/ReaxFF-fromJPCA2015/Units_Real/with-SteepDescent/Only-C1/SD-CG/Try1-3A/FIRE-CG
REM
REM
REM
REM
REM
REM ./C.cell (11c1c37f851c82e70ff6c80c92926a4b)
REM
REM compiler GCC version 9.2.1 20190827 (Red Hat 9.2.1-1)
REM options -cpp -mtune=generic -march=x86-64 -g -O0 -fpre-include=/usr/include/finclude/math-vector-fortran.h
REM seed -218265157 1551337579 -2039978251 -1134754661 585554715 253261623 1643896296 -350890037 -1429041951 1363562743 -1743930719 244392200 689119870 1629591709 2069499798 -1678753448 378478451 -742887319 2139348945 226587141 655842312 1761927871 1569702288 903370603 200884400 1993233890 1191846823 1602547326 -1618676247 917679284 -444195993 -1374246808 1330624749
REM
CELL 1.54180   50.00000   50.00000   50.00000   90.00000   90.00000   90.00000
LATT -1
SFAC C  
C      1  0.4960620000000  0.4396260000000  0.5713840000000 1.0
C      1  0.5257830000000  0.5472710000000  0.4648160000000 1.0
C      1  0.5125530000000  0.5004450000000  0.4834450000000 1.0
C      1  0.4338880000000  0.4511160000000  0.4696980000000 1.0
C      1  0.5674640000000  0.4609580000000  0.4885490000000 1.0
C      1  0.4696370000000  0.4246950000000  0.5326440000000 1.0
C      1  0.4313660000000  0.4659790000000  0.4444900000000 1.0
C      1  0.4832680000000  0.5151830000000  0.4049540000000 1.0
C      1  0.5351890000000  0.5195090000000  0.4752680000000 1.0
C      1  0.4358710000000  0.5659030000000  0.4778540000000 1.0
C      1  0.5278980000000  0.4906470000000  0.5800900000000 1.0
C      1  0.4373570000000  0.4595560000000  0.5274190000000 1.0
C      1  0.4477560000000  0.5150080000000  0.5641100000000 1.0
C      1  0.4209040000000  0.5567760000000  0.5007820000000 1.0
C      1  0.4211870000000  0.5271820000000  0.4967610000000 1.0
C      1  0.4842300000000  0.5718310000000  0.4519550000000 1.0
C      1  0.4935650000000  0.5163290000000  0.4948250000000 1.0
C      1  0.5473200000000  0.5653240000000  0.4736050000000 1.0
C      1  0.5921280000000  0.5058090000000  0.4815610000000 1.0
C      1  0.4926610000000  0.5808990000000  0.5027000000000 1.0
C      1  0.4692130000000  0.4404290000000  0.5572220000000 1.0
C      1  0.4830890000000  0.5658750000000  0.5432700000000 1.0
C      1  0.4791360000000  0.4832510000000  0.5148880000000 1.0
C      1  0.5099530000000  0.5291510000000  0.4234780000000 1.0
C      1  0.4936280000000  0.4099590000000  0.5238790000000 1.0
C      1  0.5856970000000  0.5373170000000  0.4844970000000 1.0
C      1  0.5793620000000  0.4587640000000  0.5154400000000 1.0
C      1  0.5684510000000  0.5001090000000  0.5461800000000 1.0
C      1  0.4959690000000  0.4596790000000  0.5147360000000 1.0
C      1  0.5963760000000  0.4958620000000  0.5065000000000 1.0
C      1  0.4254820000000  0.5087710000000  0.5178700000000 1.0
C      1  0.4790570000000  0.4190660000000  0.4751170000000 1.0
C      1  0.4690400000000  0.4927500000000  0.4522110000000 1.0
C      1  0.5593930000000  0.5378280000000  0.5636690000000 1.0
C      1  0.4711520000000  0.5050810000000  0.5799640000000 1.0
C      1  0.5204790000000  0.4178240000000  0.5324460000000 1.0
C      1  0.4509640000000  0.4373160000000  0.5141420000000 1.0
C      1  0.5279720000000  0.4867430000000  0.5058960000000 1.0
C      1  0.4541650000000  0.4945070000000  0.4743780000000 1.0
C      1  0.4637610000000  0.4753640000000  0.4934980000000 1.0
C      1  0.5386110000000  0.4858280000000  0.4319230000000 1.0
C      1  0.5409050000000  0.4569300000000  0.5482470000000 1.0
C      1  0.4579620000000  0.5358670000000  0.4615440000000 1.0
C      1  0.4903140000000  0.5138210000000  0.5223350000000 1.0
C      1  0.4417630000000  0.5274130000000  0.5373340000000 1.0
C      1  0.5883370000000  0.4835170000000  0.5299520000000 1.0
C      1  0.5220070000000  0.4674930000000  0.5247850000000 1.0
C      1  0.5074070000000  0.4414260000000  0.4395390000000 1.0
C      1  0.5124210000000  0.5677750000000  0.5413400000000 1.0
C      1  0.4766130000000  0.5546660000000  0.5031100000000 1.0
C      1  0.4789450000000  0.5355480000000  0.4817670000000 1.0
C      1  0.4861740000000  0.3999920000000  0.4961280000000 1.0
C      1  0.4545600000000  0.4798360000000  0.4318220000000 1.0
C      1  0.4975360000000  0.4599710000000  0.4603660000000 1.0
C      1  0.4503340000000  0.4626190000000  0.5533690000000 1.0
C      1  0.5046780000000  0.5511070000000  0.4456040000000 1.0
C      1  0.4908950000000  0.5901600000000  0.4730640000000 1.0
C      1  0.5225420000000  0.5170970000000  0.5913810000000 1.0
C      1  0.5001660000000  0.5046150000000  0.5775840000000 1.0
C      1  0.4496560000000  0.4868600000000  0.5701950000000 1.0
C      1  0.5226580000000  0.4310620000000  0.4807710000000 1.0
C      1  0.5475120000000  0.5241580000000  0.5015620000000 1.0
C      1  0.4231830000000  0.4800090000000  0.5112320000000 1.0
C      1  0.5207940000000  0.4336720000000  0.5569400000000 1.0
C      1  0.5714030000000  0.5297620000000  0.5400650000000 1.0
C      1  0.5731260000000  0.4852000000000  0.4721960000000 1.0
C      1  0.5049550000000  0.4197550000000  0.4602770000000 1.0
C      1  0.5550750000000  0.5011590000000  0.4538180000000 1.0
C      1  0.4977270000000  0.4892290000000  0.4553830000000 1.0
C      1  0.5196270000000  0.5415660000000  0.5533110000000 1.0
C      1  0.4292610000000  0.5551690000000  0.5298300000000 1.0
C      1  0.4584420000000  0.4420620000000  0.4857620000000 1.0
C      1  0.5274910000000  0.4600760000000  0.4326780000000 1.0
C      1  0.4724610000000  0.5409170000000  0.5288530000000 1.0
C      1  0.5468070000000  0.5677170000000  0.5028490000000 1.0
C      1  0.5619890000000  0.4413160000000  0.5311810000000 1.0
C      1  0.5501020000000  0.4364830000000  0.4898970000000 1.0
C      1  0.4090420000000  0.4828840000000  0.4561230000000 1.0
C      1  0.5609380000000  0.5288330000000  0.4400770000000 1.0
C      1  0.5162230000000  0.5184450000000  0.5358320000000 1.0
C      1  0.4534420000000  0.5639490000000  0.4562560000000 1.0
C      1  0.5664620000000  0.5439270000000  0.5111280000000 1.0
C      1  0.5223710000000  0.5750190000000  0.5151110000000 1.0
C      1  0.5452160000000  0.4237200000000  0.5163300000000 1.0
C      1  0.5486230000000  0.4834500000000  0.5616350000000 1.0
C      1  0.4357250000000  0.5172270000000  0.4709410000000 1.0
C      1  0.5356820000000  0.5403700000000  0.5785950000000 1.0
C      1  0.4103000000000  0.5106460000000  0.4504980000000 1.0
C      1  0.4649610000000  0.4976560000000  0.4126810000000 1.0
C      1  0.4171170000000  0.4698040000000  0.4841140000000 1.0
C      1  0.5405870000000  0.5338710000000  0.4204790000000 1.0
C      1  0.5126940000000  0.4996340000000  0.4304930000000 1.0
C      1  0.5028770000000  0.4508960000000  0.4869050000000 1.0
C      1  0.4462160000000  0.5770720000000  0.5283170000000 1.0
C      1  0.4720700000000  0.5879170000000  0.5275610000000 1.0
C      1  0.5684070000000  0.5493000000000  0.4610130000000 1.0
C      1  0.5381800000000  0.5078330000000  0.5217290000000 1.0
END
