TITL C-4164244-2836-257 40.6728095299074 125000 -19257.9845579255 0 0 130 (C1) n - 1
REM
REM in /home/nfs/bkarasulu/CARBON/AIRSS/Generating-Clusters/ReaxFF-fromJPCA2015/Units_Real/with-SteepDescent/Only-C1/SD-CG/Try1-3A/FIRE-CG
REM
REM
REM
REM
REM
REM ./C.cell (11c1c37f851c82e70ff6c80c92926a4b)
REM
REM compiler GCC version 9.2.1 20190827 (Red Hat 9.2.1-1)
REM options -cpp -mtune=generic -march=x86-64 -g -O0 -fpre-include=/usr/include/finclude/math-vector-fortran.h
REM seed -722560582 1842517421 -617231504 653237933 -1785566114 -715827730 -603594692 -83327348 -34159741 1340880825 -541657743 -1488037165 212860643 -707916712 1732761447 522305337 -1028691785 795301126 -1001136976 -1702972339 355973135 212673274 1694801666 -1738420476 -803577911 2073259752 1029212185 -1818554484 690142051 1311661325 -30551241 273929928 -885323771
REM
CELL 1.54180   50.00000   50.00000   50.00000   90.00000   90.00000   90.00000
LATT -1
SFAC C  
C      1  0.4291550000000  0.5546920000000  0.5379690000000 1.0
C      1  0.4160570000000  0.4777470000000  0.4442520000000 1.0
C      1  0.4837550000000  0.4828640000000  0.4521090000000 1.0
C      1  0.4224970000000  0.4483730000000  0.4718200000000 1.0
C      1  0.5726970000000  0.5612910000000  0.4603050000000 1.0
C      1  0.5798580000000  0.5160590000000  0.5561760000000 1.0
C      1  0.4731120000000  0.4641990000000  0.4725280000000 1.0
C      1  0.4471480000000  0.4669720000000  0.5741020000000 1.0
C      1  0.5334650000000  0.4438230000000  0.4296930000000 1.0
C      1  0.5066120000000  0.5205110000000  0.6148760000000 1.0
C      1  0.4954860000000  0.5235420000000  0.5174180000000 1.0
C      1  0.5463800000000  0.4247830000000  0.5276460000000 1.0
C      1  0.4059710000000  0.4722370000000  0.4697990000000 1.0
C      1  0.5830190000000  0.5181160000000  0.4346150000000 1.0
C      1  0.4559240000000  0.5674180000000  0.5442120000000 1.0
C      1  0.5326520000000  0.4902940000000  0.5191620000000 1.0
C      1  0.5096030000000  0.4339500000000  0.4171820000000 1.0
C      1  0.4831010000000  0.4247700000000  0.5455550000000 1.0
C      1  0.4570320000000  0.4466220000000  0.4301340000000 1.0
C      1  0.4995590000000  0.4795690000000  0.4045310000000 1.0
C      1  0.5332730000000  0.5169420000000  0.4050570000000 1.0
C      1  0.5400580000000  0.6058780000000  0.5095670000000 1.0
C      1  0.5899520000000  0.4735480000000  0.5060620000000 1.0
C      1  0.4936610000000  0.4210750000000  0.5251700000000 1.0
C      1  0.4334970000000  0.5267490000000  0.4731010000000 1.0
C      1  0.4410160000000  0.5164460000000  0.5699310000000 1.0
C      1  0.4305400000000  0.5749140000000  0.4716890000000 1.0
C      1  0.5695840000000  0.4387120000000  0.5166100000000 1.0
C      1  0.4447320000000  0.5022660000000  0.4631330000000 1.0
C      1  0.4999680000000  0.5936730000000  0.5043310000000 1.0
C      1  0.5479740000000  0.5400840000000  0.4953630000000 1.0
C      1  0.4752900000000  0.5391420000000  0.4807320000000 1.0
C      1  0.4745930000000  0.4839580000000  0.5704250000000 1.0
C      1  0.4957910000000  0.4064170000000  0.4786620000000 1.0
C      1  0.5364780000000  0.5293340000000  0.5468890000000 1.0
C      1  0.4786620000000  0.4852880000000  0.4240440000000 1.0
C      1  0.4662620000000  0.5108930000000  0.5580240000000 1.0
C      1  0.4091660000000  0.5099510000000  0.5360530000000 1.0
C      1  0.4723980000000  0.3944940000000  0.4743600000000 1.0
C      1  0.4511220000000  0.4412520000000  0.4587900000000 1.0
C      1  0.4526410000000  0.4989910000000  0.5115770000000 1.0
C      1  0.5057940000000  0.4999010000000  0.4622760000000 1.0
C      1  0.4965880000000  0.4516440000000  0.3999930000000 1.0
C      1  0.5025030000000  0.4555040000000  0.4870780000000 1.0
C      1  0.5751090000000  0.5399840000000  0.4181760000000 1.0
C      1  0.4533330000000  0.5281420000000  0.4946800000000 1.0
C      1  0.4794750000000  0.5626770000000  0.4588790000000 1.0
C      1  0.4711230000000  0.5133710000000  0.5293590000000 1.0
C      1  0.5013400000000  0.5375390000000  0.4225760000000 1.0
C      1  0.5420240000000  0.4734190000000  0.4303740000000 1.0
C      1  0.5209620000000  0.6061550000000  0.4875920000000 1.0
C      1  0.5013350000000  0.4973410000000  0.6082070000000 1.0
C      1  0.5424590000000  0.4376600000000  0.4562320000000 1.0
C      1  0.5248200000000  0.4578050000000  0.4682970000000 1.0
C      1  0.5103490000000  0.4772240000000  0.5054780000000 1.0
C      1  0.4221980000000  0.4409760000000  0.4994440000000 1.0
C      1  0.4800550000000  0.4360810000000  0.4165080000000 1.0
C      1  0.5780340000000  0.5192680000000  0.5262780000000 1.0
C      1  0.5450570000000  0.5179600000000  0.5206640000000 1.0
C      1  0.5162250000000  0.5673760000000  0.4564080000000 1.0
C      1  0.5590320000000  0.5351630000000  0.5645920000000 1.0
C      1  0.5661610000000  0.5625500000000  0.5548400000000 1.0
C      1  0.4215040000000  0.5313840000000  0.5534100000000 1.0
C      1  0.5861870000000  0.4663360000000  0.5574200000000 1.0
C      1  0.4988760000000  0.5490350000000  0.5257760000000 1.0
C      1  0.4229160000000  0.5476840000000  0.4282540000000 1.0
C      1  0.4733030000000  0.5689430000000  0.5676150000000 1.0
C      1  0.5113890000000  0.5433440000000  0.5497060000000 1.0
C      1  0.4428370000000  0.4241340000000  0.5118480000000 1.0
C      1  0.5765480000000  0.4521690000000  0.4909080000000 1.0
C      1  0.5269530000000  0.4893860000000  0.4066730000000 1.0
C      1  0.4077050000000  0.4627850000000  0.5131800000000 1.0
C      1  0.4022450000000  0.5135520000000  0.5083600000000 1.0
C      1  0.4243220000000  0.5639220000000  0.4969490000000 1.0
C      1  0.5234520000000  0.5563530000000  0.4293800000000 1.0
C      1  0.5858070000000  0.5112180000000  0.4761130000000 1.0
C      1  0.4509060000000  0.4744320000000  0.4228430000000 1.0
C      1  0.4508360000000  0.5473340000000  0.4167080000000 1.0
C      1  0.4983550000000  0.6001250000000  0.5328690000000 1.0
C      1  0.5460060000000  0.5838950000000  0.5523140000000 1.0
C      1  0.5829890000000  0.4904450000000  0.5695310000000 1.0
C      1  0.5109330000000  0.3840030000000  0.4811420000000 1.0
C      1  0.5686150000000  0.4503960000000  0.4626480000000 1.0
C      1  0.4919510000000  0.4751240000000  0.5950530000000 1.0
C      1  0.4156820000000  0.5450160000000  0.5131820000000 1.0
C      1  0.4216280000000  0.5493250000000  0.4579290000000 1.0
C      1  0.4216640000000  0.4662630000000  0.5367840000000 1.0
C      1  0.5281920000000  0.4827290000000  0.4561820000000 1.0
C      1  0.4312400000000  0.4908330000000  0.5311500000000 1.0
C      1  0.5437580000000  0.5416720000000  0.4142240000000 1.0
C      1  0.5049250000000  0.4481070000000  0.5891390000000 1.0
C      1  0.5343260000000  0.4309170000000  0.5536430000000 1.0
C      1  0.5065000000000  0.4326150000000  0.5632170000000 1.0
C      1  0.5866620000000  0.4951720000000  0.4503600000000 1.0
C      1  0.5787000000000  0.5505020000000  0.5306160000000 1.0
C      1  0.4585930000000  0.5830600000000  0.4647580000000 1.0
C      1  0.4344540000000  0.4909710000000  0.4385980000000 1.0
C      1  0.5531360000000  0.4417170000000  0.5745870000000 1.0
C      1  0.5621370000000  0.5896900000000  0.4989410000000 1.0
C      1  0.5302320000000  0.4103160000000  0.5075750000000 1.0
C      1  0.4746800000000  0.5903480000000  0.5474400000000 1.0
C      1  0.4502640000000  0.4039290000000  0.4925030000000 1.0
C      1  0.5648430000000  0.5620330000000  0.5081020000000 1.0
C      1  0.5845560000000  0.4593540000000  0.5305950000000 1.0
C      1  0.5021460000000  0.5374030000000  0.5974870000000 1.0
C      1  0.5022880000000  0.4261690000000  0.4991280000000 1.0
C      1  0.5307960000000  0.5916990000000  0.4641740000000 1.0
C      1  0.4568130000000  0.4861270000000  0.4836610000000 1.0
C      1  0.5002820000000  0.5252220000000  0.4875110000000 1.0
C      1  0.5672980000000  0.5346970000000  0.4722080000000 1.0
C      1  0.5326440000000  0.4487520000000  0.5918850000000 1.0
C      1  0.5701820000000  0.4721750000000  0.4441510000000 1.0
C      1  0.4324750000000  0.4899640000000  0.5837680000000 1.0
C      1  0.5328490000000  0.3857300000000  0.4946230000000 1.0
C      1  0.5200290000000  0.4852330000000  0.5444970000000 1.0
C      1  0.4762730000000  0.5510690000000  0.4305200000000 1.0
C      1  0.5115990000000  0.5168560000000  0.4397850000000 1.0
C      1  0.5196550000000  0.5499820000000  0.4837700000000 1.0
C      1  0.5066620000000  0.5654000000000  0.5050860000000 1.0
C      1  0.5595500000000  0.5865800000000  0.4696340000000 1.0
C      1  0.4384630000000  0.4498250000000  0.5521640000000 1.0
C      1  0.4550540000000  0.4308170000000  0.5377730000000 1.0
C      1  0.4982170000000  0.4720140000000  0.5293050000000 1.0
C      1  0.4968710000000  0.4738790000000  0.5555140000000 1.0
C      1  0.4971550000000  0.5525540000000  0.5742410000000 1.0
C      1  0.5658690000000  0.4683480000000  0.5773130000000 1.0
C      1  0.4527130000000  0.4128130000000  0.4658990000000 1.0
C      1  0.5282200000000  0.6011150000000  0.5368320000000 1.0
C      1  0.5889580000000  0.5020480000000  0.5028430000000 1.0
C      1  0.4024120000000  0.4873810000000  0.4964130000000 1.0
END
