TITL C-4164238-4211-708 42.9704149754229 125000 -19036.1489668312 0 0 129 (C1) n - 1
REM
REM in /home/nfs/bkarasulu/CARBON/AIRSS/Generating-Clusters/ReaxFF-fromJPCA2015/Units_Real/with-SteepDescent/Only-C1/SD-CG/Try1-3A/FIRE-CG
REM
REM
REM
REM
REM
REM ./C.cell (11c1c37f851c82e70ff6c80c92926a4b)
REM
REM compiler GCC version 9.2.1 20190827 (Red Hat 9.2.1-1)
REM options -cpp -mtune=generic -march=x86-64 -g -O0 -fpre-include=/usr/include/finclude/math-vector-fortran.h
REM seed 1898324733 -569290414 880480444 -373963860 -276752551 981320419 -1475619796 120106468 636607331 -721724635 -1891194978 -2022626452 -376555426 939425278 -2100783256 -1520022351 1283988254 1770846292 -94580332 225751788 1018713016 255794390 2041949099 -1960861157 -1941062031 15857589 464070663 -325055908 -898100987 -2077914577 -1342333914 437844267 -132694407
REM
CELL 1.54180   50.00000   50.00000   50.00000   90.00000   90.00000   90.00000
LATT -1
SFAC C  
C      1  0.5526800000000  0.5573630000000  0.4538460000000 1.0
C      1  0.4836800000000  0.4966900000000  0.5337460000000 1.0
C      1  0.4363310000000  0.4282400000000  0.5280160000000 1.0
C      1  0.5880100000000  0.5682510000000  0.5017570000000 1.0
C      1  0.4379170000000  0.5612380000000  0.5503900000000 1.0
C      1  0.5743500000000  0.4702300000000  0.4458870000000 1.0
C      1  0.4585570000000  0.5458430000000  0.5018080000000 1.0
C      1  0.4031030000000  0.4951580000000  0.5307720000000 1.0
C      1  0.5219550000000  0.4850140000000  0.6008090000000 1.0
C      1  0.4911990000000  0.5491550000000  0.4590560000000 1.0
C      1  0.4972630000000  0.4568550000000  0.4015410000000 1.0
C      1  0.4927070000000  0.4935260000000  0.5977510000000 1.0
C      1  0.5584360000000  0.5362410000000  0.5565380000000 1.0
C      1  0.5778400000000  0.5236310000000  0.4793490000000 1.0
C      1  0.5404070000000  0.4551470000000  0.4269980000000 1.0
C      1  0.5434110000000  0.4046890000000  0.4977540000000 1.0
C      1  0.5263760000000  0.4034720000000  0.5217010000000 1.0
C      1  0.4485200000000  0.4902120000000  0.4570520000000 1.0
C      1  0.5000200000000  0.3849340000000  0.4442600000000 1.0
C      1  0.5759130000000  0.5750660000000  0.4533820000000 1.0
C      1  0.4039590000000  0.5208330000000  0.4959900000000 1.0
C      1  0.4223640000000  0.4348190000000  0.5045530000000 1.0
C      1  0.4435080000000  0.5408990000000  0.5688250000000 1.0
C      1  0.4432340000000  0.5447250000000  0.4803480000000 1.0
C      1  0.4779150000000  0.4051400000000  0.5458820000000 1.0
C      1  0.4843340000000  0.3958520000000  0.4593560000000 1.0
C      1  0.4175780000000  0.4938660000000  0.5548180000000 1.0
C      1  0.6022400000000  0.4843480000000  0.4896280000000 1.0
C      1  0.4638050000000  0.4804410000000  0.4803440000000 1.0
C      1  0.5717900000000  0.4483210000000  0.4905100000000 1.0
C      1  0.5386810000000  0.4918750000000  0.4074720000000 1.0
C      1  0.4957230000000  0.4002290000000  0.5233980000000 1.0
C      1  0.4897110000000  0.4515670000000  0.4408700000000 1.0
C      1  0.5253060000000  0.5392610000000  0.5196460000000 1.0
C      1  0.4232280000000  0.4415870000000  0.4777090000000 1.0
C      1  0.4543990000000  0.4045100000000  0.5280860000000 1.0
C      1  0.5116330000000  0.5351970000000  0.4145370000000 1.0
C      1  0.5279890000000  0.4940340000000  0.4955480000000 1.0
C      1  0.4450550000000  0.4625370000000  0.4189350000000 1.0
C      1  0.4199530000000  0.4899090000000  0.4637230000000 1.0
C      1  0.4916990000000  0.5921010000000  0.4778990000000 1.0
C      1  0.4760640000000  0.5670200000000  0.5192920000000 1.0
C      1  0.4806220000000  0.4516750000000  0.5276520000000 1.0
C      1  0.5544100000000  0.5617890000000  0.5626840000000 1.0
C      1  0.5526860000000  0.5310840000000  0.4379280000000 1.0
C      1  0.4770430000000  0.5181100000000  0.5964830000000 1.0
C      1  0.5319840000000  0.4487960000000  0.5458840000000 1.0
C      1  0.4010060000000  0.5252180000000  0.5228610000000 1.0
C      1  0.4127120000000  0.4688710000000  0.4831790000000 1.0
C      1  0.5868940000000  0.5968270000000  0.4720630000000 1.0
C      1  0.5613910000000  0.4732150000000  0.4210730000000 1.0
C      1  0.4722450000000  0.4003790000000  0.5046520000000 1.0
C      1  0.4502650000000  0.4327760000000  0.4634410000000 1.0
C      1  0.4808230000000  0.4386010000000  0.4167370000000 1.0
C      1  0.5363540000000  0.5202590000000  0.4161060000000 1.0
C      1  0.5114670000000  0.6031830000000  0.4580340000000 1.0
C      1  0.5248030000000  0.5643600000000  0.5031250000000 1.0
C      1  0.4094910000000  0.5171260000000  0.4690490000000 1.0
C      1  0.5122960000000  0.5216060000000  0.5659290000000 1.0
C      1  0.4934900000000  0.5209530000000  0.5433630000000 1.0
C      1  0.4850410000000  0.5479160000000  0.5424490000000 1.0
C      1  0.5344410000000  0.4952110000000  0.4664660000000 1.0
C      1  0.4153050000000  0.4748920000000  0.5122140000000 1.0
C      1  0.4494440000000  0.5756390000000  0.4474470000000 1.0
C      1  0.4312740000000  0.5935490000000  0.4586050000000 1.0
C      1  0.5191100000000  0.4484870000000  0.4453690000000 1.0
C      1  0.4677800000000  0.4772970000000  0.4374180000000 1.0
C      1  0.4748820000000  0.5727110000000  0.4634150000000 1.0
C      1  0.5950100000000  0.4801250000000  0.5182250000000 1.0
C      1  0.5697220000000  0.5462680000000  0.4960440000000 1.0
C      1  0.4938280000000  0.5263110000000  0.4797870000000 1.0
C      1  0.5126980000000  0.4960170000000  0.4488870000000 1.0
C      1  0.5110260000000  0.5937250000000  0.5586330000000 1.0
C      1  0.5078860000000  0.5561360000000  0.4357050000000 1.0
C      1  0.5145940000000  0.5194850000000  0.5011280000000 1.0
C      1  0.5379330000000  0.6118810000000  0.4673000000000 1.0
C      1  0.5286850000000  0.4510080000000  0.5771070000000 1.0
C      1  0.4853680000000  0.4415540000000  0.5010560000000 1.0
C      1  0.4909410000000  0.4967480000000  0.4317050000000 1.0
C      1  0.4860810000000  0.5210670000000  0.4143130000000 1.0
C      1  0.4946860000000  0.5379240000000  0.5860640000000 1.0
C      1  0.4521060000000  0.4528130000000  0.5361880000000 1.0
C      1  0.4453040000000  0.4676920000000  0.5740550000000 1.0
C      1  0.6062340000000  0.5121560000000  0.4807980000000 1.0
C      1  0.5354050000000  0.5796100000000  0.5617090000000 1.0
C      1  0.5276310000000  0.4390040000000  0.4720240000000 1.0
C      1  0.5601950000000  0.6104090000000  0.4715150000000 1.0
C      1  0.4803660000000  0.5030500000000  0.4819460000000 1.0
C      1  0.4811980000000  0.5852940000000  0.5602490000000 1.0
C      1  0.5876030000000  0.4992200000000  0.5365120000000 1.0
C      1  0.4330080000000  0.4935080000000  0.5775230000000 1.0
C      1  0.5332990000000  0.5320060000000  0.5465510000000 1.0
C      1  0.4414300000000  0.4750930000000  0.5224460000000 1.0
C      1  0.5447040000000  0.4739790000000  0.5864540000000 1.0
C      1  0.5744940000000  0.5105520000000  0.5577560000000 1.0
C      1  0.5534500000000  0.4275740000000  0.4807020000000 1.0
C      1  0.4565890000000  0.4983260000000  0.5247100000000 1.0
C      1  0.5852900000000  0.4657380000000  0.4714840000000 1.0
C      1  0.4618260000000  0.4465100000000  0.5759520000000 1.0
C      1  0.4494150000000  0.5194460000000  0.5852160000000 1.0
C      1  0.4804270000000  0.4248130000000  0.5700960000000 1.0
C      1  0.4674600000000  0.4503620000000  0.4797560000000 1.0
C      1  0.4670360000000  0.4078920000000  0.4760060000000 1.0
C      1  0.5544990000000  0.4664490000000  0.5403410000000 1.0
C      1  0.5182460000000  0.4719110000000  0.5094370000000 1.0
C      1  0.5006040000000  0.4723670000000  0.5323360000000 1.0
C      1  0.5725030000000  0.4253090000000  0.5344660000000 1.0
C      1  0.5600260000000  0.4838310000000  0.5633700000000 1.0
C      1  0.5031820000000  0.4393540000000  0.5763850000000 1.0
C      1  0.4997390000000  0.5786900000000  0.5020720000000 1.0
C      1  0.4822780000000  0.5575360000000  0.5695160000000 1.0
C      1  0.5105210000000  0.4961910000000  0.5782790000000 1.0
C      1  0.5171880000000  0.4749450000000  0.3996110000000 1.0
C      1  0.5903000000000  0.4074420000000  0.5339920000000 1.0
C      1  0.4596100000000  0.5804900000000  0.5412030000000 1.0
C      1  0.4244750000000  0.5416140000000  0.5316400000000 1.0
C      1  0.5132240000000  0.4482730000000  0.4955320000000 1.0
C      1  0.5424220000000  0.4221240000000  0.5378500000000 1.0
C      1  0.4267940000000  0.5417410000000  0.4594040000000 1.0
C      1  0.4155850000000  0.6089720000000  0.4681990000000 1.0
C      1  0.4525290000000  0.4372250000000  0.4303610000000 1.0
C      1  0.4455080000000  0.5254040000000  0.5183910000000 1.0
C      1  0.4609750000000  0.5351540000000  0.4204970000000 1.0
C      1  0.5133050000000  0.5855160000000  0.4341630000000 1.0
C      1  0.5580960000000  0.5132890000000  0.4596200000000 1.0
C      1  0.5750450000000  0.4562800000000  0.5195480000000 1.0
C      1  0.5983070000000  0.5883780000000  0.4977640000000 1.0
C      1  0.4402720000000  0.5502490000000  0.4335380000000 1.0
C      1  0.5457370000000  0.5574190000000  0.4834810000000 1.0
END
