TITL C-4164243-3780-645 5.25743764390199 125000 -1678.32829767624 0 0 13 (C1) n - 1
REM
REM in /home/nfs/bkarasulu/CARBON/AIRSS/Generating-Clusters/ReaxFF-fromJPCA2015/Units_Real/with-SteepDescent/Only-C1/SD-CG/Try1-3A/FIRE-CG
REM
REM
REM
REM
REM
REM ./C.cell (11c1c37f851c82e70ff6c80c92926a4b)
REM
REM compiler GCC version 9.2.1 20190827 (Red Hat 9.2.1-1)
REM options -cpp -mtune=generic -march=x86-64 -g -O0 -fpre-include=/usr/include/finclude/math-vector-fortran.h
REM seed -857307029 -70739361 -103210954 -529496422 -1223210848 -1641656059 1593319895 614902955 1588321490 -1120278098 -1322321484 -331991779 -998324921 -838313637 -1832914378 584847375 -1451364010 2097068169 622127724 1871453745 458617051 -1092889119 1408059812 1586149763 1194892567 -885071824 -2056036829 1321252934 -594218539 15806815 -256931155 -462081479 1835078308
REM
CELL 1.54180   50.00000   50.00000   50.00000   90.00000   90.00000   90.00000
LATT -1
SFAC C  
C      1  0.4823370000000  0.4675770000000  0.4713580000000 1.0
C      1  0.5275630000000  0.4915580000000  0.4750690000000 1.0
C      1  0.5399470000000  0.5379720000000  0.4964310000000 1.0
C      1  0.5334980000000  0.5589240000000  0.5057680000000 1.0
C      1  0.4990390000000  0.5017470000000  0.5560860000000 1.0
C      1  0.5471270000000  0.5108930000000  0.4842150000000 1.0
C      1  0.4639510000000  0.4778500000000  0.4928330000000 1.0
C      1  0.5084950000000  0.4771660000000  0.4684280000000 1.0
C      1  0.4755440000000  0.4863070000000  0.5153090000000 1.0
C      1  0.4726400000000  0.4882290000000  0.4544010000000 1.0
C      1  0.5120040000000  0.5090880000000  0.5753440000000 1.0
C      1  0.4857590000000  0.4937590000000  0.5351130000000 1.0
C      1  0.4520980000000  0.4989300000000  0.4696460000000 1.0
END
