TITL C-4164245-3996-662 1.02440779047755 125000 -3946.31055015586 0 0 28 (C1) n - 1
REM
REM in /home/nfs/bkarasulu/CARBON/AIRSS/Generating-Clusters/ReaxFF-fromJPCA2015/Units_Real/with-SteepDescent/Only-C1/SD-CG/Try1-3A/FIRE-CG
REM
REM
REM
REM
REM
REM ./C.cell (11c1c37f851c82e70ff6c80c92926a4b)
REM
REM compiler GCC version 9.2.1 20190827 (Red Hat 9.2.1-1)
REM options -cpp -mtune=generic -march=x86-64 -g -O0 -fpre-include=/usr/include/finclude/math-vector-fortran.h
REM seed -1803474578 -1880308526 704733766 913480880 -1543125967 1909930582 605283075 483175788 -1893614182 -594404046 -1129001524 -1092104281 1928295481 -641210369 -827465471 -1573149206 729269543 -856773379 593095561 1884477158 254475431 825498276 -1839685236 -1898986953 1921421863 -15683717 1658068980 630329905 1935339143 -1884932313 967820133 -348868783 -1452836731
REM
CELL 1.54180   50.00000   50.00000   50.00000   90.00000   90.00000   90.00000
LATT -1
SFAC C  
C      1  0.5166450000000  0.5145880000000  0.4763490000000 1.0
C      1  0.4466440000000  0.5457190000000  0.4822770000000 1.0
C      1  0.4908270000000  0.4598360000000  0.4637310000000 1.0
C      1  0.5629830000000  0.4785800000000  0.5303720000000 1.0
C      1  0.5407680000000  0.4915030000000  0.4726340000000 1.0
C      1  0.5140410000000  0.4551200000000  0.5274220000000 1.0
C      1  0.5395590000000  0.4626510000000  0.5190280000000 1.0
C      1  0.4694180000000  0.5580690000000  0.4928740000000 1.0
C      1  0.5156790000000  0.5543070000000  0.5144540000000 1.0
C      1  0.5028790000000  0.4824780000000  0.4465670000000 1.0
C      1  0.4887740000000  0.4519170000000  0.5225050000000 1.0
C      1  0.4542040000000  0.5078230000000  0.5704130000000 1.0
C      1  0.4494830000000  0.5145490000000  0.4910620000000 1.0
C      1  0.4671430000000  0.4968360000000  0.4752610000000 1.0
C      1  0.5759510000000  0.4945790000000  0.5088840000000 1.0
C      1  0.4854100000000  0.5318550000000  0.5561020000000 1.0
C      1  0.4667430000000  0.4676410000000  0.4781540000000 1.0
C      1  0.5064250000000  0.4561760000000  0.4869140000000 1.0
C      1  0.4653610000000  0.4539720000000  0.5062280000000 1.0
C      1  0.5320030000000  0.4838520000000  0.4436210000000 1.0
C      1  0.4921550000000  0.5048480000000  0.4623730000000 1.0
C      1  0.4912100000000  0.5647340000000  0.5034170000000 1.0
C      1  0.4467310000000  0.5095460000000  0.5185770000000 1.0
C      1  0.5172940000000  0.5336580000000  0.4946910000000 1.0
C      1  0.5691800000000  0.5000150000000  0.4806940000000 1.0
C      1  0.5323920000000  0.4658550000000  0.4910130000000 1.0
C      1  0.5017060000000  0.5445560000000  0.5376400000000 1.0
C      1  0.4583920000000  0.5147380000000  0.5467420000000 1.0
END
