TITL C-4164233-775-484 -2.98604337965712 125000 -20047.3158688098 0 0 135 (C1) n - 1
REM
REM in /home/nfs/bkarasulu/CARBON/AIRSS/Generating-Clusters/ReaxFF-fromJPCA2015/Units_Real/with-SteepDescent/Only-C1/SD-CG/Try1-3A/FIRE-CG
REM
REM
REM
REM
REM
REM ./C.cell (11c1c37f851c82e70ff6c80c92926a4b)
REM
REM compiler GCC version 9.2.1 20190827 (Red Hat 9.2.1-1)
REM options -cpp -mtune=generic -march=x86-64 -g -O0 -fpre-include=/usr/include/finclude/math-vector-fortran.h
REM seed 160089372 2104484811 -1040582424 -1272249349 1011029809 330075286 -2033331041 -539147121 -1106207152 1150184520 1655245996 1642021537 895956719 657034147 -388087086 755865836 -546934544 1291221854 -747602363 1475950792 348462354 494503550 1762341538 1764186342 -746056415 1490784983 1506638384 1965014289 1069297233 735115188 654758414 235983725 -1821688581
REM
CELL 1.54180   50.00000   50.00000   50.00000   90.00000   90.00000   90.00000
LATT -1
SFAC C  
C      1  0.4983610000000  0.5111950000000  0.3987180000000 1.0
C      1  0.5297010000000  0.4994030000000  0.5519550000000 1.0
C      1  0.5533080000000  0.4915080000000  0.5057810000000 1.0
C      1  0.4278930000000  0.4361790000000  0.4916090000000 1.0
C      1  0.4743800000000  0.4511400000000  0.4983610000000 1.0
C      1  0.5012190000000  0.4216020000000  0.4274490000000 1.0
C      1  0.4877190000000  0.5403400000000  0.5388420000000 1.0
C      1  0.5732970000000  0.5581500000000  0.4795730000000 1.0
C      1  0.4363140000000  0.5620830000000  0.4907680000000 1.0
C      1  0.5695340000000  0.4679190000000  0.5504910000000 1.0
C      1  0.4649160000000  0.4076620000000  0.5147360000000 1.0
C      1  0.5719180000000  0.5330470000000  0.5363990000000 1.0
C      1  0.4852100000000  0.4882380000000  0.5566230000000 1.0
C      1  0.4871740000000  0.3992800000000  0.4971970000000 1.0
C      1  0.5127980000000  0.4611440000000  0.4357210000000 1.0
C      1  0.5148430000000  0.5317390000000  0.4098180000000 1.0
C      1  0.4844160000000  0.5364160000000  0.5878530000000 1.0
C      1  0.5761810000000  0.4383950000000  0.4853340000000 1.0
C      1  0.4431660000000  0.5560580000000  0.5187970000000 1.0
C      1  0.5342880000000  0.4579470000000  0.5882790000000 1.0
C      1  0.5135280000000  0.4103150000000  0.5052130000000 1.0
C      1  0.4860710000000  0.4070110000000  0.4464540000000 1.0
C      1  0.4727680000000  0.5178450000000  0.4934400000000 1.0
C      1  0.5873950000000  0.4623390000000  0.4790370000000 1.0
C      1  0.5198850000000  0.4593580000000  0.4842420000000 1.0
C      1  0.4850760000000  0.4018630000000  0.4692540000000 1.0
C      1  0.4321190000000  0.5015560000000  0.4235950000000 1.0
C      1  0.5225590000000  0.5842420000000  0.5174690000000 1.0
C      1  0.5613170000000  0.5824450000000  0.4887170000000 1.0
C      1  0.4681510000000  0.4113310000000  0.5427660000000 1.0
C      1  0.4143660000000  0.4940470000000  0.4453170000000 1.0
C      1  0.5335720000000  0.4987820000000  0.4591920000000 1.0
C      1  0.6000410000000  0.5232890000000  0.5384160000000 1.0
C      1  0.4823590000000  0.5973700000000  0.4891030000000 1.0
C      1  0.5111810000000  0.4768530000000  0.5516980000000 1.0
C      1  0.5251260000000  0.5581800000000  0.5047210000000 1.0
C      1  0.5133090000000  0.5371430000000  0.5931540000000 1.0
C      1  0.5418790000000  0.5553190000000  0.5524040000000 1.0
C      1  0.5558950000000  0.5183440000000  0.5162060000000 1.0
C      1  0.4315970000000  0.5387450000000  0.4721580000000 1.0
C      1  0.5326780000000  0.5034940000000  0.4292930000000 1.0
C      1  0.5737490000000  0.5857510000000  0.5156760000000 1.0
C      1  0.4076890000000  0.4668120000000  0.4553480000000 1.0
C      1  0.5820320000000  0.5606600000000  0.5299320000000 1.0
C      1  0.4735420000000  0.5093020000000  0.5904880000000 1.0
C      1  0.4969620000000  0.5994540000000  0.5153360000000 1.0
C      1  0.4286020000000  0.5174270000000  0.5622870000000 1.0
C      1  0.4993870000000  0.4927820000000  0.5149350000000 1.0
C      1  0.4038780000000  0.5201510000000  0.5254400000000 1.0
C      1  0.5953060000000  0.4861720000000  0.5023180000000 1.0
C      1  0.5471410000000  0.5808160000000  0.4490310000000 1.0
C      1  0.4063370000000  0.5034000000000  0.5498140000000 1.0
C      1  0.3976410000000  0.5100500000000  0.4992490000000 1.0
C      1  0.3896780000000  0.4632540000000  0.4786540000000 1.0
C      1  0.5922430000000  0.5106330000000  0.4822560000000 1.0
C      1  0.5332820000000  0.5824260000000  0.5450260000000 1.0
C      1  0.4875210000000  0.5816920000000  0.5645080000000 1.0
C      1  0.5589070000000  0.5076940000000  0.4258120000000 1.0
C      1  0.4795710000000  0.5531960000000  0.5644020000000 1.0
C      1  0.5184110000000  0.4913110000000  0.4054840000000 1.0
C      1  0.5002220000000  0.5534830000000  0.4154490000000 1.0
C      1  0.5240670000000  0.5476050000000  0.4769840000000 1.0
C      1  0.4803890000000  0.5714280000000  0.4222320000000 1.0
C      1  0.3847690000000  0.4839120000000  0.4994030000000 1.0
C      1  0.5044160000000  0.5962940000000  0.4683220000000 1.0
C      1  0.5048110000000  0.4627650000000  0.5895660000000 1.0
C      1  0.5543200000000  0.4391390000000  0.4498320000000 1.0
C      1  0.4978210000000  0.4908640000000  0.5953510000000 1.0
C      1  0.4776870000000  0.4359450000000  0.4203100000000 1.0
C      1  0.5308150000000  0.5164880000000  0.5291270000000 1.0
C      1  0.4520400000000  0.4328280000000  0.5448300000000 1.0
C      1  0.4758550000000  0.5463210000000  0.4893520000000 1.0
C      1  0.5167410000000  0.4122640000000  0.5385790000000 1.0
C      1  0.4719440000000  0.5554630000000  0.5173070000000 1.0
C      1  0.4129760000000  0.4763020000000  0.5399570000000 1.0
C      1  0.5400140000000  0.4808130000000  0.4811750000000 1.0
C      1  0.4997040000000  0.4622710000000  0.5100650000000 1.0
C      1  0.4926520000000  0.5006020000000  0.4560310000000 1.0
C      1  0.4481240000000  0.5066520000000  0.5230990000000 1.0
C      1  0.5880900000000  0.5109170000000  0.4535530000000 1.0
C      1  0.6114210000000  0.5342660000000  0.5134850000000 1.0
C      1  0.4897530000000  0.5077760000000  0.5368220000000 1.0
C      1  0.5620130000000  0.4390840000000  0.5507040000000 1.0
C      1  0.4960470000000  0.5545620000000  0.4690840000000 1.0
C      1  0.5250760000000  0.3850420000000  0.5344640000000 1.0
C      1  0.4013440000000  0.4449070000000  0.4991570000000 1.0
C      1  0.5535730000000  0.4243230000000  0.4754560000000 1.0
C      1  0.5935700000000  0.5382000000000  0.4902160000000 1.0
C      1  0.5679250000000  0.5290690000000  0.4422850000000 1.0
C      1  0.4904430000000  0.5774060000000  0.4510990000000 1.0
C      1  0.5272370000000  0.4295930000000  0.4882820000000 1.0
C      1  0.5559050000000  0.4767770000000  0.5757060000000 1.0
C      1  0.5435780000000  0.5030740000000  0.5773740000000 1.0
C      1  0.4485950000000  0.5031500000000  0.5772270000000 1.0
C      1  0.4531460000000  0.4348860000000  0.5100210000000 1.0
C      1  0.5737970000000  0.4635240000000  0.4531660000000 1.0
C      1  0.4568110000000  0.4772860000000  0.5593510000000 1.0
C      1  0.5169020000000  0.5833360000000  0.5699590000000 1.0
C      1  0.4724510000000  0.4617140000000  0.4098830000000 1.0
C      1  0.4719210000000  0.5142700000000  0.4418300000000 1.0
C      1  0.5290980000000  0.5580330000000  0.5791320000000 1.0
C      1  0.4731260000000  0.4595730000000  0.4725020000000 1.0
C      1  0.4721920000000  0.5078970000000  0.4125330000000 1.0
C      1  0.4820550000000  0.5991750000000  0.5408460000000 1.0
C      1  0.5153240000000  0.4544970000000  0.5340510000000 1.0
C      1  0.5350010000000  0.5936470000000  0.4716140000000 1.0
C      1  0.4377890000000  0.4913550000000  0.4792710000000 1.0
C      1  0.5289940000000  0.4377060000000  0.4353630000000 1.0
C      1  0.5210740000000  0.5093740000000  0.5956070000000 1.0
C      1  0.6125270000000  0.5049290000000  0.5189100000000 1.0
C      1  0.4393300000000  0.5341990000000  0.4230520000000 1.0
C      1  0.5472120000000  0.4368690000000  0.5747290000000 1.0
C      1  0.5211000000000  0.5438420000000  0.5309830000000 1.0
C      1  0.4507270000000  0.5344420000000  0.4506110000000 1.0
C      1  0.4322830000000  0.5302480000000  0.5324260000000 1.0
C      1  0.5733060000000  0.4799880000000  0.5236170000000 1.0
C      1  0.4992760000000  0.5099800000000  0.4944250000000 1.0
C      1  0.4535040000000  0.4859640000000  0.4105810000000 1.0
C      1  0.4284100000000  0.4474950000000  0.4650820000000 1.0
C      1  0.4584260000000  0.5538050000000  0.4152510000000 1.0
C      1  0.4541880000000  0.4977300000000  0.5003360000000 1.0
C      1  0.5135860000000  0.5150210000000  0.4709970000000 1.0
C      1  0.4874970000000  0.4434050000000  0.5750410000000 1.0
C      1  0.5537180000000  0.5500660000000  0.4587050000000 1.0
C      1  0.4617190000000  0.4492950000000  0.5654970000000 1.0
C      1  0.5021010000000  0.4673100000000  0.4087740000000 1.0
C      1  0.4165670000000  0.5127420000000  0.4737950000000 1.0
C      1  0.5369730000000  0.4360330000000  0.5351500000000 1.0
C      1  0.4566240000000  0.5831860000000  0.4889040000000 1.0
C      1  0.4967770000000  0.4710390000000  0.4614010000000 1.0
C      1  0.3946830000000  0.4649020000000  0.5203430000000 1.0
C      1  0.4411560000000  0.4807120000000  0.5337670000000 1.0
C      1  0.5769710000000  0.4884400000000  0.4380410000000 1.0
C      1  0.4900740000000  0.4213280000000  0.5570490000000 1.0
C      1  0.4482580000000  0.4688750000000  0.4633660000000 1.0
END
