TITL C-4164243-3780-340 11.348429827016 125000 -12008.6765418504 0 0 82 (C1) n - 1
REM
REM in /home/nfs/bkarasulu/CARBON/AIRSS/Generating-Clusters/ReaxFF-fromJPCA2015/Units_Real/with-SteepDescent/Only-C1/SD-CG/Try1-3A/FIRE-CG
REM
REM
REM
REM
REM
REM ./C.cell (11c1c37f851c82e70ff6c80c92926a4b)
REM
REM compiler GCC version 9.2.1 20190827 (Red Hat 9.2.1-1)
REM options -cpp -mtune=generic -march=x86-64 -g -O0 -fpre-include=/usr/include/finclude/math-vector-fortran.h
REM seed 1199286022 660415430 -1577136783 1058026755 -1652502992 721204333 -794468784 -1227088853 -1062335702 1133301887 1771305146 -928011623 861761354 1380748409 -243017675 891880797 -1152399109 -1953085372 -2037679042 -1408840105 252920440 -1953659874 2125507010 642334911 -375476140 -860134011 -1601363435 -1574631386 -495695160 -1583959644 1233283876 543692648 360006030
REM
CELL 1.54180   50.00000   50.00000   50.00000   90.00000   90.00000   90.00000
LATT -1
SFAC C  
C      1  0.5374090000000  0.4439820000000  0.5427130000000 1.0
C      1  0.5801310000000  0.5081480000000  0.4655580000000 1.0
C      1  0.5605460000000  0.5148370000000  0.4827810000000 1.0
C      1  0.4865100000000  0.5155070000000  0.4371080000000 1.0
C      1  0.5055090000000  0.4621420000000  0.5796360000000 1.0
C      1  0.4819230000000  0.4843230000000  0.4882480000000 1.0
C      1  0.5299430000000  0.4292940000000  0.4976370000000 1.0
C      1  0.5573490000000  0.5567430000000  0.4830030000000 1.0
C      1  0.4348260000000  0.5281060000000  0.4814930000000 1.0
C      1  0.4974850000000  0.4421020000000  0.5557320000000 1.0
C      1  0.5691890000000  0.5354000000000  0.4663600000000 1.0
C      1  0.4888580000000  0.4959760000000  0.5147970000000 1.0
C      1  0.4711920000000  0.4584420000000  0.4809310000000 1.0
C      1  0.5690050000000  0.4810230000000  0.4635500000000 1.0
C      1  0.4611580000000  0.4979630000000  0.4777040000000 1.0
C      1  0.5106960000000  0.5710200000000  0.4993820000000 1.0
C      1  0.4237760000000  0.4670450000000  0.4775530000000 1.0
C      1  0.5656770000000  0.4471320000000  0.5330580000000 1.0
C      1  0.5267110000000  0.4820010000000  0.5738630000000 1.0
C      1  0.5216860000000  0.5433400000000  0.4276610000000 1.0
C      1  0.5119760000000  0.4893810000000  0.5499500000000 1.0
C      1  0.5430620000000  0.5256170000000  0.5609110000000 1.0
C      1  0.4685220000000  0.4456740000000  0.5465760000000 1.0
C      1  0.5450850000000  0.4773030000000  0.4461240000000 1.0
C      1  0.5201200000000  0.5727940000000  0.5263530000000 1.0
C      1  0.4841300000000  0.5334860000000  0.4902670000000 1.0
C      1  0.4814760000000  0.5623830000000  0.4968300000000 1.0
C      1  0.5280420000000  0.4929130000000  0.4113530000000 1.0
C      1  0.4564750000000  0.4661510000000  0.5655950000000 1.0
C      1  0.4482080000000  0.4584770000000  0.4611090000000 1.0
C      1  0.4881720000000  0.4353610000000  0.4749610000000 1.0
C      1  0.4924130000000  0.5428830000000  0.4274010000000 1.0
C      1  0.4324250000000  0.4395710000000  0.4772080000000 1.0
C      1  0.5558340000000  0.5197420000000  0.5109290000000 1.0
C      1  0.5608940000000  0.4961270000000  0.5311560000000 1.0
C      1  0.4631430000000  0.4355130000000  0.5204260000000 1.0
C      1  0.5144910000000  0.4629960000000  0.5377060000000 1.0
C      1  0.4910770000000  0.4562080000000  0.4296060000000 1.0
C      1  0.4271000000000  0.5150640000000  0.5279730000000 1.0
C      1  0.4835520000000  0.4983760000000  0.5581020000000 1.0
C      1  0.5465110000000  0.4433260000000  0.4799840000000 1.0
C      1  0.4729110000000  0.5718960000000  0.4680160000000 1.0
C      1  0.4370670000000  0.4404200000000  0.5063860000000 1.0
C      1  0.5655910000000  0.4655090000000  0.4872790000000 1.0
C      1  0.5586740000000  0.5497180000000  0.5542590000000 1.0
C      1  0.5176430000000  0.4223070000000  0.5435030000000 1.0
C      1  0.5322680000000  0.4527390000000  0.4554560000000 1.0
C      1  0.4441940000000  0.4927440000000  0.5662980000000 1.0
C      1  0.4685190000000  0.4905100000000  0.5325780000000 1.0
C      1  0.5206890000000  0.5643600000000  0.4495440000000 1.0
C      1  0.5351030000000  0.5171210000000  0.4250590000000 1.0
C      1  0.4775220000000  0.5506750000000  0.5548330000000 1.0
C      1  0.5123800000000  0.4164590000000  0.5146300000000 1.0
C      1  0.4800110000000  0.4759100000000  0.5802320000000 1.0
C      1  0.5299870000000  0.5667400000000  0.4775760000000 1.0
C      1  0.4860360000000  0.4264730000000  0.5024790000000 1.0
C      1  0.5618700000000  0.5513100000000  0.5109300000000 1.0
C      1  0.4401390000000  0.4889210000000  0.5240210000000 1.0
C      1  0.4238270000000  0.5489520000000  0.4594350000000 1.0
C      1  0.4607220000000  0.5223550000000  0.4771960000000 1.0
C      1  0.5132520000000  0.5321680000000  0.5508960000000 1.0
C      1  0.5040760000000  0.5601510000000  0.5471940000000 1.0
C      1  0.5267740000000  0.5174310000000  0.5030800000000 1.0
C      1  0.4568840000000  0.5523070000000  0.5203940000000 1.0
C      1  0.4483170000000  0.5632620000000  0.4612500000000 1.0
C      1  0.4893820000000  0.5267850000000  0.5663030000000 1.0
C      1  0.5069120000000  0.5072000000000  0.4566180000000 1.0
C      1  0.4368220000000  0.5188010000000  0.5550940000000 1.0
C      1  0.4527780000000  0.5441000000000  0.5463060000000 1.0
C      1  0.4269950000000  0.4681910000000  0.5067960000000 1.0
C      1  0.5505950000000  0.4973370000000  0.5584430000000 1.0
C      1  0.4349990000000  0.5369740000000  0.5097030000000 1.0
C      1  0.4917710000000  0.5667350000000  0.4458330000000 1.0
C      1  0.5062540000000  0.5184740000000  0.5216600000000 1.0
C      1  0.5088860000000  0.5216360000000  0.4808830000000 1.0
C      1  0.5052030000000  0.4434380000000  0.4516540000000 1.0
C      1  0.5332590000000  0.5035480000000  0.4497490000000 1.0
C      1  0.5103660000000  0.4709480000000  0.4103880000000 1.0
C      1  0.4645560000000  0.4669110000000  0.4337890000000 1.0
C      1  0.5690020000000  0.4720610000000  0.5167240000000 1.0
C      1  0.4662200000000  0.4952380000000  0.4272250000000 1.0
C      1  0.5492520000000  0.5673140000000  0.5310180000000 1.0
END
