TITL C-4164238-4211-54 8.34061289363117 125000 -27443.9795615879 0 0 184 (C1) n - 1
REM
REM in /home/nfs/bkarasulu/CARBON/AIRSS/Generating-Clusters/ReaxFF-fromJPCA2015/Units_Real/with-SteepDescent/Only-C1/SD-CG/Try1-3A/FIRE-CG
REM
REM
REM
REM
REM
REM ./C.cell (11c1c37f851c82e70ff6c80c92926a4b)
REM
REM compiler GCC version 9.2.1 20190827 (Red Hat 9.2.1-1)
REM options -cpp -mtune=generic -march=x86-64 -g -O0 -fpre-include=/usr/include/finclude/math-vector-fortran.h
REM seed 341280926 -302020553 -1209303068 1425141063 47449331 788853383 2024196729 1597665369 -597832444 -470796615 -555283638 -304200858 -2096082376 1861182122 -1290854055 1860931420 -1395261824 -1945599706 -1690728360 1996259315 1795810390 1905019721 -765726719 1315597912 298977549 -1153787669 1718821780 159259362 -1750422290 548015654 354916344 53732966 -982260961
REM
CELL 1.54180   50.00000   50.00000   50.00000   90.00000   90.00000   90.00000
LATT -1
SFAC C  
C      1  0.4165230000000  0.4208560000000  0.5169760000000 1.0
C      1  0.6226920000000  0.4919340000000  0.5226500000000 1.0
C      1  0.5995850000000  0.4491410000000  0.5231750000000 1.0
C      1  0.4176770000000  0.5802580000000  0.5174730000000 1.0
C      1  0.4506410000000  0.5046140000000  0.4109350000000 1.0
C      1  0.5460070000000  0.4965120000000  0.4707970000000 1.0
C      1  0.4443350000000  0.4444570000000  0.4991240000000 1.0
C      1  0.4684180000000  0.5712030000000  0.5145580000000 1.0
C      1  0.5817470000000  0.4225780000000  0.4837130000000 1.0
C      1  0.4523300000000  0.5944700000000  0.5587670000000 1.0
C      1  0.4737660000000  0.5310790000000  0.4816910000000 1.0
C      1  0.5143150000000  0.5332830000000  0.5582440000000 1.0
C      1  0.4855150000000  0.4602940000000  0.5000630000000 1.0
C      1  0.5217670000000  0.5408090000000  0.4025730000000 1.0
C      1  0.4932260000000  0.4269820000000  0.4688550000000 1.0
C      1  0.5941210000000  0.4771560000000  0.4490650000000 1.0
C      1  0.5259540000000  0.4832650000000  0.5453240000000 1.0
C      1  0.3980920000000  0.4762870000000  0.4560000000000 1.0
C      1  0.4540120000000  0.5654580000000  0.5666360000000 1.0
C      1  0.4944480000000  0.5538280000000  0.5963710000000 1.0
C      1  0.4924630000000  0.5192890000000  0.4200980000000 1.0
C      1  0.4535390000000  0.5583220000000  0.5383270000000 1.0
C      1  0.5299390000000  0.5963800000000  0.5380810000000 1.0
C      1  0.4043530000000  0.5538790000000  0.5238240000000 1.0
C      1  0.5403840000000  0.5381410000000  0.5429490000000 1.0
C      1  0.5600560000000  0.5019480000000  0.5238030000000 1.0
C      1  0.4807490000000  0.5967130000000  0.5560980000000 1.0
C      1  0.4151940000000  0.5636620000000  0.4411570000000 1.0
C      1  0.5158130000000  0.4439050000000  0.4021320000000 1.0
C      1  0.4999030000000  0.5399630000000  0.4385590000000 1.0
C      1  0.6236020000000  0.4636650000000  0.5332430000000 1.0
C      1  0.5863490000000  0.4565510000000  0.4292700000000 1.0
C      1  0.4655510000000  0.4512720000000  0.5931140000000 1.0
C      1  0.5747350000000  0.5783290000000  0.5275370000000 1.0
C      1  0.5492570000000  0.4991110000000  0.5485060000000 1.0
C      1  0.6039090000000  0.5192380000000  0.4851020000000 1.0
C      1  0.5088840000000  0.5611910000000  0.5721830000000 1.0
C      1  0.5068920000000  0.5868140000000  0.5575270000000 1.0
C      1  0.5547270000000  0.3966620000000  0.5217320000000 1.0
C      1  0.6020150000000  0.4692850000000  0.4766020000000 1.0
C      1  0.5906700000000  0.5660700000000  0.4843470000000 1.0
C      1  0.4621000000000  0.5273880000000  0.3939290000000 1.0
C      1  0.5006260000000  0.5419460000000  0.4810290000000 1.0
C      1  0.4537040000000  0.4958340000000  0.5993950000000 1.0
C      1  0.5918620000000  0.5552500000000  0.4577830000000 1.0
C      1  0.5668270000000  0.5644830000000  0.4450830000000 1.0
C      1  0.5644470000000  0.4466250000000  0.4417680000000 1.0
C      1  0.5253410000000  0.4446460000000  0.5010440000000 1.0
C      1  0.5586970000000  0.4759450000000  0.4879250000000 1.0
C      1  0.5485280000000  0.4495150000000  0.4853120000000 1.0
C      1  0.5732380000000  0.4709210000000  0.5681480000000 1.0
C      1  0.3868770000000  0.5059310000000  0.5022320000000 1.0
C      1  0.4085820000000  0.5692590000000  0.4673730000000 1.0
C      1  0.4716570000000  0.5035800000000  0.4324230000000 1.0
C      1  0.4586360000000  0.5247820000000  0.4563750000000 1.0
C      1  0.4600290000000  0.4904780000000  0.5465880000000 1.0
C      1  0.5506740000000  0.4412790000000  0.5439890000000 1.0
C      1  0.5742780000000  0.4807350000000  0.5112530000000 1.0
C      1  0.5186040000000  0.4113780000000  0.5600700000000 1.0
C      1  0.5120310000000  0.4299040000000  0.5819620000000 1.0
C      1  0.5312500000000  0.6034820000000  0.4557470000000 1.0
C      1  0.5979330000000  0.4455670000000  0.4931660000000 1.0
C      1  0.4933610000000  0.3986570000000  0.5506740000000 1.0
C      1  0.4690050000000  0.4116880000000  0.4776710000000 1.0
C      1  0.5531820000000  0.4699790000000  0.5899640000000 1.0
C      1  0.5362070000000  0.4963870000000  0.3934630000000 1.0
C      1  0.4299670000000  0.5241810000000  0.4656240000000 1.0
C      1  0.4190380000000  0.5491260000000  0.4177070000000 1.0
C      1  0.4375810000000  0.4536140000000  0.5841130000000 1.0
C      1  0.5610520000000  0.4326430000000  0.4656490000000 1.0
C      1  0.5713190000000  0.5002570000000  0.5690720000000 1.0
C      1  0.4561590000000  0.5736660000000  0.4842460000000 1.0
C      1  0.4635530000000  0.6032400000000  0.5194100000000 1.0
C      1  0.5186460000000  0.4810550000000  0.4275680000000 1.0
C      1  0.5185370000000  0.4774900000000  0.3988650000000 1.0
C      1  0.4268910000000  0.4318360000000  0.4606350000000 1.0
C      1  0.5621310000000  0.4037040000000  0.4940410000000 1.0
C      1  0.4494900000000  0.4203640000000  0.5500990000000 1.0
C      1  0.4379580000000  0.5965440000000  0.5318330000000 1.0
C      1  0.5677250000000  0.5774620000000  0.4987100000000 1.0
C      1  0.4269200000000  0.4358320000000  0.5629270000000 1.0
C      1  0.4092320000000  0.4383450000000  0.5403500000000 1.0
C      1  0.5869780000000  0.5043800000000  0.4405440000000 1.0
C      1  0.4632570000000  0.4005500000000  0.5054640000000 1.0
C      1  0.4384600000000  0.4704890000000  0.4331020000000 1.0
C      1  0.5153820000000  0.5362060000000  0.6057560000000 1.0
C      1  0.4059610000000  0.4957480000000  0.5785690000000 1.0
C      1  0.4650040000000  0.5503970000000  0.5901780000000 1.0
C      1  0.5506060000000  0.5517010000000  0.5916260000000 1.0
C      1  0.5422550000000  0.5267190000000  0.6029530000000 1.0
C      1  0.4660160000000  0.6146270000000  0.4924000000000 1.0
C      1  0.5248290000000  0.6037890000000  0.5113570000000 1.0
C      1  0.5542980000000  0.5893650000000  0.4486180000000 1.0
C      1  0.4943330000000  0.5572010000000  0.5187850000000 1.0
C      1  0.5037940000000  0.4842780000000  0.5878760000000 1.0
C      1  0.5751060000000  0.4582150000000  0.5389950000000 1.0
C      1  0.4064580000000  0.5254270000000  0.4272900000000 1.0
C      1  0.5557130000000  0.5864830000000  0.5474060000000 1.0
C      1  0.5663260000000  0.4408960000000  0.4151610000000 1.0
C      1  0.5408300000000  0.3971950000000  0.4699050000000 1.0
C      1  0.4174400000000  0.5885930000000  0.4891450000000 1.0
C      1  0.4589010000000  0.4668950000000  0.4940560000000 1.0
C      1  0.4923100000000  0.4794530000000  0.4429990000000 1.0
C      1  0.4969450000000  0.4260360000000  0.4158450000000 1.0
C      1  0.4403960000000  0.5330490000000  0.5360750000000 1.0
C      1  0.4898020000000  0.5953080000000  0.4516710000000 1.0
C      1  0.5445530000000  0.5212060000000  0.4027360000000 1.0
C      1  0.5466470000000  0.3861670000000  0.4463460000000 1.0
C      1  0.4414190000000  0.4720450000000  0.5330820000000 1.0
C      1  0.3991760000000  0.4801680000000  0.5576260000000 1.0
C      1  0.5201590000000  0.5663210000000  0.4161050000000 1.0
C      1  0.5002600000000  0.4858370000000  0.5332960000000 1.0
C      1  0.4852150000000  0.3900370000000  0.5227720000000 1.0
C      1  0.3961460000000  0.4833260000000  0.4846340000000 1.0
C      1  0.5532730000000  0.5254330000000  0.4733120000000 1.0
C      1  0.4960210000000  0.4924220000000  0.3845380000000 1.0
C      1  0.5142540000000  0.5885820000000  0.4363620000000 1.0
C      1  0.5450170000000  0.5245980000000  0.5178350000000 1.0
C      1  0.6037920000000  0.4918990000000  0.4967060000000 1.0
C      1  0.5438390000000  0.4136970000000  0.5445840000000 1.0
C      1  0.5201900000000  0.4116550000000  0.4282470000000 1.0
C      1  0.5191510000000  0.4921170000000  0.4831660000000 1.0
C      1  0.5235630000000  0.4586270000000  0.5844700000000 1.0
C      1  0.5289850000000  0.4569050000000  0.5558490000000 1.0
C      1  0.4532480000000  0.4197940000000  0.4543940000000 1.0
C      1  0.4803350000000  0.4702220000000  0.5469610000000 1.0
C      1  0.4720220000000  0.4326690000000  0.4326510000000 1.0
C      1  0.5887850000000  0.5525900000000  0.5347000000000 1.0
C      1  0.4724170000000  0.4780090000000  0.3896470000000 1.0
C      1  0.4413120000000  0.4875840000000  0.4558630000000 1.0
C      1  0.4450070000000  0.5486680000000  0.3991060000000 1.0
C      1  0.5423410000000  0.5665970000000  0.4883170000000 1.0
C      1  0.4729060000000  0.5487930000000  0.4448320000000 1.0
C      1  0.4434360000000  0.5995020000000  0.4805500000000 1.0
C      1  0.4833490000000  0.4502480000000  0.4522720000000 1.0
C      1  0.4642320000000  0.4486360000000  0.5354520000000 1.0
C      1  0.4831020000000  0.4284240000000  0.5862490000000 1.0
C      1  0.4058600000000  0.5260540000000  0.5719630000000 1.0
C      1  0.4629220000000  0.5187780000000  0.5439170000000 1.0
C      1  0.5564260000000  0.4988140000000  0.5944770000000 1.0
C      1  0.5463740000000  0.5514090000000  0.4631940000000 1.0
C      1  0.4306500000000  0.4813700000000  0.5903080000000 1.0
C      1  0.5117890000000  0.5247520000000  0.4603560000000 1.0
C      1  0.4481640000000  0.4763560000000  0.4032270000000 1.0
C      1  0.4086100000000  0.5398130000000  0.4760810000000 1.0
C      1  0.3933290000000  0.4637760000000  0.5370260000000 1.0
C      1  0.5629470000000  0.5330350000000  0.4982680000000 1.0
C      1  0.5156440000000  0.5591510000000  0.4988790000000 1.0
C      1  0.5659020000000  0.5452190000000  0.5535720000000 1.0
C      1  0.4503890000000  0.4927390000000  0.4825410000000 1.0
C      1  0.3980970000000  0.5008540000000  0.4387210000000 1.0
C      1  0.4203530000000  0.4345820000000  0.4897610000000 1.0
C      1  0.4725520000000  0.4094400000000  0.5668860000000 1.0
C      1  0.4708460000000  0.5086690000000  0.4966110000000 1.0
C      1  0.5079840000000  0.4236090000000  0.5109460000000 1.0
C      1  0.4764030000000  0.4778710000000  0.5984940000000 1.0
C      1  0.5918430000000  0.5413230000000  0.5019190000000 1.0
C      1  0.4918260000000  0.5071930000000  0.5162340000000 1.0
C      1  0.6215290000000  0.5152130000000  0.5366240000000 1.0
C      1  0.5111840000000  0.4683530000000  0.4957520000000 1.0
C      1  0.4897530000000  0.5309250000000  0.5338620000000 1.0
C      1  0.5609670000000  0.5069800000000  0.4248030000000 1.0
C      1  0.4811490000000  0.4368090000000  0.5139220000000 1.0
C      1  0.5388800000000  0.4305990000000  0.4113760000000 1.0
C      1  0.5185760000000  0.6106210000000  0.4850050000000 1.0
C      1  0.3851880000000  0.4783900000000  0.5109630000000 1.0
C      1  0.5169720000000  0.4122310000000  0.4575120000000 1.0
C      1  0.5101220000000  0.3941130000000  0.5083330000000 1.0
C      1  0.5008430000000  0.4987520000000  0.4636100000000 1.0
C      1  0.5087000000000  0.5077870000000  0.5741500000000 1.0
C      1  0.5345660000000  0.3761920000000  0.5135670000000 1.0
C      1  0.4276190000000  0.5313780000000  0.5878390000000 1.0
C      1  0.6166870000000  0.5408260000000  0.5465460000000 1.0
C      1  0.4939550000000  0.5230750000000  0.3910320000000 1.0
C      1  0.5614390000000  0.5684730000000  0.5715790000000 1.0
C      1  0.4414550000000  0.4072700000000  0.5231810000000 1.0
C      1  0.4117400000000  0.5335790000000  0.5435230000000 1.0
C      1  0.4511090000000  0.5267200000000  0.6010890000000 1.0
C      1  0.4708440000000  0.5735830000000  0.4587420000000 1.0
C      1  0.5975730000000  0.5257570000000  0.4580020000000 1.0
C      1  0.3974800000000  0.5337040000000  0.5035920000000 1.0
C      1  0.4163490000000  0.4548320000000  0.4458440000000 1.0
C      1  0.4909500000000  0.6118290000000  0.4761260000000 1.0
C      1  0.5418820000000  0.4915720000000  0.4392140000000 1.0
END
