TITL C-4164244-2836-339 16.726947491331 125000 -20130.3032661228 0 0 137 (C1) n - 1
REM
REM in /home/nfs/bkarasulu/CARBON/AIRSS/Generating-Clusters/ReaxFF-fromJPCA2015/Units_Real/with-SteepDescent/Only-C1/SD-CG/Try1-3A/FIRE-CG
REM
REM
REM
REM
REM
REM ./C.cell (11c1c37f851c82e70ff6c80c92926a4b)
REM
REM compiler GCC version 9.2.1 20190827 (Red Hat 9.2.1-1)
REM options -cpp -mtune=generic -march=x86-64 -g -O0 -fpre-include=/usr/include/finclude/math-vector-fortran.h
REM seed -66454211 535603107 -408880351 369611734 -1194065770 -1875008818 1851082821 -31301346 723660900 499463080 -300402441 -1039235768 44043327 1942492768 715954548 913391362 1151005499 -1649760082 1967647823 -442970345 -374069750 242509042 914604619 -106578971 2036019439 1391003518 1125677780 -1743362063 -1763271680 -664182195 -85946999 193019581 98823255
REM
CELL 1.54180   50.00000   50.00000   50.00000   90.00000   90.00000   90.00000
LATT -1
SFAC C  
C      1  0.4828970000000  0.4308570000000  0.5128850000000 1.0
C      1  0.5616930000000  0.5475800000000  0.5079510000000 1.0
C      1  0.5193230000000  0.4460580000000  0.4279740000000 1.0
C      1  0.4330200000000  0.5582700000000  0.5525950000000 1.0
C      1  0.5461690000000  0.4507330000000  0.4165840000000 1.0
C      1  0.4989090000000  0.4826350000000  0.4950900000000 1.0
C      1  0.5573370000000  0.5499780000000  0.4365540000000 1.0
C      1  0.4670640000000  0.5671100000000  0.4354210000000 1.0
C      1  0.4929470000000  0.5860810000000  0.5380720000000 1.0
C      1  0.5017790000000  0.4668830000000  0.5925210000000 1.0
C      1  0.5242680000000  0.4957720000000  0.4013340000000 1.0
C      1  0.4198870000000  0.5252630000000  0.5299690000000 1.0
C      1  0.4773210000000  0.4916600000000  0.5561570000000 1.0
C      1  0.5163210000000  0.5795340000000  0.4785810000000 1.0
C      1  0.3955110000000  0.5163480000000  0.4894400000000 1.0
C      1  0.5359190000000  0.4168290000000  0.4798990000000 1.0
C      1  0.4808600000000  0.4811860000000  0.5817720000000 1.0
C      1  0.4597300000000  0.5340190000000  0.3968290000000 1.0
C      1  0.5555870000000  0.5251690000000  0.4211070000000 1.0
C      1  0.4706830000000  0.5157790000000  0.4508470000000 1.0
C      1  0.5014580000000  0.4403240000000  0.5793670000000 1.0
C      1  0.4658100000000  0.4090670000000  0.5215080000000 1.0
C      1  0.4570160000000  0.5801170000000  0.4600640000000 1.0
C      1  0.4649770000000  0.4749220000000  0.5371300000000 1.0
C      1  0.4159080000000  0.5105220000000  0.4697220000000 1.0
C      1  0.5459250000000  0.4796710000000  0.4119480000000 1.0
C      1  0.4875340000000  0.4340780000000  0.4839650000000 1.0
C      1  0.4948970000000  0.4999450000000  0.4542600000000 1.0
C      1  0.4279890000000  0.4244790000000  0.4870050000000 1.0
C      1  0.5565230000000  0.5208100000000  0.5543080000000 1.0
C      1  0.5464870000000  0.4374860000000  0.5528250000000 1.0
C      1  0.4826780000000  0.5649760000000  0.5610030000000 1.0
C      1  0.5041480000000  0.5121950000000  0.5024510000000 1.0
C      1  0.5956500000000  0.4703310000000  0.4663280000000 1.0
C      1  0.4018430000000  0.4751430000000  0.5179780000000 1.0
C      1  0.5361790000000  0.5581830000000  0.5187480000000 1.0
C      1  0.4787170000000  0.5948470000000  0.5145700000000 1.0
C      1  0.5171110000000  0.4656170000000  0.4496280000000 1.0
C      1  0.5530660000000  0.4306060000000  0.4994640000000 1.0
C      1  0.4116280000000  0.5393650000000  0.5550810000000 1.0
C      1  0.5801360000000  0.4483970000000  0.4577770000000 1.0
C      1  0.5231040000000  0.4944740000000  0.4498300000000 1.0
C      1  0.4523970000000  0.4908100000000  0.5144220000000 1.0
C      1  0.5844440000000  0.5003930000000  0.5124900000000 1.0
C      1  0.5441650000000  0.5009580000000  0.5973600000000 1.0
C      1  0.5773320000000  0.5582520000000  0.4866270000000 1.0
C      1  0.4361740000000  0.4586820000000  0.5428430000000 1.0
C      1  0.4800240000000  0.5259860000000  0.6048860000000 1.0
C      1  0.5831240000000  0.5021870000000  0.4417780000000 1.0
C      1  0.4332770000000  0.5334790000000  0.4775580000000 1.0
C      1  0.6021330000000  0.4946400000000  0.4533310000000 1.0
C      1  0.5341960000000  0.4693990000000  0.5241120000000 1.0
C      1  0.5210080000000  0.5812480000000  0.5377630000000 1.0
C      1  0.5063080000000  0.5614290000000  0.5790690000000 1.0
C      1  0.4879780000000  0.4726690000000  0.4475370000000 1.0
C      1  0.5083900000000  0.4632910000000  0.5162630000000 1.0
C      1  0.5290580000000  0.5671090000000  0.5619840000000 1.0
C      1  0.4169620000000  0.4756950000000  0.5615920000000 1.0
C      1  0.4640440000000  0.5402010000000  0.5192230000000 1.0
C      1  0.4858140000000  0.4531750000000  0.5322530000000 1.0
C      1  0.5000580000000  0.4283860000000  0.4409160000000 1.0
C      1  0.5158210000000  0.5744350000000  0.4497350000000 1.0
C      1  0.4594550000000  0.4574330000000  0.4231340000000 1.0
C      1  0.4265750000000  0.5571020000000  0.4936310000000 1.0
C      1  0.4454680000000  0.5046630000000  0.5968850000000 1.0
C      1  0.5093190000000  0.4226700000000  0.4689250000000 1.0
C      1  0.4826840000000  0.4730970000000  0.4166370000000 1.0
C      1  0.5050430000000  0.5408260000000  0.4124400000000 1.0
C      1  0.4533030000000  0.5554930000000  0.5725580000000 1.0
C      1  0.6123530000000  0.5201440000000  0.4665090000000 1.0
C      1  0.5686940000000  0.4390010000000  0.4317250000000 1.0
C      1  0.5536990000000  0.5059460000000  0.4865640000000 1.0
C      1  0.4401730000000  0.4510560000000  0.4860800000000 1.0
C      1  0.5544830000000  0.4172940000000  0.4406110000000 1.0
C      1  0.5078400000000  0.4002450000000  0.5540390000000 1.0
C      1  0.4481930000000  0.5058880000000  0.4339770000000 1.0
C      1  0.4816800000000  0.5399850000000  0.5434890000000 1.0
C      1  0.4388010000000  0.5262160000000  0.4156380000000 1.0
C      1  0.4869920000000  0.5226200000000  0.3988120000000 1.0
C      1  0.5288520000000  0.5241490000000  0.4079450000000 1.0
C      1  0.5230750000000  0.4220720000000  0.5676470000000 1.0
C      1  0.4810200000000  0.5465000000000  0.4912810000000 1.0
C      1  0.4950120000000  0.4934460000000  0.3999160000000 1.0
C      1  0.4621620000000  0.5325230000000  0.4727770000000 1.0
C      1  0.5149990000000  0.5532000000000  0.4918590000000 1.0
C      1  0.4147530000000  0.4463220000000  0.4710870000000 1.0
C      1  0.3911580000000  0.4964200000000  0.4755510000000 1.0
C      1  0.5064990000000  0.5404990000000  0.5998890000000 1.0
C      1  0.4766740000000  0.5734440000000  0.4804660000000 1.0
C      1  0.4718220000000  0.4878650000000  0.4880570000000 1.0
C      1  0.6085210000000  0.4592810000000  0.5215990000000 1.0
C      1  0.4304700000000  0.4290760000000  0.5377050000000 1.0
C      1  0.4500650000000  0.5880710000000  0.5088990000000 1.0
C      1  0.4822700000000  0.4344940000000  0.5589210000000 1.0
C      1  0.6165260000000  0.5191600000000  0.4942840000000 1.0
C      1  0.5993800000000  0.5479110000000  0.4682550000000 1.0
C      1  0.5433780000000  0.4577910000000  0.5713460000000 1.0
C      1  0.4188390000000  0.4714010000000  0.4546060000000 1.0
C      1  0.5366950000000  0.5095500000000  0.4704450000000 1.0
C      1  0.4940050000000  0.5148720000000  0.5504170000000 1.0
C      1  0.4407420000000  0.5627220000000  0.5215570000000 1.0
C      1  0.5405170000000  0.4959780000000  0.5313580000000 1.0
C      1  0.5584220000000  0.4984200000000  0.4306480000000 1.0
C      1  0.5482760000000  0.4453330000000  0.5246920000000 1.0
C      1  0.4712680000000  0.4365800000000  0.4404030000000 1.0
C      1  0.3958960000000  0.4872100000000  0.5436710000000 1.0
C      1  0.4393120000000  0.4774060000000  0.4338080000000 1.0
C      1  0.4961600000000  0.5618160000000  0.4320600000000 1.0
C      1  0.4686950000000  0.4485120000000  0.4669260000000 1.0
C      1  0.3843410000000  0.4933550000000  0.5039160000000 1.0
C      1  0.5638770000000  0.5169390000000  0.5818660000000 1.0
C      1  0.5436320000000  0.5471430000000  0.5458970000000 1.0
C      1  0.4554870000000  0.5343620000000  0.5923330000000 1.0
C      1  0.4374400000000  0.5816390000000  0.4827190000000 1.0
C      1  0.5311920000000  0.5372540000000  0.4726040000000 1.0
C      1  0.5318160000000  0.5518640000000  0.4480040000000 1.0
C      1  0.4747600000000  0.4965990000000  0.6029480000000 1.0
C      1  0.4943000000000  0.5951150000000  0.4893600000000 1.0
C      1  0.5269510000000  0.5217410000000  0.5992750000000 1.0
C      1  0.4366890000000  0.4135530000000  0.5137210000000 1.0
C      1  0.6045440000000  0.5046390000000  0.5478420000000 1.0
C      1  0.3962170000000  0.5167700000000  0.5436140000000 1.0
C      1  0.5841050000000  0.5185470000000  0.5627090000000 1.0
C      1  0.5310860000000  0.4737770000000  0.5891730000000 1.0
C      1  0.4497040000000  0.5539060000000  0.4158670000000 1.0
C      1  0.6077630000000  0.5187110000000  0.5211310000000 1.0
C      1  0.4787490000000  0.4076680000000  0.5482340000000 1.0
C      1  0.5783690000000  0.4364950000000  0.4851630000000 1.0
C      1  0.4456260000000  0.5178210000000  0.5205750000000 1.0
C      1  0.5769030000000  0.5593960000000  0.4554310000000 1.0
C      1  0.5156990000000  0.5115910000000  0.5300180000000 1.0
C      1  0.5472970000000  0.3961330000000  0.4586120000000 1.0
C      1  0.5599090000000  0.5134000000000  0.5106400000000 1.0
C      1  0.4303940000000  0.4693350000000  0.5129190000000 1.0
C      1  0.4308960000000  0.4902400000000  0.5792460000000 1.0
C      1  0.5922150000000  0.4816370000000  0.5342750000000 1.0
C      1  0.6011050000000  0.4529450000000  0.4938900000000 1.0
END
