TITL C-4164236-1577-574 33.450038894392 125000 -21944.3367287845 0 0 148 (C1) n - 1
REM
REM in /home/nfs/bkarasulu/CARBON/AIRSS/Generating-Clusters/ReaxFF-fromJPCA2015/Units_Real/with-SteepDescent/Only-C1/SD-CG/Try1-3A/FIRE-CG
REM
REM
REM
REM
REM
REM ./C.cell (11c1c37f851c82e70ff6c80c92926a4b)
REM
REM compiler GCC version 9.2.1 20190827 (Red Hat 9.2.1-1)
REM options -cpp -mtune=generic -march=x86-64 -g -O0 -fpre-include=/usr/include/finclude/math-vector-fortran.h
REM seed 820374665 839115131 -806800723 -502492328 1960896020 -1353885435 -1399281611 1963560755 -614244083 1062347948 914421614 -707243208 -1308676086 600595022 -680925782 -740124039 -772413735 2013890499 -647202946 1056098662 -38529338 -655219180 -2034204077 1906813942 -390461948 -300679325 -535867242 -2110866929 1377709892 -1348238341 1912995801 1655929513 -1144751776
REM
CELL 1.54180   50.00000   50.00000   50.00000   90.00000   90.00000   90.00000
LATT -1
SFAC C  
C      1  0.5183440000000  0.5389340000000  0.4083790000000 1.0
C      1  0.4023490000000  0.5514100000000  0.5164360000000 1.0
C      1  0.5326100000000  0.5262490000000  0.5946660000000 1.0
C      1  0.4960860000000  0.5198010000000  0.4498080000000 1.0
C      1  0.4709380000000  0.5350770000000  0.5732300000000 1.0
C      1  0.5438340000000  0.4147040000000  0.5978820000000 1.0
C      1  0.4079760000000  0.4771710000000  0.5152130000000 1.0
C      1  0.6071330000000  0.5312810000000  0.4872070000000 1.0
C      1  0.5163640000000  0.5836790000000  0.4452630000000 1.0
C      1  0.4268440000000  0.4472850000000  0.4860530000000 1.0
C      1  0.4192000000000  0.5683390000000  0.5587330000000 1.0
C      1  0.5718600000000  0.4334090000000  0.4852850000000 1.0
C      1  0.4505940000000  0.5936620000000  0.4755080000000 1.0
C      1  0.4924070000000  0.4334290000000  0.4538790000000 1.0
C      1  0.4881100000000  0.5887600000000  0.4583340000000 1.0
C      1  0.4290560000000  0.4524830000000  0.5587740000000 1.0
C      1  0.5102970000000  0.5458490000000  0.5921740000000 1.0
C      1  0.5151240000000  0.5596800000000  0.4788490000000 1.0
C      1  0.4804190000000  0.5543400000000  0.4327600000000 1.0
C      1  0.4213390000000  0.5731180000000  0.5122800000000 1.0
C      1  0.5550820000000  0.4371570000000  0.5809320000000 1.0
C      1  0.5389790000000  0.4643530000000  0.4709770000000 1.0
C      1  0.5774770000000  0.4347480000000  0.5140180000000 1.0
C      1  0.5538540000000  0.5316350000000  0.4544980000000 1.0
C      1  0.4603290000000  0.5879220000000  0.4477830000000 1.0
C      1  0.4623140000000  0.4860760000000  0.5475920000000 1.0
C      1  0.5810730000000  0.4683530000000  0.4403050000000 1.0
C      1  0.5922350000000  0.5391080000000  0.5298910000000 1.0
C      1  0.4629610000000  0.5081680000000  0.5129110000000 1.0
C      1  0.4974470000000  0.5478130000000  0.4563820000000 1.0
C      1  0.4740090000000  0.5459640000000  0.5229450000000 1.0
C      1  0.5323730000000  0.4819700000000  0.4103960000000 1.0
C      1  0.4657040000000  0.5853010000000  0.5368470000000 1.0
C      1  0.5399760000000  0.5922400000000  0.5318070000000 1.0
C      1  0.4818520000000  0.4136890000000  0.5326880000000 1.0
C      1  0.5159010000000  0.4076190000000  0.5904580000000 1.0
C      1  0.5212850000000  0.4412860000000  0.4249500000000 1.0
C      1  0.5311020000000  0.4336650000000  0.5161040000000 1.0
C      1  0.4820780000000  0.5239090000000  0.5966620000000 1.0
C      1  0.4461340000000  0.5091090000000  0.4041830000000 1.0
C      1  0.4253260000000  0.4583240000000  0.5302220000000 1.0
C      1  0.4759920000000  0.5089450000000  0.5569400000000 1.0
C      1  0.4085430000000  0.4703170000000  0.4869950000000 1.0
C      1  0.5958670000000  0.5523130000000  0.5045440000000 1.0
C      1  0.5781220000000  0.4935720000000  0.4357520000000 1.0
C      1  0.4333240000000  0.5517460000000  0.4739060000000 1.0
C      1  0.6037310000000  0.5029240000000  0.4942820000000 1.0
C      1  0.5937590000000  0.4805570000000  0.4810030000000 1.0
C      1  0.5836280000000  0.4582750000000  0.4681920000000 1.0
C      1  0.4520800000000  0.4815530000000  0.4090170000000 1.0
C      1  0.4222140000000  0.4941590000000  0.4450450000000 1.0
C      1  0.4892750000000  0.5418850000000  0.4069000000000 1.0
C      1  0.5501980000000  0.4145420000000  0.4779740000000 1.0
C      1  0.4691630000000  0.4984300000000  0.5951140000000 1.0
C      1  0.3984770000000  0.5191370000000  0.4741230000000 1.0
C      1  0.5416900000000  0.5169800000000  0.4776030000000 1.0
C      1  0.5377120000000  0.4995000000000  0.5853780000000 1.0
C      1  0.4023790000000  0.5468240000000  0.5451510000000 1.0
C      1  0.4766430000000  0.4503170000000  0.4350270000000 1.0
C      1  0.4510750000000  0.5290480000000  0.4752120000000 1.0
C      1  0.5140890000000  0.4181870000000  0.4398980000000 1.0
C      1  0.4658990000000  0.4637220000000  0.5325970000000 1.0
C      1  0.5292600000000  0.3970380000000  0.4910280000000 1.0
C      1  0.4949410000000  0.4631120000000  0.5257260000000 1.0
C      1  0.5364480000000  0.5970040000000  0.5029260000000 1.0
C      1  0.4788730000000  0.4700470000000  0.5937830000000 1.0
C      1  0.5045210000000  0.5288490000000  0.5303330000000 1.0
C      1  0.5101340000000  0.4134160000000  0.5236780000000 1.0
C      1  0.5428980000000  0.4450740000000  0.5553260000000 1.0
C      1  0.5094170000000  0.4647660000000  0.4137610000000 1.0
C      1  0.5663620000000  0.4883550000000  0.5891850000000 1.0
C      1  0.5388280000000  0.4576290000000  0.4995290000000 1.0
C      1  0.5306060000000  0.4915140000000  0.4691230000000 1.0
C      1  0.4829180000000  0.4754590000000  0.4218410000000 1.0
C      1  0.5058630000000  0.3921560000000  0.5079170000000 1.0
C      1  0.4977870000000  0.4483260000000  0.4786870000000 1.0
C      1  0.4326670000000  0.4717640000000  0.5811550000000 1.0
C      1  0.4539280000000  0.4543630000000  0.5923690000000 1.0
C      1  0.5354030000000  0.5468730000000  0.5776670000000 1.0
C      1  0.4272130000000  0.5448380000000  0.4339880000000 1.0
C      1  0.4084460000000  0.5180170000000  0.5479070000000 1.0
C      1  0.5331760000000  0.5114320000000  0.4120370000000 1.0
C      1  0.4835710000000  0.4029530000000  0.4627200000000 1.0
C      1  0.4655170000000  0.4276840000000  0.5126320000000 1.0
C      1  0.4523790000000  0.4891950000000  0.4927620000000 1.0
C      1  0.4386430000000  0.5039910000000  0.4724240000000 1.0
C      1  0.5663270000000  0.5785150000000  0.5298240000000 1.0
C      1  0.4490760000000  0.4485290000000  0.4407630000000 1.0
C      1  0.4386740000000  0.4324230000000  0.4639240000000 1.0
C      1  0.5415670000000  0.4169020000000  0.4503430000000 1.0
C      1  0.4756380000000  0.5159500000000  0.4040670000000 1.0
C      1  0.4769260000000  0.5167460000000  0.4709510000000 1.0
C      1  0.4911640000000  0.5111550000000  0.5119100000000 1.0
C      1  0.4403000000000  0.4420810000000  0.5118910000000 1.0
C      1  0.5039260000000  0.3895990000000  0.4794740000000 1.0
C      1  0.4106270000000  0.5415410000000  0.4583880000000 1.0
C      1  0.4552560000000  0.4075480000000  0.4681680000000 1.0
C      1  0.5946980000000  0.4821830000000  0.5414850000000 1.0
C      1  0.5759310000000  0.5751600000000  0.5026900000000 1.0
C      1  0.5141800000000  0.5782740000000  0.5028230000000 1.0
C      1  0.6031400000000  0.5310270000000  0.4374470000000 1.0
C      1  0.5229700000000  0.4909070000000  0.5619640000000 1.0
C      1  0.5939890000000  0.5087280000000  0.5239410000000 1.0
C      1  0.4893020000000  0.5577010000000  0.5728440000000 1.0
C      1  0.4950880000000  0.4261200000000  0.5798170000000 1.0
C      1  0.4997450000000  0.4553090000000  0.5797360000000 1.0
C      1  0.4008540000000  0.5044880000000  0.5227750000000 1.0
C      1  0.4883880000000  0.5043520000000  0.4269660000000 1.0
C      1  0.5326010000000  0.5350760000000  0.5279250000000 1.0
C      1  0.4737470000000  0.4199060000000  0.5603980000000 1.0
C      1  0.5039160000000  0.5105290000000  0.5526500000000 1.0
C      1  0.5994090000000  0.5037900000000  0.4366000000000 1.0
C      1  0.5161860000000  0.4623680000000  0.5554960000000 1.0
C      1  0.5598240000000  0.4741360000000  0.5138620000000 1.0
C      1  0.5790170000000  0.5452190000000  0.4482160000000 1.0
C      1  0.5134410000000  0.5789280000000  0.5325060000000 1.0
C      1  0.5640110000000  0.5019460000000  0.5193320000000 1.0
C      1  0.5564530000000  0.5865650000000  0.4840130000000 1.0
C      1  0.4503290000000  0.4348670000000  0.5699970000000 1.0
C      1  0.5207460000000  0.5634720000000  0.4238580000000 1.0
C      1  0.5818930000000  0.4847030000000  0.5651990000000 1.0
C      1  0.4347850000000  0.4708580000000  0.4288140000000 1.0
C      1  0.4759890000000  0.4889640000000  0.4757130000000 1.0
C      1  0.3975260000000  0.5255790000000  0.5027480000000 1.0
C      1  0.5021640000000  0.4768560000000  0.4794640000000 1.0
C      1  0.4876810000000  0.4439310000000  0.5035440000000 1.0
C      1  0.5544200000000  0.4299300000000  0.5327770000000 1.0
C      1  0.4318470000000  0.5761530000000  0.4867190000000 1.0
C      1  0.5847630000000  0.4619590000000  0.5218940000000 1.0
C      1  0.4006110000000  0.4907080000000  0.4664480000000 1.0
C      1  0.5727120000000  0.5540360000000  0.5449800000000 1.0
C      1  0.4776980000000  0.5898290000000  0.4857390000000 1.0
C      1  0.4519880000000  0.5281340000000  0.5310580000000 1.0
C      1  0.4735440000000  0.5730520000000  0.5114430000000 1.0
C      1  0.5461340000000  0.5428960000000  0.5516630000000 1.0
C      1  0.4354600000000  0.5806680000000  0.5372830000000 1.0
C      1  0.5439620000000  0.4464780000000  0.4440760000000 1.0
C      1  0.4423840000000  0.4997340000000  0.5803310000000 1.0
C      1  0.4902660000000  0.5777280000000  0.5515520000000 1.0
C      1  0.4272760000000  0.5176790000000  0.4247980000000 1.0
C      1  0.5522010000000  0.5125450000000  0.4324840000000 1.0
C      1  0.5013200000000  0.4853730000000  0.5067620000000 1.0
C      1  0.5569280000000  0.4632300000000  0.4194690000000 1.0
C      1  0.4526500000000  0.5628330000000  0.4342930000000 1.0
C      1  0.5470880000000  0.5220330000000  0.5064680000000 1.0
C      1  0.6041640000000  0.5469320000000  0.4630600000000 1.0
C      1  0.4366000000000  0.5168030000000  0.5559530000000 1.0
C      1  0.5364620000000  0.5744710000000  0.4657980000000 1.0
END
