TITL C-4164236-1577-212 90.868607849332 125000 -24515.5601755925 0 0 165 (C1) n - 1
REM
REM in /home/nfs/bkarasulu/CARBON/AIRSS/Generating-Clusters/ReaxFF-fromJPCA2015/Units_Real/with-SteepDescent/Only-C1/SD-CG/Try1-3A/FIRE-CG
REM
REM
REM
REM
REM
REM ./C.cell (11c1c37f851c82e70ff6c80c92926a4b)
REM
REM compiler GCC version 9.2.1 20190827 (Red Hat 9.2.1-1)
REM options -cpp -mtune=generic -march=x86-64 -g -O0 -fpre-include=/usr/include/finclude/math-vector-fortran.h
REM seed 1930500955 -688945662 1524144472 -901341903 -711837264 -290437396 -669305162 876126284 -316017018 -2015253892 1678975672 540991793 577395784 233567003 434232449 -710874863 1925765471 1802451701 1785866316 -277046966 640509732 485799720 -2125620822 330868694 -387047265 516547033 2037202274 296217120 59220345 -1663047639 583845788 -2092780242 -1485303983
REM
CELL 1.54180   50.00000   50.00000   50.00000   90.00000   90.00000   90.00000
LATT -1
SFAC C  
C      1  0.5286840000000  0.5647560000000  0.4297990000000 1.0
C      1  0.4440120000000  0.5137730000000  0.4098010000000 1.0
C      1  0.5274030000000  0.5620810000000  0.5301920000000 1.0
C      1  0.5328480000000  0.5122040000000  0.4532680000000 1.0
C      1  0.5199960000000  0.5268570000000  0.3965290000000 1.0
C      1  0.5495930000000  0.5484010000000  0.5196130000000 1.0
C      1  0.4853570000000  0.4116850000000  0.5500060000000 1.0
C      1  0.5761620000000  0.5333560000000  0.4324520000000 1.0
C      1  0.5573240000000  0.5924560000000  0.5096650000000 1.0
C      1  0.3937910000000  0.4817610000000  0.5253330000000 1.0
C      1  0.4672020000000  0.5801610000000  0.5315440000000 1.0
C      1  0.4522430000000  0.5218690000000  0.4899580000000 1.0
C      1  0.5317950000000  0.4450840000000  0.5593830000000 1.0
C      1  0.4363170000000  0.4317130000000  0.5426830000000 1.0
C      1  0.5468190000000  0.5209910000000  0.4772840000000 1.0
C      1  0.4336050000000  0.4482850000000  0.4916080000000 1.0
C      1  0.5606700000000  0.4447760000000  0.4502350000000 1.0
C      1  0.4772680000000  0.4369650000000  0.5132060000000 1.0
C      1  0.4807820000000  0.4825010000000  0.5046820000000 1.0
C      1  0.5878580000000  0.4870960000000  0.5690260000000 1.0
C      1  0.5750380000000  0.4327900000000  0.4998400000000 1.0
C      1  0.3963980000000  0.4548660000000  0.5149560000000 1.0
C      1  0.5688280000000  0.4729040000000  0.4465590000000 1.0
C      1  0.5769010000000  0.4410770000000  0.5536670000000 1.0
C      1  0.5905990000000  0.5200120000000  0.4539280000000 1.0
C      1  0.4691370000000  0.5921230000000  0.4407800000000 1.0
C      1  0.4465380000000  0.5230370000000  0.5190640000000 1.0
C      1  0.4423800000000  0.5694470000000  0.4924330000000 1.0
C      1  0.4410670000000  0.4685040000000  0.5721660000000 1.0
C      1  0.5492760000000  0.4902350000000  0.4313850000000 1.0
C      1  0.5819120000000  0.5766440000000  0.5068180000000 1.0
C      1  0.4575290000000  0.4837860000000  0.5922410000000 1.0
C      1  0.5980050000000  0.5340990000000  0.4784890000000 1.0
C      1  0.4115590000000  0.4897350000000  0.4783730000000 1.0
C      1  0.4579540000000  0.4041050000000  0.4838030000000 1.0
C      1  0.4194050000000  0.5659300000000  0.5117210000000 1.0
C      1  0.4825950000000  0.4843650000000  0.5516730000000 1.0
C      1  0.5394920000000  0.5386890000000  0.4581140000000 1.0
C      1  0.4549990000000  0.5118720000000  0.5992060000000 1.0
C      1  0.4270230000000  0.5623280000000  0.4531880000000 1.0
C      1  0.5496260000000  0.5828210000000  0.5642450000000 1.0
C      1  0.4620420000000  0.4096530000000  0.4333970000000 1.0
C      1  0.4921800000000  0.4899260000000  0.4289270000000 1.0
C      1  0.5770010000000  0.5556130000000  0.5267510000000 1.0
C      1  0.4954600000000  0.4631870000000  0.4401480000000 1.0
C      1  0.4156980000000  0.4866810000000  0.5684370000000 1.0
C      1  0.5113760000000  0.4718370000000  0.3963530000000 1.0
C      1  0.5233470000000  0.4541590000000  0.5333910000000 1.0
C      1  0.5821020000000  0.5383280000000  0.5635890000000 1.0
C      1  0.5140420000000  0.4328310000000  0.5172070000000 1.0
C      1  0.5684330000000  0.4245940000000  0.4735190000000 1.0
C      1  0.4063670000000  0.5180610000000  0.4686730000000 1.0
C      1  0.6022980000000  0.5109800000000  0.5275680000000 1.0
C      1  0.4862090000000  0.4811940000000  0.5861910000000 1.0
C      1  0.5130410000000  0.4793860000000  0.4716820000000 1.0
C      1  0.4804670000000  0.5265690000000  0.6023570000000 1.0
C      1  0.5151640000000  0.5194060000000  0.5174960000000 1.0
C      1  0.5057620000000  0.4751410000000  0.5355780000000 1.0
C      1  0.5514520000000  0.5534620000000  0.5939510000000 1.0
C      1  0.5101790000000  0.5224210000000  0.5474340000000 1.0
C      1  0.4977650000000  0.5403920000000  0.4791550000000 1.0
C      1  0.4690480000000  0.5533690000000  0.4533290000000 1.0
C      1  0.5109910000000  0.3850330000000  0.5092710000000 1.0
C      1  0.5927840000000  0.4886520000000  0.4881340000000 1.0
C      1  0.4346330000000  0.5074900000000  0.5616470000000 1.0
C      1  0.5266340000000  0.5105850000000  0.5913840000000 1.0
C      1  0.5516950000000  0.4021910000000  0.4831330000000 1.0
C      1  0.5879440000000  0.4907650000000  0.4593670000000 1.0
C      1  0.4803990000000  0.5525870000000  0.5878740000000 1.0
C      1  0.4885650000000  0.3940810000000  0.5276440000000 1.0
C      1  0.4870000000000  0.4001520000000  0.4414380000000 1.0
C      1  0.4813710000000  0.5532160000000  0.4066080000000 1.0
C      1  0.4085710000000  0.4347490000000  0.5339000000000 1.0
C      1  0.4407220000000  0.4241970000000  0.4727440000000 1.0
C      1  0.4458620000000  0.4576860000000  0.4323840000000 1.0
C      1  0.5749160000000  0.4618270000000  0.5747950000000 1.0
C      1  0.5011480000000  0.5212510000000  0.4564890000000 1.0
C      1  0.4544810000000  0.4752630000000  0.5407380000000 1.0
C      1  0.4865640000000  0.4175720000000  0.4196130000000 1.0
C      1  0.5461050000000  0.5895520000000  0.4832970000000 1.0
C      1  0.4516710000000  0.4490600000000  0.5226870000000 1.0
C      1  0.5340490000000  0.4686470000000  0.4156760000000 1.0
C      1  0.5420150000000  0.5968770000000  0.5361640000000 1.0
C      1  0.5139340000000  0.5999190000000  0.5293870000000 1.0
C      1  0.5486000000000  0.4957790000000  0.5556290000000 1.0
C      1  0.4447890000000  0.4305900000000  0.4451710000000 1.0
C      1  0.5459850000000  0.4673480000000  0.5745040000000 1.0
C      1  0.5394460000000  0.3927740000000  0.5099740000000 1.0
C      1  0.5309540000000  0.5739020000000  0.5846380000000 1.0
C      1  0.4091050000000  0.4982680000000  0.5070270000000 1.0
C      1  0.5296620000000  0.4808000000000  0.4933490000000 1.0
C      1  0.4992320000000  0.4518740000000  0.5837050000000 1.0
C      1  0.4829020000000  0.5134160000000  0.5479330000000 1.0
C      1  0.3921660000000  0.5215960000000  0.5129300000000 1.0
C      1  0.4880330000000  0.5960180000000  0.5170460000000 1.0
C      1  0.6048660000000  0.5136170000000  0.4987370000000 1.0
C      1  0.5036010000000  0.5660250000000  0.5758890000000 1.0
C      1  0.5402310000000  0.4459070000000  0.4309320000000 1.0
C      1  0.5520700000000  0.4249910000000  0.5507060000000 1.0
C      1  0.4018660000000  0.5266770000000  0.5393150000000 1.0
C      1  0.5177910000000  0.5944610000000  0.4743190000000 1.0
C      1  0.5963190000000  0.4851990000000  0.5416050000000 1.0
C      1  0.4069780000000  0.4622900000000  0.4881690000000 1.0
C      1  0.5036390000000  0.4412440000000  0.4224910000000 1.0
C      1  0.5717810000000  0.5134840000000  0.5756550000000 1.0
C      1  0.5355330000000  0.4144470000000  0.5289680000000 1.0
C      1  0.5088720000000  0.5546810000000  0.5496170000000 1.0
C      1  0.4766960000000  0.5122800000000  0.4383200000000 1.0
C      1  0.5692930000000  0.5626290000000  0.5725100000000 1.0
C      1  0.5270520000000  0.5084670000000  0.5639400000000 1.0
C      1  0.4412630000000  0.5290870000000  0.5801350000000 1.0
C      1  0.3910720000000  0.5354490000000  0.4872490000000 1.0
C      1  0.4388560000000  0.4993030000000  0.5339440000000 1.0
C      1  0.4605560000000  0.4636520000000  0.4072170000000 1.0
C      1  0.5053110000000  0.3887070000000  0.4812110000000 1.0
C      1  0.5133880000000  0.5799020000000  0.4492730000000 1.0
C      1  0.4784180000000  0.4310320000000  0.5693920000000 1.0
C      1  0.5518410000000  0.5245500000000  0.5955480000000 1.0
C      1  0.5591380000000  0.4496360000000  0.5165830000000 1.0
C      1  0.4737510000000  0.5281650000000  0.5258890000000 1.0
C      1  0.4505780000000  0.4394670000000  0.5674210000000 1.0
C      1  0.5252830000000  0.4087570000000  0.4734070000000 1.0
C      1  0.5709980000000  0.4880940000000  0.5072390000000 1.0
C      1  0.5453550000000  0.5270780000000  0.4053160000000 1.0
C      1  0.5241110000000  0.4552160000000  0.5978830000000 1.0
C      1  0.4492720000000  0.4673010000000  0.4757060000000 1.0
C      1  0.4994730000000  0.5052920000000  0.5999560000000 1.0
C      1  0.5203420000000  0.4363030000000  0.4865400000000 1.0
C      1  0.4683440000000  0.5993750000000  0.4680400000000 1.0
C      1  0.5562730000000  0.5563860000000  0.4423910000000 1.0
C      1  0.4249470000000  0.5330170000000  0.4525240000000 1.0
C      1  0.3946910000000  0.5643990000000  0.4949510000000 1.0
C      1  0.4489250000000  0.5646720000000  0.5460350000000 1.0
C      1  0.4537150000000  0.4897670000000  0.3953860000000 1.0
C      1  0.5017240000000  0.4999210000000  0.3974220000000 1.0
C      1  0.4557330000000  0.5533170000000  0.5723500000000 1.0
C      1  0.4794790000000  0.3927860000000  0.4670520000000 1.0
C      1  0.4249990000000  0.5458950000000  0.5330940000000 1.0
C      1  0.4939890000000  0.5360210000000  0.5072570000000 1.0
C      1  0.4707760000000  0.5007570000000  0.4855780000000 1.0
C      1  0.4753210000000  0.5065910000000  0.3840850000000 1.0
C      1  0.5427560000000  0.5228540000000  0.5071450000000 1.0
C      1  0.5090380000000  0.4903200000000  0.5120250000000 1.0
C      1  0.4932460000000  0.5631110000000  0.4637450000000 1.0
C      1  0.4657010000000  0.5680310000000  0.4265990000000 1.0
C      1  0.4550450000000  0.5469380000000  0.4785050000000 1.0
C      1  0.4398640000000  0.5853800000000  0.4680130000000 1.0
C      1  0.5423010000000  0.4562620000000  0.4931800000000 1.0
C      1  0.5854180000000  0.4576980000000  0.5313350000000 1.0
C      1  0.4754750000000  0.4584240000000  0.4885360000000 1.0
C      1  0.4880910000000  0.4538160000000  0.4002150000000 1.0
C      1  0.5657220000000  0.5121050000000  0.4159140000000 1.0
C      1  0.4646840000000  0.5310470000000  0.3964700000000 1.0
C      1  0.5945030000000  0.5360850000000  0.5392950000000 1.0
C      1  0.4406700000000  0.4796210000000  0.4510850000000 1.0
C      1  0.4915930000000  0.5984900000000  0.4868130000000 1.0
C      1  0.3972200000000  0.4983130000000  0.5488050000000 1.0
C      1  0.5877210000000  0.5620180000000  0.4813230000000 1.0
C      1  0.4688130000000  0.4087670000000  0.5109930000000 1.0
C      1  0.5538270000000  0.4983260000000  0.5264500000000 1.0
C      1  0.4986940000000  0.4544200000000  0.4683000000000 1.0
C      1  0.4461580000000  0.5107580000000  0.4397240000000 1.0
C      1  0.5110410000000  0.5515970000000  0.4095150000000 1.0
C      1  0.5653720000000  0.5734310000000  0.4679140000000 1.0
C      1  0.4941860000000  0.4988490000000  0.4705200000000 1.0
END
