TITL C-4164243-3780-128 16.5000415463848 125000 -24889.2186954413 0 0 167 (C1) n - 1
REM
REM in /home/nfs/bkarasulu/CARBON/AIRSS/Generating-Clusters/ReaxFF-fromJPCA2015/Units_Real/with-SteepDescent/Only-C1/SD-CG/Try1-3A/FIRE-CG
REM
REM
REM
REM
REM
REM ./C.cell (11c1c37f851c82e70ff6c80c92926a4b)
REM
REM compiler GCC version 9.2.1 20190827 (Red Hat 9.2.1-1)
REM options -cpp -mtune=generic -march=x86-64 -g -O0 -fpre-include=/usr/include/finclude/math-vector-fortran.h
REM seed -1705561956 -1742377925 263142567 -1535609676 -861149128 840080521 -293940383 2100206613 -331055581 -945285398 1153783557 633255128 -779750528 572986452 -117026145 -859846208 -171542774 -788792858 2142200257 255163693 1096516457 1383952442 660302632 -1921071461 397563497 1971848849 -842616796 -1415279979 1007286576 1005214714 -1430675244 254469981 -865769413
REM
CELL 1.54180   50.00000   50.00000   50.00000   90.00000   90.00000   90.00000
LATT -1
SFAC C  
C      1  0.4212310000000  0.5382130000000  0.4569910000000 1.0
C      1  0.4553210000000  0.5060820000000  0.5990700000000 1.0
C      1  0.4595860000000  0.4289000000000  0.4242790000000 1.0
C      1  0.4565480000000  0.4073390000000  0.5404390000000 1.0
C      1  0.5204990000000  0.5991960000000  0.4860020000000 1.0
C      1  0.6072890000000  0.4928830000000  0.5077220000000 1.0
C      1  0.5142200000000  0.4516820000000  0.5525600000000 1.0
C      1  0.5433850000000  0.4380200000000  0.4712150000000 1.0
C      1  0.5941760000000  0.5166060000000  0.5203850000000 1.0
C      1  0.4327250000000  0.5847940000000  0.5133120000000 1.0
C      1  0.4033250000000  0.5155400000000  0.4456770000000 1.0
C      1  0.5390280000000  0.5568370000000  0.4178010000000 1.0
C      1  0.4260880000000  0.5004970000000  0.4894470000000 1.0
C      1  0.4978560000000  0.6021660000000  0.5040590000000 1.0
C      1  0.4635040000000  0.5564050000000  0.4558650000000 1.0
C      1  0.5936760000000  0.4579610000000  0.4898750000000 1.0
C      1  0.5208020000000  0.4155370000000  0.4291130000000 1.0
C      1  0.5296880000000  0.4723540000000  0.4939500000000 1.0
C      1  0.5660500000000  0.4240920000000  0.4566410000000 1.0
C      1  0.4694230000000  0.5329750000000  0.4724650000000 1.0
C      1  0.5498550000000  0.4845450000000  0.4003860000000 1.0
C      1  0.4608470000000  0.6024290000000  0.4792730000000 1.0
C      1  0.4405230000000  0.4841040000000  0.5862680000000 1.0
C      1  0.5496740000000  0.5969850000000  0.4810960000000 1.0
C      1  0.4565820000000  0.4859770000000  0.4075350000000 1.0
C      1  0.5562110000000  0.5212880000000  0.4588200000000 1.0
C      1  0.5700290000000  0.5043140000000  0.5736870000000 1.0
C      1  0.4421260000000  0.4767250000000  0.4505480000000 1.0
C      1  0.4308780000000  0.4079180000000  0.4809410000000 1.0
C      1  0.5014070000000  0.4075000000000  0.4491010000000 1.0
C      1  0.5500690000000  0.5270740000000  0.5312230000000 1.0
C      1  0.5478350000000  0.5701500000000  0.5323060000000 1.0
C      1  0.5329660000000  0.4988090000000  0.4938570000000 1.0
C      1  0.5413890000000  0.4186580000000  0.5087370000000 1.0
C      1  0.4468040000000  0.5342050000000  0.5939500000000 1.0
C      1  0.5480780000000  0.4273030000000  0.4335560000000 1.0
C      1  0.4045960000000  0.5218210000000  0.5266470000000 1.0
C      1  0.4025630000000  0.5442550000000  0.5083630000000 1.0
C      1  0.5817080000000  0.5282410000000  0.4467960000000 1.0
C      1  0.4849730000000  0.4537630000000  0.4567690000000 1.0
C      1  0.5036650000000  0.5186020000000  0.6126940000000 1.0
C      1  0.5373620000000  0.4316080000000  0.5462790000000 1.0
C      1  0.3956110000000  0.4891560000000  0.4563970000000 1.0
C      1  0.4298460000000  0.4507610000000  0.4554330000000 1.0
C      1  0.4780640000000  0.4385030000000  0.4044580000000 1.0
C      1  0.4808500000000  0.5282340000000  0.4046350000000 1.0
C      1  0.5104120000000  0.3995570000000  0.4757820000000 1.0
C      1  0.4698620000000  0.5076950000000  0.4219410000000 1.0
C      1  0.5600160000000  0.4410410000000  0.5135500000000 1.0
C      1  0.5067850000000  0.4559050000000  0.4374580000000 1.0
C      1  0.5099760000000  0.5099440000000  0.4584550000000 1.0
C      1  0.5343680000000  0.4857370000000  0.5912230000000 1.0
C      1  0.4602890000000  0.4634740000000  0.5804910000000 1.0
C      1  0.4073790000000  0.4798800000000  0.4827620000000 1.0
C      1  0.4853220000000  0.4501800000000  0.5104880000000 1.0
C      1  0.5205010000000  0.4959600000000  0.3901110000000 1.0
C      1  0.4905970000000  0.4834770000000  0.5066530000000 1.0
C      1  0.5110730000000  0.5624230000000  0.4248390000000 1.0
C      1  0.5906380000000  0.5675250000000  0.4741030000000 1.0
C      1  0.5354440000000  0.5851140000000  0.5553920000000 1.0
C      1  0.4610140000000  0.6008450000000  0.4521960000000 1.0
C      1  0.4184250000000  0.4984310000000  0.5170170000000 1.0
C      1  0.4868570000000  0.4470520000000  0.5392430000000 1.0
C      1  0.4622430000000  0.4487590000000  0.5548180000000 1.0
C      1  0.4634040000000  0.4556990000000  0.4929220000000 1.0
C      1  0.4851840000000  0.4702430000000  0.5940160000000 1.0
C      1  0.5263880000000  0.4172790000000  0.5828050000000 1.0
C      1  0.4737130000000  0.5865880000000  0.4994130000000 1.0
C      1  0.4132320000000  0.4551990000000  0.4993060000000 1.0
C      1  0.4349240000000  0.4419690000000  0.4843220000000 1.0
C      1  0.4718860000000  0.5429890000000  0.5191730000000 1.0
C      1  0.4311530000000  0.5624950000000  0.5552570000000 1.0
C      1  0.5187440000000  0.5370780000000  0.4701460000000 1.0
C      1  0.4705650000000  0.4788470000000  0.4564640000000 1.0
C      1  0.5365660000000  0.4541730000000  0.4404260000000 1.0
C      1  0.4362280000000  0.5983820000000  0.4674440000000 1.0
C      1  0.5946510000000  0.5462250000000  0.5200960000000 1.0
C      1  0.5155420000000  0.5892670000000  0.4585590000000 1.0
C      1  0.5636900000000  0.4377380000000  0.5573430000000 1.0
C      1  0.4956930000000  0.3903940000000  0.4990500000000 1.0
C      1  0.4244280000000  0.5596990000000  0.5249480000000 1.0
C      1  0.5659500000000  0.5070400000000  0.5171960000000 1.0
C      1  0.4668120000000  0.3896510000000  0.4943710000000 1.0
C      1  0.5336110000000  0.5282180000000  0.4147000000000 1.0
C      1  0.5051150000000  0.4908720000000  0.5304710000000 1.0
C      1  0.4197540000000  0.5167180000000  0.5545440000000 1.0
C      1  0.4278780000000  0.5400620000000  0.5724330000000 1.0
C      1  0.4978290000000  0.4815470000000  0.3917750000000 1.0
C      1  0.4717130000000  0.5750900000000  0.5754320000000 1.0
C      1  0.4447780000000  0.5392170000000  0.5104580000000 1.0
C      1  0.5862050000000  0.4568790000000  0.5456410000000 1.0
C      1  0.5277960000000  0.4761660000000  0.5396830000000 1.0
C      1  0.5505970000000  0.4340040000000  0.5843450000000 1.0
C      1  0.5366270000000  0.5094620000000  0.4394420000000 1.0
C      1  0.5551670000000  0.4781120000000  0.5305880000000 1.0
C      1  0.5073110000000  0.4538590000000  0.5843780000000 1.0
C      1  0.5298340000000  0.4079440000000  0.5313100000000 1.0
C      1  0.4578740000000  0.5919190000000  0.5253450000000 1.0
C      1  0.5787400000000  0.4814680000000  0.4462820000000 1.0
C      1  0.5742670000000  0.5705540000000  0.5197820000000 1.0
C      1  0.4515280000000  0.4022300000000  0.5146540000000 1.0
C      1  0.5812010000000  0.4212620000000  0.5054120000000 1.0
C      1  0.4661820000000  0.5563090000000  0.5985050000000 1.0
C      1  0.4751100000000  0.4225010000000  0.4503780000000 1.0
C      1  0.4320740000000  0.4749310000000  0.4209710000000 1.0
C      1  0.5134770000000  0.5460320000000  0.4975860000000 1.0
C      1  0.6097920000000  0.4981650000000  0.4787930000000 1.0
C      1  0.4847740000000  0.5528690000000  0.4943500000000 1.0
C      1  0.4867460000000  0.5397460000000  0.6080880000000 1.0
C      1  0.5600180000000  0.5050760000000  0.4841380000000 1.0
C      1  0.5340410000000  0.5238200000000  0.6081520000000 1.0
C      1  0.4851350000000  0.5415370000000  0.5459310000000 1.0
C      1  0.4789070000000  0.5795640000000  0.4443680000000 1.0
C      1  0.5336110000000  0.4559190000000  0.5961080000000 1.0
C      1  0.5726810000000  0.4814990000000  0.5543830000000 1.0
C      1  0.5518850000000  0.4579160000000  0.4889990000000 1.0
C      1  0.4866220000000  0.3998880000000  0.5492130000000 1.0
C      1  0.5363320000000  0.5465500000000  0.5900760000000 1.0
C      1  0.4456510000000  0.4916750000000  0.5244780000000 1.0
C      1  0.4739540000000  0.5167360000000  0.5565700000000 1.0
C      1  0.5529240000000  0.4813580000000  0.4316100000000 1.0
C      1  0.4951540000000  0.5624870000000  0.5641190000000 1.0
C      1  0.5039220000000  0.3955690000000  0.5264880000000 1.0
C      1  0.5323350000000  0.5476670000000  0.5206210000000 1.0
C      1  0.5865710000000  0.4310280000000  0.4771440000000 1.0
C      1  0.5580250000000  0.5698050000000  0.4366290000000 1.0
C      1  0.4826580000000  0.4978420000000  0.6053590000000 1.0
C      1  0.5748010000000  0.4761260000000  0.4752150000000 1.0
C      1  0.4427480000000  0.5490220000000  0.4377430000000 1.0
C      1  0.4618950000000  0.5489840000000  0.4139990000000 1.0
C      1  0.4412140000000  0.4326260000000  0.5420260000000 1.0
C      1  0.5051100000000  0.4362710000000  0.4150040000000 1.0
C      1  0.4343780000000  0.4426960000000  0.4281440000000 1.0
C      1  0.5104820000000  0.5224590000000  0.3979400000000 1.0
C      1  0.5219350000000  0.5680300000000  0.5760010000000 1.0
C      1  0.4804130000000  0.5075750000000  0.4518980000000 1.0
C      1  0.5297160000000  0.5288970000000  0.5672980000000 1.0
C      1  0.4483260000000  0.5086170000000  0.5456800000000 1.0
C      1  0.5088580000000  0.4867580000000  0.4824060000000 1.0
C      1  0.4624550000000  0.4831510000000  0.5028100000000 1.0
C      1  0.4833200000000  0.5691640000000  0.4169600000000 1.0
C      1  0.4067690000000  0.4918860000000  0.4298060000000 1.0
C      1  0.5049700000000  0.4079410000000  0.5686770000000 1.0
C      1  0.5976640000000  0.4649810000000  0.5178360000000 1.0
C      1  0.4173740000000  0.4677430000000  0.5480280000000 1.0
C      1  0.5684740000000  0.4795690000000  0.3845070000000 1.0
C      1  0.5575220000000  0.5255310000000  0.5587190000000 1.0
C      1  0.4413840000000  0.5256680000000  0.4838550000000 1.0
C      1  0.5988820000000  0.5492750000000  0.4936510000000 1.0
C      1  0.5306030000000  0.4166770000000  0.4842790000000 1.0
C      1  0.5979140000000  0.5030710000000  0.4524520000000 1.0
C      1  0.4943530000000  0.6067900000000  0.5310670000000 1.0
C      1  0.4180580000000  0.4487150000000  0.5280090000000 1.0
C      1  0.4957160000000  0.4967540000000  0.5563190000000 1.0
C      1  0.5821920000000  0.5574250000000  0.4472480000000 1.0
C      1  0.4183320000000  0.4873570000000  0.5672570000000 1.0
C      1  0.4571340000000  0.4033020000000  0.4692580000000 1.0
C      1  0.5195540000000  0.5018390000000  0.5720950000000 1.0
C      1  0.5549370000000  0.5047120000000  0.5992260000000 1.0
C      1  0.4228430000000  0.5802290000000  0.4864610000000 1.0
C      1  0.5143220000000  0.5602220000000  0.4534370000000 1.0
C      1  0.5725690000000  0.5823660000000  0.4931760000000 1.0
C      1  0.5451080000000  0.5907050000000  0.4528780000000 1.0
C      1  0.5139910000000  0.5985810000000  0.5445040000000 1.0
C      1  0.4102830000000  0.5542860000000  0.4813520000000 1.0
C      1  0.4745680000000  0.4667640000000  0.3934840000000 1.0
C      1  0.4535450000000  0.5801970000000  0.5531590000000 1.0
END
