TITL C-4164234-2335-480 104.267108733101 125000 -27381.4284319125 0 0 185 (C1) n - 1
REM
REM in /home/nfs/bkarasulu/CARBON/AIRSS/Generating-Clusters/ReaxFF-fromJPCA2015/Units_Real/with-SteepDescent/Only-C1/SD-CG/Try1-3A/FIRE-CG
REM
REM
REM
REM
REM
REM ./C.cell (11c1c37f851c82e70ff6c80c92926a4b)
REM
REM compiler GCC version 9.2.1 20190827 (Red Hat 9.2.1-1)
REM options -cpp -mtune=generic -march=x86-64 -g -O0 -fpre-include=/usr/include/finclude/math-vector-fortran.h
REM seed 309663868 1658743598 -286051994 918871818 1001820850 864729638 -1820683025 -1913323444 -1597321974 -2098636140 -1802341915 -1243394922 1838927765 1720720530 -964507063 1835298017 -72751246 972421286 -458405039 -1732592622 -563939821 -925614762 -1479603840 -221336439 -1737467788 278654578 987253186 -993287047 -1661003913 1084912105 -2064677233 258204615 1195996439
REM
CELL 1.54180   50.00000   50.00000   50.00000   90.00000   90.00000   90.00000
LATT -1
SFAC C  
C      1  0.5640560000000  0.5138880000000  0.4183510000000 1.0
C      1  0.5525670000000  0.4350730000000  0.5861310000000 1.0
C      1  0.5736880000000  0.4955130000000  0.5903040000000 1.0
C      1  0.4764910000000  0.5447500000000  0.4680460000000 1.0
C      1  0.5497720000000  0.5848570000000  0.5170500000000 1.0
C      1  0.5060180000000  0.6086700000000  0.4711930000000 1.0
C      1  0.4983720000000  0.5631510000000  0.4848170000000 1.0
C      1  0.5568560000000  0.4158180000000  0.4750360000000 1.0
C      1  0.4867500000000  0.4972470000000  0.4817090000000 1.0
C      1  0.5686440000000  0.5654930000000  0.5538230000000 1.0
C      1  0.5551250000000  0.4159190000000  0.5626810000000 1.0
C      1  0.4001280000000  0.5057850000000  0.5310610000000 1.0
C      1  0.4246750000000  0.5540550000000  0.5365390000000 1.0
C      1  0.4737040000000  0.5153590000000  0.3968300000000 1.0
C      1  0.5336490000000  0.4130740000000  0.4920580000000 1.0
C      1  0.4669610000000  0.4429500000000  0.5212100000000 1.0
C      1  0.6119570000000  0.5493770000000  0.4899330000000 1.0
C      1  0.4446570000000  0.4157130000000  0.5529930000000 1.0
C      1  0.4887470000000  0.5206570000000  0.5287480000000 1.0
C      1  0.4658090000000  0.6031850000000  0.5291890000000 1.0
C      1  0.4984050000000  0.4209000000000  0.4268070000000 1.0
C      1  0.5444660000000  0.5664670000000  0.5695780000000 1.0
C      1  0.6024670000000  0.5297430000000  0.5257180000000 1.0
C      1  0.5126550000000  0.6061180000000  0.4420790000000 1.0
C      1  0.5737130000000  0.5745450000000  0.5254980000000 1.0
C      1  0.5205770000000  0.4814300000000  0.4422590000000 1.0
C      1  0.4974010000000  0.5365950000000  0.5525630000000 1.0
C      1  0.5130200000000  0.4593780000000  0.3978440000000 1.0
C      1  0.5501290000000  0.5447250000000  0.4967230000000 1.0
C      1  0.4832600000000  0.4067800000000  0.5627490000000 1.0
C      1  0.5448900000000  0.5229960000000  0.6015130000000 1.0
C      1  0.4975690000000  0.4781280000000  0.5246990000000 1.0
C      1  0.5126180000000  0.5034330000000  0.4873790000000 1.0
C      1  0.5184440000000  0.5236460000000  0.4700430000000 1.0
C      1  0.3931980000000  0.5093090000000  0.5595500000000 1.0
C      1  0.4122680000000  0.5415130000000  0.4548480000000 1.0
C      1  0.4480980000000  0.4688860000000  0.3897880000000 1.0
C      1  0.4758570000000  0.5746470000000  0.5273780000000 1.0
C      1  0.4863670000000  0.5902870000000  0.4810120000000 1.0
C      1  0.5200400000000  0.4345280000000  0.4131520000000 1.0
C      1  0.5011170000000  0.3917940000000  0.5046460000000 1.0
C      1  0.5877880000000  0.4537490000000  0.4458510000000 1.0
C      1  0.4623410000000  0.4933400000000  0.4836950000000 1.0
C      1  0.5495320000000  0.6073850000000  0.5298140000000 1.0
C      1  0.4119830000000  0.4160010000000  0.4933230000000 1.0
C      1  0.4979810000000  0.5950850000000  0.4213140000000 1.0
C      1  0.5999960000000  0.4995100000000  0.4448680000000 1.0
C      1  0.5446900000000  0.4871240000000  0.4176010000000 1.0
C      1  0.4061740000000  0.4337050000000  0.4709070000000 1.0
C      1  0.4275950000000  0.5466000000000  0.5654200000000 1.0
C      1  0.5806710000000  0.5730590000000  0.4252190000000 1.0
C      1  0.4608490000000  0.4472950000000  0.5768950000000 1.0
C      1  0.5380260000000  0.4662620000000  0.4777070000000 1.0
C      1  0.5993820000000  0.4889020000000  0.5566950000000 1.0
C      1  0.4694430000000  0.4253490000000  0.4188920000000 1.0
C      1  0.5976250000000  0.5544050000000  0.5163400000000 1.0
C      1  0.4561280000000  0.5893830000000  0.4819290000000 1.0
C      1  0.5120650000000  0.4093240000000  0.4505090000000 1.0
C      1  0.5450260000000  0.5337590000000  0.4223550000000 1.0
C      1  0.6167760000000  0.5231830000000  0.4808470000000 1.0
C      1  0.5733440000000  0.5377730000000  0.5614110000000 1.0
C      1  0.5046430000000  0.5106620000000  0.3946930000000 1.0
C      1  0.5655240000000  0.4449040000000  0.5112550000000 1.0
C      1  0.4857560000000  0.4652530000000  0.4054690000000 1.0
C      1  0.4446400000000  0.4173250000000  0.4333620000000 1.0
C      1  0.4561570000000  0.5400640000000  0.5814280000000 1.0
C      1  0.5240580000000  0.4574440000000  0.5576200000000 1.0
C      1  0.5610030000000  0.4634890000000  0.4147560000000 1.0
C      1  0.5040400000000  0.4360270000000  0.5945530000000 1.0
C      1  0.4426840000000  0.5994020000000  0.5115810000000 1.0
C      1  0.5080500000000  0.5028030000000  0.5163100000000 1.0
C      1  0.5599260000000  0.4860310000000  0.4732650000000 1.0
C      1  0.4055090000000  0.4997150000000  0.4305440000000 1.0
C      1  0.4749530000000  0.3893990000000  0.5154080000000 1.0
C      1  0.4816980000000  0.5939660000000  0.5776730000000 1.0
C      1  0.4774560000000  0.4900390000000  0.4217900000000 1.0
C      1  0.4118750000000  0.4794510000000  0.5218690000000 1.0
C      1  0.4646750000000  0.4468180000000  0.3973180000000 1.0
C      1  0.5778490000000  0.4812430000000  0.4507050000000 1.0
C      1  0.4213490000000  0.5819320000000  0.5199490000000 1.0
C      1  0.5702340000000  0.4978570000000  0.4981780000000 1.0
C      1  0.5410900000000  0.4131090000000  0.4498680000000 1.0
C      1  0.5525850000000  0.5925320000000  0.4935640000000 1.0
C      1  0.5119150000000  0.4080950000000  0.5586510000000 1.0
C      1  0.4935770000000  0.4824370000000  0.5973310000000 1.0
C      1  0.4087010000000  0.5276550000000  0.5754210000000 1.0
C      1  0.5148830000000  0.4610420000000  0.4613850000000 1.0
C      1  0.3936410000000  0.4839990000000  0.4735740000000 1.0
C      1  0.4788920000000  0.4254420000000  0.5852760000000 1.0
C      1  0.4333020000000  0.5228390000000  0.4665950000000 1.0
C      1  0.5211270000000  0.5636160000000  0.5516060000000 1.0
C      1  0.5272440000000  0.3973410000000  0.5163260000000 1.0
C      1  0.4264390000000  0.4362500000000  0.4489590000000 1.0
C      1  0.4315000000000  0.4823440000000  0.5701560000000 1.0
C      1  0.4782000000000  0.4726240000000  0.5718380000000 1.0
C      1  0.5475720000000  0.4842510000000  0.5778210000000 1.0
C      1  0.5213340000000  0.4873100000000  0.3963240000000 1.0
C      1  0.4308650000000  0.4946300000000  0.4164080000000 1.0
C      1  0.5216090000000  0.5123700000000  0.6091050000000 1.0
C      1  0.4842870000000  0.5657270000000  0.4206490000000 1.0
C      1  0.5594520000000  0.5206160000000  0.5417500000000 1.0
C      1  0.5157520000000  0.4404290000000  0.5165630000000 1.0
C      1  0.4553630000000  0.5114320000000  0.5868830000000 1.0
C      1  0.4683990000000  0.5647960000000  0.4475960000000 1.0
C      1  0.4557000000000  0.5543820000000  0.5356300000000 1.0
C      1  0.4775740000000  0.5051930000000  0.6048160000000 1.0
C      1  0.5899260000000  0.5212840000000  0.4288520000000 1.0
C      1  0.6175110000000  0.4976930000000  0.4694520000000 1.0
C      1  0.5464730000000  0.5519340000000  0.4498260000000 1.0
C      1  0.3922550000000  0.5199050000000  0.4469640000000 1.0
C      1  0.4402520000000  0.5525830000000  0.4131140000000 1.0
C      1  0.5364070000000  0.3994170000000  0.5454360000000 1.0
C      1  0.5200090000000  0.5329780000000  0.4062770000000 1.0
C      1  0.4267410000000  0.3912080000000  0.4891990000000 1.0
C      1  0.4277000000000  0.5646640000000  0.4375840000000 1.0
C      1  0.5699320000000  0.5248900000000  0.5890830000000 1.0
C      1  0.4488720000000  0.4551310000000  0.4512500000000 1.0
C      1  0.5347330000000  0.6064280000000  0.4784570000000 1.0
C      1  0.5265730000000  0.5474920000000  0.4778920000000 1.0
C      1  0.4177860000000  0.4346240000000  0.5166520000000 1.0
C      1  0.4977390000000  0.4983490000000  0.4407540000000 1.0
C      1  0.5574730000000  0.5209440000000  0.5124210000000 1.0
C      1  0.4524910000000  0.5355510000000  0.4842200000000 1.0
C      1  0.4335930000000  0.4523040000000  0.5686740000000 1.0
C      1  0.3989350000000  0.5548330000000  0.4791300000000 1.0
C      1  0.5006800000000  0.5667470000000  0.5139690000000 1.0
C      1  0.5223430000000  0.4793250000000  0.6003840000000 1.0
C      1  0.5151880000000  0.4342220000000  0.5439870000000 1.0
C      1  0.5460490000000  0.4257710000000  0.4242580000000 1.0
C      1  0.5793100000000  0.4457720000000  0.5806700000000 1.0
C      1  0.5712550000000  0.4524150000000  0.5388710000000 1.0
C      1  0.5277050000000  0.4486340000000  0.5997560000000 1.0
C      1  0.5507440000000  0.4663660000000  0.5545880000000 1.0
C      1  0.6065100000000  0.5018150000000  0.5323180000000 1.0
C      1  0.4995500000000  0.5263980000000  0.4502670000000 1.0
C      1  0.5201770000000  0.5802170000000  0.5749600000000 1.0
C      1  0.3922090000000  0.4561960000000  0.4835900000000 1.0
C      1  0.5973810000000  0.4492450000000  0.4732980000000 1.0
C      1  0.5549640000000  0.5786710000000  0.4399380000000 1.0
C      1  0.4694430000000  0.5411200000000  0.5568700000000 1.0
C      1  0.4964430000000  0.5748720000000  0.5924200000000 1.0
C      1  0.6089480000000  0.4734820000000  0.4859110000000 1.0
C      1  0.4562950000000  0.4951850000000  0.5630810000000 1.0
C      1  0.4457260000000  0.5816050000000  0.4525090000000 1.0
C      1  0.5175780000000  0.5183420000000  0.5584970000000 1.0
C      1  0.4100160000000  0.4988180000000  0.5776840000000 1.0
C      1  0.5729890000000  0.4400260000000  0.4232600000000 1.0
C      1  0.4954290000000  0.5277640000000  0.6101700000000 1.0
C      1  0.3914020000000  0.5323360000000  0.4950730000000 1.0
C      1  0.5061300000000  0.5470960000000  0.4273010000000 1.0
C      1  0.5937790000000  0.5547800000000  0.4661010000000 1.0
C      1  0.4910950000000  0.4529310000000  0.5098030000000 1.0
C      1  0.3976470000000  0.4560970000000  0.5122310000000 1.0
C      1  0.5665930000000  0.5471380000000  0.4720340000000 1.0
C      1  0.5952630000000  0.4867460000000  0.5078050000000 1.0
C      1  0.5387490000000  0.5062150000000  0.5582590000000 1.0
C      1  0.5000530000000  0.4718580000000  0.5519340000000 1.0
C      1  0.5917420000000  0.4751370000000  0.5793280000000 1.0
C      1  0.4499860000000  0.5018370000000  0.5097120000000 1.0
C      1  0.4633920000000  0.4488750000000  0.4753770000000 1.0
C      1  0.4168390000000  0.5726070000000  0.4925210000000 1.0
C      1  0.5381240000000  0.4525960000000  0.5042000000000 1.0
C      1  0.5059960000000  0.4135590000000  0.4791390000000 1.0
C      1  0.4633770000000  0.5086560000000  0.5339970000000 1.0
C      1  0.4825250000000  0.5500060000000  0.5978220000000 1.0
C      1  0.4450750000000  0.5631070000000  0.4916010000000 1.0
C      1  0.4060440000000  0.5315380000000  0.5199870000000 1.0
C      1  0.4430870000000  0.4976600000000  0.4591400000000 1.0
C      1  0.4660790000000  0.5431920000000  0.4037930000000 1.0
C      1  0.4229830000000  0.4322380000000  0.5483120000000 1.0
C      1  0.4703460000000  0.6030590000000  0.5567320000000 1.0
C      1  0.4684130000000  0.4136370000000  0.5358290000000 1.0
C      1  0.5276660000000  0.5666790000000  0.5233350000000 1.0
C      1  0.3839440000000  0.5116270000000  0.4733480000000 1.0
C      1  0.4476230000000  0.4970970000000  0.3925390000000 1.0
C      1  0.5779500000000  0.4324450000000  0.4874040000000 1.0
C      1  0.4160600000000  0.4885480000000  0.4554770000000 1.0
C      1  0.4399570000000  0.4740620000000  0.5166490000000 1.0
C      1  0.4921280000000  0.4448020000000  0.4762220000000 1.0
C      1  0.5805770000000  0.4298300000000  0.5559230000000 1.0
C      1  0.4533620000000  0.3803890000000  0.4981750000000 1.0
C      1  0.5958680000000  0.5501520000000  0.4366140000000 1.0
C      1  0.4515090000000  0.4834240000000  0.4345690000000 1.0
C      1  0.4472310000000  0.4489790000000  0.5043140000000 1.0
C      1  0.5433900000000  0.6019870000000  0.4539590000000 1.0
END
