TITL C-4164244-2836-541 34.2946164919135 125000 -27001.6295532989 0 0 184 (C1) n - 1
REM
REM in /home/nfs/bkarasulu/CARBON/AIRSS/Generating-Clusters/ReaxFF-fromJPCA2015/Units_Real/with-SteepDescent/Only-C1/SD-CG/Try1-3A/FIRE-CG
REM
REM
REM
REM
REM
REM ./C.cell (11c1c37f851c82e70ff6c80c92926a4b)
REM
REM compiler GCC version 9.2.1 20190827 (Red Hat 9.2.1-1)
REM options -cpp -mtune=generic -march=x86-64 -g -O0 -fpre-include=/usr/include/finclude/math-vector-fortran.h
REM seed -718154147 1056159781 1049048422 -1439414709 -686080173 -1592301191 -1563744105 -581776393 1061804189 477798900 -37212145 -666540189 -1392767053 -107186046 438572530 -1817620299 972666624 -387399754 -1487930682 1098927966 -1197967615 1749979807 1903003035 -427710405 1642155207 1468433411 -1517873998 550277305 1177445670 -1716726890 1241473197 -722626466 -219150181
REM
CELL 1.54180   50.00000   50.00000   50.00000   90.00000   90.00000   90.00000
LATT -1
SFAC C  
C      1  0.4655900000000  0.6072090000000  0.5004560000000 1.0
C      1  0.5414840000000  0.4877460000000  0.5500170000000 1.0
C      1  0.5180690000000  0.5378780000000  0.4643920000000 1.0
C      1  0.5412890000000  0.5699970000000  0.5707800000000 1.0
C      1  0.4279460000000  0.4393970000000  0.4263040000000 1.0
C      1  0.4432610000000  0.5933120000000  0.4921430000000 1.0
C      1  0.4660790000000  0.5070850000000  0.4976720000000 1.0
C      1  0.4998990000000  0.5074400000000  0.4194710000000 1.0
C      1  0.6113020000000  0.5156390000000  0.4605200000000 1.0
C      1  0.4961090000000  0.3836410000000  0.5197640000000 1.0
C      1  0.5660350000000  0.4218910000000  0.5447160000000 1.0
C      1  0.5590560000000  0.4587600000000  0.5058850000000 1.0
C      1  0.5709790000000  0.4542290000000  0.4313070000000 1.0
C      1  0.5030130000000  0.5065770000000  0.5694500000000 1.0
C      1  0.5848380000000  0.5631260000000  0.4717020000000 1.0
C      1  0.5551130000000  0.5428840000000  0.5691530000000 1.0
C      1  0.4540880000000  0.4905440000000  0.4108400000000 1.0
C      1  0.5356610000000  0.4783890000000  0.4679540000000 1.0
C      1  0.4407330000000  0.5687110000000  0.5327110000000 1.0
C      1  0.5574620000000  0.5211560000000  0.4916100000000 1.0
C      1  0.4007020000000  0.5506510000000  0.5321060000000 1.0
C      1  0.4583040000000  0.4993010000000  0.5494220000000 1.0
C      1  0.4294370000000  0.5394050000000  0.4161150000000 1.0
C      1  0.4198330000000  0.5057570000000  0.5167630000000 1.0
C      1  0.5502400000000  0.4628730000000  0.4117290000000 1.0
C      1  0.4242760000000  0.5791050000000  0.5107200000000 1.0
C      1  0.4396330000000  0.4241150000000  0.5377350000000 1.0
C      1  0.4679400000000  0.3978040000000  0.4778430000000 1.0
C      1  0.4924090000000  0.5205020000000  0.5122170000000 1.0
C      1  0.4912220000000  0.5674200000000  0.5599430000000 1.0
C      1  0.5363170000000  0.6067150000000  0.4798390000000 1.0
C      1  0.4414630000000  0.4740390000000  0.5420680000000 1.0
C      1  0.5434220000000  0.4369220000000  0.4959140000000 1.0
C      1  0.4428730000000  0.4980120000000  0.4405590000000 1.0
C      1  0.5291470000000  0.5501830000000  0.5243470000000 1.0
C      1  0.5653770000000  0.5611170000000  0.4437610000000 1.0
C      1  0.4516700000000  0.5442400000000  0.4699080000000 1.0
C      1  0.6024930000000  0.5102830000000  0.4354530000000 1.0
C      1  0.5126640000000  0.6024720000000  0.5255990000000 1.0
C      1  0.5383840000000  0.5343810000000  0.5453480000000 1.0
C      1  0.3959780000000  0.4639620000000  0.5000120000000 1.0
C      1  0.4958370000000  0.5608460000000  0.3892260000000 1.0
C      1  0.5196030000000  0.4191730000000  0.4255650000000 1.0
C      1  0.4915310000000  0.4099170000000  0.5662960000000 1.0
C      1  0.5426820000000  0.6082950000000  0.5269990000000 1.0
C      1  0.6306350000000  0.4907870000000  0.5192050000000 1.0
C      1  0.4045070000000  0.4554940000000  0.4281000000000 1.0
C      1  0.4501770000000  0.4234910000000  0.4273320000000 1.0
C      1  0.4875060000000  0.4001160000000  0.4981100000000 1.0
C      1  0.5961090000000  0.4898530000000  0.5164140000000 1.0
C      1  0.4149940000000  0.4213560000000  0.5209690000000 1.0
C      1  0.5126030000000  0.4859630000000  0.5511810000000 1.0
C      1  0.5630080000000  0.5404940000000  0.4206770000000 1.0
C      1  0.4085930000000  0.5370940000000  0.5598430000000 1.0
C      1  0.4374600000000  0.4768060000000  0.4605560000000 1.0
C      1  0.4740430000000  0.5658350000000  0.4942610000000 1.0
C      1  0.4061010000000  0.4850810000000  0.5752920000000 1.0
C      1  0.5192740000000  0.4459170000000  0.4131060000000 1.0
C      1  0.5848400000000  0.5369970000000  0.5552440000000 1.0
C      1  0.4667500000000  0.4410300000000  0.4118560000000 1.0
C      1  0.4811080000000  0.3975880000000  0.5420890000000 1.0
C      1  0.4218210000000  0.4126050000000  0.4940740000000 1.0
C      1  0.5705910000000  0.4773910000000  0.5961690000000 1.0
C      1  0.5258920000000  0.4101670000000  0.5216980000000 1.0
C      1  0.4558400000000  0.5225620000000  0.5905810000000 1.0
C      1  0.4958020000000  0.4098350000000  0.4379150000000 1.0
C      1  0.4540040000000  0.5128440000000  0.3960920000000 1.0
C      1  0.4346640000000  0.5311780000000  0.5188130000000 1.0
C      1  0.4026410000000  0.4353030000000  0.4987780000000 1.0
C      1  0.5550230000000  0.5055880000000  0.4442920000000 1.0
C      1  0.5403640000000  0.4073120000000  0.5455180000000 1.0
C      1  0.5084200000000  0.6165460000000  0.4816250000000 1.0
C      1  0.5415040000000  0.5409280000000  0.4017390000000 1.0
C      1  0.3784920000000  0.5129800000000  0.5001340000000 1.0
C      1  0.5180480000000  0.4641110000000  0.4348790000000 1.0
C      1  0.5631330000000  0.4712910000000  0.5510440000000 1.0
C      1  0.4209990000000  0.5209190000000  0.4344040000000 1.0
C      1  0.4371500000000  0.5680220000000  0.5631210000000 1.0
C      1  0.3930270000000  0.4817770000000  0.4767540000000 1.0
C      1  0.4334560000000  0.5417470000000  0.5748770000000 1.0
C      1  0.5412570000000  0.4852620000000  0.3957830000000 1.0
C      1  0.5033330000000  0.4901480000000  0.5211410000000 1.0
C      1  0.4758000000000  0.4304260000000  0.4387100000000 1.0
C      1  0.5845200000000  0.5138600000000  0.4971230000000 1.0
C      1  0.5138040000000  0.5648970000000  0.5801980000000 1.0
C      1  0.4699850000000  0.5588090000000  0.3821150000000 1.0
C      1  0.4792680000000  0.4298270000000  0.5865580000000 1.0
C      1  0.4920080000000  0.6157610000000  0.5055720000000 1.0
C      1  0.5190110000000  0.4348910000000  0.5099850000000 1.0
C      1  0.5876780000000  0.5099810000000  0.5635520000000 1.0
C      1  0.5872290000000  0.4645500000000  0.5040820000000 1.0
C      1  0.4828020000000  0.5283400000000  0.4298670000000 1.0
C      1  0.5065640000000  0.5383870000000  0.4918010000000 1.0
C      1  0.4494920000000  0.5909440000000  0.5801310000000 1.0
C      1  0.5783150000000  0.4239010000000  0.5196750000000 1.0
C      1  0.4104980000000  0.5395940000000  0.4527120000000 1.0
C      1  0.4379910000000  0.4540820000000  0.5968560000000 1.0
C      1  0.5180840000000  0.4564110000000  0.4624240000000 1.0
C      1  0.5007460000000  0.4855420000000  0.4359810000000 1.0
C      1  0.5204190000000  0.4136590000000  0.5666070000000 1.0
C      1  0.5610070000000  0.4089410000000  0.4554540000000 1.0
C      1  0.5479360000000  0.5208570000000  0.5900050000000 1.0
C      1  0.4582930000000  0.5728270000000  0.4724700000000 1.0
C      1  0.5218620000000  0.5751060000000  0.5347600000000 1.0
C      1  0.5889880000000  0.4645200000000  0.4533500000000 1.0
C      1  0.4628910000000  0.5224630000000  0.4520040000000 1.0
C      1  0.5042980000000  0.4577050000000  0.5635000000000 1.0
C      1  0.5865380000000  0.4878780000000  0.5446570000000 1.0
C      1  0.5867380000000  0.4245020000000  0.4923690000000 1.0
C      1  0.4880520000000  0.4527800000000  0.4656080000000 1.0
C      1  0.5690730000000  0.4505330000000  0.5957730000000 1.0
C      1  0.5738650000000  0.5626750000000  0.5161620000000 1.0
C      1  0.4810620000000  0.5740560000000  0.4474890000000 1.0
C      1  0.5601240000000  0.4157690000000  0.4832010000000 1.0
C      1  0.5432140000000  0.4799730000000  0.4956850000000 1.0
C      1  0.4495260000000  0.4686210000000  0.4876840000000 1.0
C      1  0.4411000000000  0.4857410000000  0.5105390000000 1.0
C      1  0.5387070000000  0.5091330000000  0.4669660000000 1.0
C      1  0.4565190000000  0.5252660000000  0.5377880000000 1.0
C      1  0.4534370000000  0.4364610000000  0.5935520000000 1.0
C      1  0.4771270000000  0.5924460000000  0.5708940000000 1.0
C      1  0.3986070000000  0.5407760000000  0.4774450000000 1.0
C      1  0.3931660000000  0.4742900000000  0.5278800000000 1.0
C      1  0.3959110000000  0.5124780000000  0.5707570000000 1.0
C      1  0.5371540000000  0.5146290000000  0.3891330000000 1.0
C      1  0.5515090000000  0.5458550000000  0.5056010000000 1.0
C      1  0.5389700000000  0.5590110000000  0.4588900000000 1.0
C      1  0.5937720000000  0.4515440000000  0.4790560000000 1.0
C      1  0.4038100000000  0.5583130000000  0.5055530000000 1.0
C      1  0.4459850000000  0.5394160000000  0.3934610000000 1.0
C      1  0.4788660000000  0.4825270000000  0.6039970000000 1.0
C      1  0.5447040000000  0.5102980000000  0.5335700000000 1.0
C      1  0.5451720000000  0.4092290000000  0.4328180000000 1.0
C      1  0.4854630000000  0.4820270000000  0.4580730000000 1.0
C      1  0.4478380000000  0.5292400000000  0.4933310000000 1.0
C      1  0.5769980000000  0.5820690000000  0.4945690000000 1.0
C      1  0.4905600000000  0.3913100000000  0.4597410000000 1.0
C      1  0.4969970000000  0.5886550000000  0.4328640000000 1.0
C      1  0.4964490000000  0.4558420000000  0.5138680000000 1.0
C      1  0.4969310000000  0.5495840000000  0.4427600000000 1.0
C      1  0.5010960000000  0.5662500000000  0.4908580000000 1.0
C      1  0.6007080000000  0.5343510000000  0.4818650000000 1.0
C      1  0.5103570000000  0.3915610000000  0.4821020000000 1.0
C      1  0.4774780000000  0.4785990000000  0.3986790000000 1.0
C      1  0.4967580000000  0.5064030000000  0.6106260000000 1.0
C      1  0.5950760000000  0.5489790000000  0.5313640000000 1.0
C      1  0.3864280000000  0.5130750000000  0.4737530000000 1.0
C      1  0.4562230000000  0.4029040000000  0.5276670000000 1.0
C      1  0.4697170000000  0.5659550000000  0.5228470000000 1.0
C      1  0.4266080000000  0.4790830000000  0.5976860000000 1.0
C      1  0.4563830000000  0.4475560000000  0.5434280000000 1.0
C      1  0.4908400000000  0.4540160000000  0.4013370000000 1.0
C      1  0.5217070000000  0.5853760000000  0.4188340000000 1.0
C      1  0.4744860000000  0.4552470000000  0.4917220000000 1.0
C      1  0.5018140000000  0.5463510000000  0.5985350000000 1.0
C      1  0.5714660000000  0.5046610000000  0.5896090000000 1.0
C      1  0.5458230000000  0.5866670000000  0.5474470000000 1.0
C      1  0.6147330000000  0.5400760000000  0.5101590000000 1.0
C      1  0.3906080000000  0.5035870000000  0.5238210000000 1.0
C      1  0.4097100000000  0.4697400000000  0.4562020000000 1.0
C      1  0.4749550000000  0.5088550000000  0.5708330000000 1.0
C      1  0.5208850000000  0.5095050000000  0.5926260000000 1.0
C      1  0.4848690000000  0.5894990000000  0.5418580000000 1.0
C      1  0.4849560000000  0.4497510000000  0.5404700000000 1.0
C      1  0.5136720000000  0.4990450000000  0.3945310000000 1.0
C      1  0.4479730000000  0.4005130000000  0.4985640000000 1.0
C      1  0.4744960000000  0.5035600000000  0.4703950000000 1.0
C      1  0.4515790000000  0.4935300000000  0.6013900000000 1.0
C      1  0.6063930000000  0.4885010000000  0.4513710000000 1.0
C      1  0.5745010000000  0.5136180000000  0.4257550000000 1.0
C      1  0.5572370000000  0.4456500000000  0.5638120000000 1.0
C      1  0.5558600000000  0.6029270000000  0.5009630000000 1.0
C      1  0.6284120000000  0.5174110000000  0.5163200000000 1.0
C      1  0.5295530000000  0.4980390000000  0.5124950000000 1.0
C      1  0.5683260000000  0.4252340000000  0.4337250000000 1.0
C      1  0.4882580000000  0.4577310000000  0.5905740000000 1.0
C      1  0.4117070000000  0.4717180000000  0.5502190000000 1.0
C      1  0.5217810000000  0.5634540000000  0.3983490000000 1.0
C      1  0.5287000000000  0.4407720000000  0.5672290000000 1.0
C      1  0.5134290000000  0.5885370000000  0.4766150000000 1.0
C      1  0.4816890000000  0.5395030000000  0.5334600000000 1.0
C      1  0.4806980000000  0.5309640000000  0.6080490000000 1.0
C      1  0.5410680000000  0.5805830000000  0.4405060000000 1.0
C      1  0.5229440000000  0.3859390000000  0.5081190000000 1.0
END
