TITL C-4164246-3563-350 2.04291101056971 125000 -9505.09064503848 0 0 64 (C1) n - 1
REM
REM in /home/nfs/bkarasulu/CARBON/AIRSS/Generating-Clusters/ReaxFF-fromJPCA2015/Units_Real/with-SteepDescent/Only-C1/SD-CG/Try1-3A/FIRE-CG
REM
REM
REM
REM
REM
REM ./C.cell (11c1c37f851c82e70ff6c80c92926a4b)
REM
REM compiler GCC version 9.2.1 20190827 (Red Hat 9.2.1-1)
REM options -cpp -mtune=generic -march=x86-64 -g -O0 -fpre-include=/usr/include/finclude/math-vector-fortran.h
REM seed 1210611735 -577043591 1147994671 -1224068273 1218957656 -582407253 1525630966 854559677 1544343811 -500970059 1257894687 1003572359 1987568753 2031752012 1300287714 -521039233 212561707 -169579933 -573213927 168437944 1233331304 581112944 17255345 -977079995 2119962052 -780471783 -684345200 2145960137 776026017 752120534 137521493 1392201198 493003632
REM
CELL 1.54180   50.00000   50.00000   50.00000   90.00000   90.00000   90.00000
LATT -1
SFAC C  
C      1  0.4526080000000  0.5352580000000  0.5396520000000 1.0
C      1  0.4637190000000  0.4851170000000  0.4412400000000 1.0
C      1  0.5090280000000  0.4583420000000  0.5372250000000 1.0
C      1  0.5658040000000  0.4581490000000  0.5214780000000 1.0
C      1  0.5151110000000  0.4296270000000  0.4719490000000 1.0
C      1  0.5337530000000  0.4506790000000  0.4792010000000 1.0
C      1  0.5525880000000  0.5111290000000  0.5516750000000 1.0
C      1  0.4622820000000  0.4609900000000  0.5301120000000 1.0
C      1  0.5227270000000  0.5249770000000  0.5157960000000 1.0
C      1  0.5029870000000  0.5200380000000  0.4534080000000 1.0
C      1  0.4638910000000  0.4487470000000  0.5038550000000 1.0
C      1  0.4798520000000  0.4640170000000  0.4818460000000 1.0
C      1  0.5057150000000  0.5865260000000  0.5203470000000 1.0
C      1  0.4734430000000  0.4467950000000  0.4577320000000 1.0
C      1  0.4949740000000  0.5506620000000  0.5515000000000 1.0
C      1  0.4499300000000  0.4599940000000  0.4471780000000 1.0
C      1  0.4825040000000  0.4279420000000  0.5132920000000 1.0
C      1  0.4777050000000  0.5062560000000  0.5134260000000 1.0
C      1  0.5462860000000  0.5110440000000  0.4720400000000 1.0
C      1  0.5329310000000  0.5777280000000  0.5242850000000 1.0
C      1  0.5839660000000  0.4958380000000  0.5154150000000 1.0
C      1  0.5196570000000  0.4957850000000  0.4622460000000 1.0
C      1  0.4607850000000  0.5583320000000  0.5223390000000 1.0
C      1  0.5390860000000  0.4875940000000  0.5592860000000 1.0
C      1  0.4402360000000  0.5108510000000  0.5298370000000 1.0
C      1  0.5898020000000  0.4736960000000  0.5156650000000 1.0
C      1  0.5111020000000  0.4742660000000  0.4425290000000 1.0
C      1  0.4458730000000  0.5314550000000  0.4832940000000 1.0
C      1  0.4902780000000  0.4869190000000  0.4272260000000 1.0
C      1  0.4842280000000  0.5019500000000  0.5594340000000 1.0
C      1  0.5715390000000  0.5222910000000  0.5158520000000 1.0
C      1  0.5108840000000  0.4947740000000  0.5609030000000 1.0
C      1  0.5319090000000  0.4247410000000  0.5157350000000 1.0
C      1  0.4862080000000  0.5634990000000  0.4798610000000 1.0
C      1  0.4250900000000  0.4897990000000  0.4856940000000 1.0
C      1  0.5133960000000  0.4722010000000  0.4862530000000 1.0
C      1  0.5141310000000  0.4776410000000  0.5148710000000 1.0
C      1  0.5311110000000  0.4397440000000  0.5416900000000 1.0
C      1  0.5064620000000  0.5748970000000  0.4947100000000 1.0
C      1  0.5076640000000  0.4208980000000  0.4994270000000 1.0
C      1  0.4584710000000  0.5243830000000  0.4332760000000 1.0
C      1  0.5349210000000  0.5479890000000  0.4573830000000 1.0
C      1  0.4836300000000  0.4432090000000  0.5393560000000 1.0
C      1  0.4834980000000  0.5714280000000  0.5352900000000 1.0
C      1  0.4637290000000  0.4916060000000  0.5357430000000 1.0
C      1  0.4267870000000  0.4768480000000  0.4603400000000 1.0
C      1  0.4611970000000  0.5549600000000  0.4936810000000 1.0
C      1  0.5047030000000  0.5035980000000  0.5158620000000 1.0
C      1  0.4752640000000  0.5297960000000  0.5573930000000 1.0
C      1  0.5211750000000  0.5416060000000  0.5402910000000 1.0
C      1  0.4680930000000  0.4889480000000  0.4705840000000 1.0
C      1  0.5541300000000  0.5348860000000  0.4583140000000 1.0
C      1  0.5507170000000  0.4413050000000  0.5014330000000 1.0
C      1  0.4375400000000  0.5284500000000  0.4517450000000 1.0
C      1  0.4680180000000  0.5112220000000  0.4866950000000 1.0
C      1  0.5641050000000  0.5343260000000  0.5421010000000 1.0
C      1  0.5064210000000  0.5476450000000  0.4626240000000 1.0
C      1  0.4271760000000  0.5025140000000  0.4475030000000 1.0
C      1  0.5024050000000  0.4466130000000  0.4509790000000 1.0
C      1  0.5451130000000  0.5590770000000  0.5414760000000 1.0
C      1  0.4861080000000  0.5166400000000  0.4289720000000 1.0
C      1  0.4290020000000  0.5110630000000  0.5027360000000 1.0
C      1  0.5467030000000  0.5195860000000  0.5003220000000 1.0
C      1  0.5498530000000  0.4611180000000  0.5463950000000 1.0
END
