TITL C-4164235-1454-324 3.78240284576152 125000 -17303.1569781033 0 0 117 (C1) n - 1
REM
REM in /home/nfs/bkarasulu/CARBON/AIRSS/Generating-Clusters/ReaxFF-fromJPCA2015/Units_Real/with-SteepDescent/Only-C1/SD-CG/Try1-3A/FIRE-CG
REM
REM
REM
REM
REM
REM ./C.cell (11c1c37f851c82e70ff6c80c92926a4b)
REM
REM compiler GCC version 9.2.1 20190827 (Red Hat 9.2.1-1)
REM options -cpp -mtune=generic -march=x86-64 -g -O0 -fpre-include=/usr/include/finclude/math-vector-fortran.h
REM seed 933697417 -519985417 -697585265 -392089670 -1895332340 480306888 1573039939 -1497283961 -454289533 -1563839066 -67074383 670074808 1762284948 -1083852889 -1054425731 -1478994079 1626896022 205956283 -58786025 666866482 -160212047 1542719371 -342452839 1041011472 1926528617 1021802262 781948145 1286448282 -1115048646 -1098211974 543926286 -1601789799 -1070237910
REM
CELL 1.54180   50.00000   50.00000   50.00000   90.00000   90.00000   90.00000
LATT -1
SFAC C  
C      1  0.5746380000000  0.5521650000000  0.4807660000000 1.0
C      1  0.5103220000000  0.4120210000000  0.4809730000000 1.0
C      1  0.4963560000000  0.5970250000000  0.4897330000000 1.0
C      1  0.5132960000000  0.4541920000000  0.4578460000000 1.0
C      1  0.4888670000000  0.5386800000000  0.6009210000000 1.0
C      1  0.5337730000000  0.4153630000000  0.5008360000000 1.0
C      1  0.4611930000000  0.4730510000000  0.4870150000000 1.0
C      1  0.5343890000000  0.4865520000000  0.5000730000000 1.0
C      1  0.4359870000000  0.5214650000000  0.5601320000000 1.0
C      1  0.4358650000000  0.5268140000000  0.4528630000000 1.0
C      1  0.5636000000000  0.5434330000000  0.5101520000000 1.0
C      1  0.4881480000000  0.4230120000000  0.4418140000000 1.0
C      1  0.4695000000000  0.3996240000000  0.5021260000000 1.0
C      1  0.4901700000000  0.5793550000000  0.4474830000000 1.0
C      1  0.4410060000000  0.5079920000000  0.4318020000000 1.0
C      1  0.5282730000000  0.4253160000000  0.5530270000000 1.0
C      1  0.5478070000000  0.5197950000000  0.5719580000000 1.0
C      1  0.5610710000000  0.4953380000000  0.4948840000000 1.0
C      1  0.4824200000000  0.4950270000000  0.5673810000000 1.0
C      1  0.4972420000000  0.5262100000000  0.5268660000000 1.0
C      1  0.4500950000000  0.5074960000000  0.5149970000000 1.0
C      1  0.5466230000000  0.4479260000000  0.5603330000000 1.0
C      1  0.5791890000000  0.5279480000000  0.4693570000000 1.0
C      1  0.5131140000000  0.5170570000000  0.5494580000000 1.0
C      1  0.4544060000000  0.4309920000000  0.5362530000000 1.0
C      1  0.4509940000000  0.5748430000000  0.5083890000000 1.0
C      1  0.4615410000000  0.4651430000000  0.4241780000000 1.0
C      1  0.4657380000000  0.5705770000000  0.4632260000000 1.0
C      1  0.5346990000000  0.4990470000000  0.5550690000000 1.0
C      1  0.4239280000000  0.4559730000000  0.4460720000000 1.0
C      1  0.5155360000000  0.5034350000000  0.4912890000000 1.0
C      1  0.4359690000000  0.4319540000000  0.4883060000000 1.0
C      1  0.4324040000000  0.5584480000000  0.4939860000000 1.0
C      1  0.5835260000000  0.4756350000000  0.4536080000000 1.0
C      1  0.5714380000000  0.5136980000000  0.5143450000000 1.0
C      1  0.5215400000000  0.5596960000000  0.5643210000000 1.0
C      1  0.4877200000000  0.4473140000000  0.5703290000000 1.0
C      1  0.5703520000000  0.4758870000000  0.4293410000000 1.0
C      1  0.4118460000000  0.4939100000000  0.4868360000000 1.0
C      1  0.6000350000000  0.5105010000000  0.5527180000000 1.0
C      1  0.5229050000000  0.5160450000000  0.5914200000000 1.0
C      1  0.4820980000000  0.5365900000000  0.4266000000000 1.0
C      1  0.5157690000000  0.5949310000000  0.5117900000000 1.0
C      1  0.5108650000000  0.5347920000000  0.5737000000000 1.0
C      1  0.5726330000000  0.4804740000000  0.5627990000000 1.0
C      1  0.4661560000000  0.5134910000000  0.4175320000000 1.0
C      1  0.4860880000000  0.5531060000000  0.5311240000000 1.0
C      1  0.5327940000000  0.5392620000000  0.4456980000000 1.0
C      1  0.5165030000000  0.5306870000000  0.4923890000000 1.0
C      1  0.5757180000000  0.5008200000000  0.4698630000000 1.0
C      1  0.5073180000000  0.4860970000000  0.4196780000000 1.0
C      1  0.5842560000000  0.4668920000000  0.5240340000000 1.0
C      1  0.4275360000000  0.4928130000000  0.5266430000000 1.0
C      1  0.4262720000000  0.4926540000000  0.5560070000000 1.0
C      1  0.5265330000000  0.4633040000000  0.5129280000000 1.0
C      1  0.4986800000000  0.4592840000000  0.5249470000000 1.0
C      1  0.4042030000000  0.5172930000000  0.5020520000000 1.0
C      1  0.5031900000000  0.4940080000000  0.5896230000000 1.0
C      1  0.5112160000000  0.5905080000000  0.4661310000000 1.0
C      1  0.4349520000000  0.5420520000000  0.5385290000000 1.0
C      1  0.5908380000000  0.4967650000000  0.5275510000000 1.0
C      1  0.4806640000000  0.4560960000000  0.4969270000000 1.0
C      1  0.4409900000000  0.4918080000000  0.4768470000000 1.0
C      1  0.4972350000000  0.4405030000000  0.4785120000000 1.0
C      1  0.4415820000000  0.4368810000000  0.4600110000000 1.0
C      1  0.4693680000000  0.5850500000000  0.4890260000000 1.0
C      1  0.4601190000000  0.5110410000000  0.5689570000000 1.0
C      1  0.4784930000000  0.5180240000000  0.4718720000000 1.0
C      1  0.5135970000000  0.4127310000000  0.4502420000000 1.0
C      1  0.5596640000000  0.5716060000000  0.4641250000000 1.0
C      1  0.4576500000000  0.5617980000000  0.5358920000000 1.0
C      1  0.5560240000000  0.4785170000000  0.4051710000000 1.0
C      1  0.4773100000000  0.5036510000000  0.5236370000000 1.0
C      1  0.5479780000000  0.5509800000000  0.5573410000000 1.0
C      1  0.5072960000000  0.4655030000000  0.5841440000000 1.0
C      1  0.4166100000000  0.4486060000000  0.5016340000000 1.0
C      1  0.5738560000000  0.4573940000000  0.5506270000000 1.0
C      1  0.5357160000000  0.5484070000000  0.4179140000000 1.0
C      1  0.3989970000000  0.4665390000000  0.4857320000000 1.0
C      1  0.5256740000000  0.5690870000000  0.5194350000000 1.0
C      1  0.5288350000000  0.4122040000000  0.5280330000000 1.0
C      1  0.4850440000000  0.5404430000000  0.4570450000000 1.0
C      1  0.4853470000000  0.4815510000000  0.5401830000000 1.0
C      1  0.4581860000000  0.4454080000000  0.5593890000000 1.0
C      1  0.5118700000000  0.5408450000000  0.4662270000000 1.0
C      1  0.4774430000000  0.5586780000000  0.5856120000000 1.0
C      1  0.5757090000000  0.5046180000000  0.5710950000000 1.0
C      1  0.4905130000000  0.3866240000000  0.4908590000000 1.0
C      1  0.5621740000000  0.5642050000000  0.5360500000000 1.0
C      1  0.5785200000000  0.4520700000000  0.4715420000000 1.0
C      1  0.4536450000000  0.5163940000000  0.4874640000000 1.0
C      1  0.4496350000000  0.4171330000000  0.5113970000000 1.0
C      1  0.4994730000000  0.5702110000000  0.5492840000000 1.0
C      1  0.4244850000000  0.4632950000000  0.5261910000000 1.0
C      1  0.4194310000000  0.5406760000000  0.5141060000000 1.0
C      1  0.5587240000000  0.4426480000000  0.4544220000000 1.0
C      1  0.4640660000000  0.4384820000000  0.4401170000000 1.0
C      1  0.4739720000000  0.5742600000000  0.5636210000000 1.0
C      1  0.4339320000000  0.4629570000000  0.5543910000000 1.0
C      1  0.5314490000000  0.4710070000000  0.5681670000000 1.0
C      1  0.5454440000000  0.4429580000000  0.5058110000000 1.0
C      1  0.4976460000000  0.4962780000000  0.4707710000000 1.0
C      1  0.5437070000000  0.5873790000000  0.5071390000000 1.0
C      1  0.4785940000000  0.4870420000000  0.4141400000000 1.0
C      1  0.5297290000000  0.4957850000000  0.4030070000000 1.0
C      1  0.5010830000000  0.4361610000000  0.5476440000000 1.0
C      1  0.5735810000000  0.4522960000000  0.5016590000000 1.0
C      1  0.4373240000000  0.4778200000000  0.4307130000000 1.0
C      1  0.5551440000000  0.5565580000000  0.4393610000000 1.0
C      1  0.4405300000000  0.5517430000000  0.4661590000000 1.0
C      1  0.5096370000000  0.4814710000000  0.4489130000000 1.0
C      1  0.4898560000000  0.5648000000000  0.4209840000000 1.0
C      1  0.3956830000000  0.4585270000000  0.4574670000000 1.0
C      1  0.5330630000000  0.4357050000000  0.4449700000000 1.0
C      1  0.5385490000000  0.5863860000000  0.4775410000000 1.0
C      1  0.5340410000000  0.5246440000000  0.4000180000000 1.0
C      1  0.5339690000000  0.5447410000000  0.5083590000000 1.0
END
