TITL C-4164244-2836-269 -0.0445974456492448 125000 -5300.66970960609 0 0 37 (C1) n - 1
REM
REM in /home/nfs/bkarasulu/CARBON/AIRSS/Generating-Clusters/ReaxFF-fromJPCA2015/Units_Real/with-SteepDescent/Only-C1/SD-CG/Try1-3A/FIRE-CG
REM
REM
REM
REM
REM
REM ./C.cell (11c1c37f851c82e70ff6c80c92926a4b)
REM
REM compiler GCC version 9.2.1 20190827 (Red Hat 9.2.1-1)
REM options -cpp -mtune=generic -march=x86-64 -g -O0 -fpre-include=/usr/include/finclude/math-vector-fortran.h
REM seed 1525931336 -1230968052 1492110211 553831499 1387954414 -914498041 -597680028 -2099483254 -295966742 -683209245 -1731623928 1856963361 -1510648355 -768971331 597924662 -1712755724 -71552164 -211404757 2136768792 -546601129 -195464473 1416094657 -2087074275 -339750187 -210632667 -815435234 -2101780247 -1629189884 188959824 1857896564 883816690 523299983 375513598
REM
CELL 1.54180   50.00000   50.00000   50.00000   90.00000   90.00000   90.00000
LATT -1
SFAC C  
C      1  0.4614230000000  0.4547550000000  0.4925870000000 1.0
C      1  0.5366330000000  0.4592050000000  0.5360830000000 1.0
C      1  0.5529530000000  0.4556450000000  0.4610160000000 1.0
C      1  0.4503370000000  0.4949500000000  0.4535370000000 1.0
C      1  0.4221100000000  0.5068640000000  0.5285960000000 1.0
C      1  0.5410420000000  0.4429500000000  0.5103320000000 1.0
C      1  0.5219890000000  0.5736250000000  0.5348900000000 1.0
C      1  0.4947060000000  0.5433970000000  0.5457510000000 1.0
C      1  0.5403170000000  0.5462970000000  0.5028950000000 1.0
C      1  0.5196710000000  0.4406600000000  0.4927250000000 1.0
C      1  0.4942400000000  0.5700510000000  0.5313840000000 1.0
C      1  0.5175970000000  0.5568010000000  0.4855660000000 1.0
C      1  0.4861860000000  0.5186190000000  0.5324220000000 1.0
C      1  0.5207960000000  0.5305310000000  0.5525900000000 1.0
C      1  0.4373320000000  0.5128260000000  0.4740340000000 1.0
C      1  0.4303020000000  0.5096260000000  0.5007040000000 1.0
C      1  0.5117380000000  0.5277450000000  0.4783680000000 1.0
C      1  0.5215390000000  0.4763210000000  0.4402460000000 1.0
C      1  0.5149550000000  0.5096380000000  0.5282290000000 1.0
C      1  0.4626370000000  0.5202660000000  0.4597180000000 1.0
C      1  0.5616210000000  0.4499550000000  0.4889530000000 1.0
C      1  0.5499340000000  0.4835110000000  0.4478770000000 1.0
C      1  0.4916230000000  0.5155450000000  0.4603840000000 1.0
C      1  0.5277350000000  0.5198610000000  0.5017550000000 1.0
C      1  0.4456030000000  0.4868040000000  0.5330340000000 1.0
C      1  0.5465040000000  0.5612150000000  0.5278650000000 1.0
C      1  0.5037100000000  0.4403220000000  0.4705920000000 1.0
C      1  0.4709810000000  0.4960380000000  0.5439310000000 1.0
C      1  0.4749990000000  0.4515440000000  0.4695120000000 1.0
C      1  0.5247820000000  0.4490930000000  0.4515530000000 1.0
C      1  0.4713970000000  0.4747670000000  0.4513970000000 1.0
C      1  0.5470150000000  0.5445530000000  0.5540580000000 1.0
C      1  0.4900910000000  0.4743210000000  0.5533740000000 1.0
C      1  0.4966780000000  0.5715940000000  0.5011390000000 1.0
C      1  0.4468540000000  0.4608450000000  0.5161490000000 1.0
C      1  0.4958780000000  0.4900380000000  0.4468910000000 1.0
C      1  0.5160940000000  0.4792230000000  0.5398650000000 1.0
END
