TITL C-4164243-3780-19 -15.6023900402294 125000 -20354.3632060353 0 0 137 (C1) n - 1
REM
REM in /home/nfs/bkarasulu/CARBON/AIRSS/Generating-Clusters/ReaxFF-fromJPCA2015/Units_Real/with-SteepDescent/Only-C1/SD-CG/Try1-3A/FIRE-CG
REM
REM
REM
REM
REM
REM ./C.cell (11c1c37f851c82e70ff6c80c92926a4b)
REM
REM compiler GCC version 9.2.1 20190827 (Red Hat 9.2.1-1)
REM options -cpp -mtune=generic -march=x86-64 -g -O0 -fpre-include=/usr/include/finclude/math-vector-fortran.h
REM seed -1649195302 -657733656 -1243316771 144854240 -1745473705 89779915 1338579774 -1153970530 2019884699 1095884161 -380653429 623955541 822164653 1134453771 917940034 1040550792 1347135427 -1033988365 308551890 -797602525 -1943060921 -116811906 -1782219884 -1938616159 -2086708898 707424537 -269007496 798149529 566424095 1277809111 2084875452 -1793719905 1386006989
REM
CELL 1.54180   50.00000   50.00000   50.00000   90.00000   90.00000   90.00000
LATT -1
SFAC C  
C      1  0.5436940000000  0.5638440000000  0.4451560000000 1.0
C      1  0.4996220000000  0.4695960000000  0.5061890000000 1.0
C      1  0.4724830000000  0.4748530000000  0.5591070000000 1.0
C      1  0.4413190000000  0.4455970000000  0.5598610000000 1.0
C      1  0.5337180000000  0.4456140000000  0.5571220000000 1.0
C      1  0.4497260000000  0.4651960000000  0.4148760000000 1.0
C      1  0.4949190000000  0.4904390000000  0.5954710000000 1.0
C      1  0.4497770000000  0.5090700000000  0.4251410000000 1.0
C      1  0.4785740000000  0.5691150000000  0.5498430000000 1.0
C      1  0.5619270000000  0.4164480000000  0.5314010000000 1.0
C      1  0.4586880000000  0.5330990000000  0.4905590000000 1.0
C      1  0.4834060000000  0.5956720000000  0.4998570000000 1.0
C      1  0.4766640000000  0.4648890000000  0.5980230000000 1.0
C      1  0.5333640000000  0.4698040000000  0.4135160000000 1.0
C      1  0.5846030000000  0.5390930000000  0.4731110000000 1.0
C      1  0.4456060000000  0.5033480000000  0.5364140000000 1.0
C      1  0.5770470000000  0.5517570000000  0.5581580000000 1.0
C      1  0.4593500000000  0.5664440000000  0.4350010000000 1.0
C      1  0.5010640000000  0.5084480000000  0.4405480000000 1.0
C      1  0.4364780000000  0.5368540000000  0.5708070000000 1.0
C      1  0.4622310000000  0.4910040000000  0.4063860000000 1.0
C      1  0.4632040000000  0.4244020000000  0.4465330000000 1.0
C      1  0.5467550000000  0.5213060000000  0.5403510000000 1.0
C      1  0.5834310000000  0.4518480000000  0.5376600000000 1.0
C      1  0.4656010000000  0.4408150000000  0.4218880000000 1.0
C      1  0.5483440000000  0.5006570000000  0.4970780000000 1.0
C      1  0.5167030000000  0.4454090000000  0.4189270000000 1.0
C      1  0.5531800000000  0.5352350000000  0.5657690000000 1.0
C      1  0.4069130000000  0.4968870000000  0.4840000000000 1.0
C      1  0.5191490000000  0.4723740000000  0.4606110000000 1.0
C      1  0.5685940000000  0.5001380000000  0.4492570000000 1.0
C      1  0.4298590000000  0.5126850000000  0.5813880000000 1.0
C      1  0.5130900000000  0.4252360000000  0.5479210000000 1.0
C      1  0.5053360000000  0.5661540000000  0.5343170000000 1.0
C      1  0.4873490000000  0.4283410000000  0.5611320000000 1.0
C      1  0.4974570000000  0.4787310000000  0.4394840000000 1.0
C      1  0.4279700000000  0.4710930000000  0.4338800000000 1.0
C      1  0.4544150000000  0.5995800000000  0.5061460000000 1.0
C      1  0.5133700000000  0.4444350000000  0.5010210000000 1.0
C      1  0.5575580000000  0.4448850000000  0.4782010000000 1.0
C      1  0.5018110000000  0.4195330000000  0.4879920000000 1.0
C      1  0.5392880000000  0.4555540000000  0.4971170000000 1.0
C      1  0.4181610000000  0.5333210000000  0.5186400000000 1.0
C      1  0.5597410000000  0.5669200000000  0.5388300000000 1.0
C      1  0.5043110000000  0.5088120000000  0.5518950000000 1.0
C      1  0.4600370000000  0.4790010000000  0.5344890000000 1.0
C      1  0.5087740000000  0.5858940000000  0.5106670000000 1.0
C      1  0.4473850000000  0.4814080000000  0.4905960000000 1.0
C      1  0.4957900000000  0.4866170000000  0.5675260000000 1.0
C      1  0.5057070000000  0.5665370000000  0.4191570000000 1.0
C      1  0.4616180000000  0.5361370000000  0.4623830000000 1.0
C      1  0.4435280000000  0.4295200000000  0.4956730000000 1.0
C      1  0.4613240000000  0.4273900000000  0.5467390000000 1.0
C      1  0.5303670000000  0.5514350000000  0.4211820000000 1.0
C      1  0.4622740000000  0.5375370000000  0.5877970000000 1.0
C      1  0.5920760000000  0.4687650000000  0.4965560000000 1.0
C      1  0.5206550000000  0.4412120000000  0.4493830000000 1.0
C      1  0.4974830000000  0.5066780000000  0.4941010000000 1.0
C      1  0.4894940000000  0.4069400000000  0.5112340000000 1.0
C      1  0.4588810000000  0.4893950000000  0.4656540000000 1.0
C      1  0.5405260000000  0.4763980000000  0.5415680000000 1.0
C      1  0.4899690000000  0.5025970000000  0.3985030000000 1.0
C      1  0.4802020000000  0.4487440000000  0.4722790000000 1.0
C      1  0.4829220000000  0.5711790000000  0.4814940000000 1.0
C      1  0.4539220000000  0.4637300000000  0.5795960000000 1.0
C      1  0.4708660000000  0.5125180000000  0.4490710000000 1.0
C      1  0.5270050000000  0.5834080000000  0.4596990000000 1.0
C      1  0.5895190000000  0.5109790000000  0.4655030000000 1.0
C      1  0.4733430000000  0.5140440000000  0.5032090000000 1.0
C      1  0.5645070000000  0.5591590000000  0.4648190000000 1.0
C      1  0.4154600000000  0.4761130000000  0.5245570000000 1.0
C      1  0.4870240000000  0.5224290000000  0.5942520000000 1.0
C      1  0.5314430000000  0.5679790000000  0.5488190000000 1.0
C      1  0.5564460000000  0.5743920000000  0.4890920000000 1.0
C      1  0.5915210000000  0.5288900000000  0.5504780000000 1.0
C      1  0.5185980000000  0.4572870000000  0.5814260000000 1.0
C      1  0.5294770000000  0.5861770000000  0.4894400000000 1.0
C      1  0.4252630000000  0.5002390000000  0.4378840000000 1.0
C      1  0.5446200000000  0.4087910000000  0.5109410000000 1.0
C      1  0.5040010000000  0.5452710000000  0.5871050000000 1.0
C      1  0.5298000000000  0.5521660000000  0.5728700000000 1.0
C      1  0.5440260000000  0.4949150000000  0.4661040000000 1.0
C      1  0.5992770000000  0.4952520000000  0.4890730000000 1.0
C      1  0.5496490000000  0.4856350000000  0.5865210000000 1.0
C      1  0.4670050000000  0.5233600000000  0.5290480000000 1.0
C      1  0.5254080000000  0.4802920000000  0.5983730000000 1.0
C      1  0.4190330000000  0.5519040000000  0.4962480000000 1.0
C      1  0.4795080000000  0.5600010000000  0.5780350000000 1.0
C      1  0.5283380000000  0.5133960000000  0.4490430000000 1.0
C      1  0.4700390000000  0.4704850000000  0.5092390000000 1.0
C      1  0.5113910000000  0.5244680000000  0.4833910000000 1.0
C      1  0.5255860000000  0.5435970000000  0.5010180000000 1.0
C      1  0.5707350000000  0.5629760000000  0.5121070000000 1.0
C      1  0.5886640000000  0.5413660000000  0.5017020000000 1.0
C      1  0.5633870000000  0.4839530000000  0.5628540000000 1.0
C      1  0.5348810000000  0.5232020000000  0.4102340000000 1.0
C      1  0.5986980000000  0.5151840000000  0.5109700000000 1.0
C      1  0.4675840000000  0.4455600000000  0.4954880000000 1.0
C      1  0.5637020000000  0.4232180000000  0.4912640000000 1.0
C      1  0.4225940000000  0.4667320000000  0.5512920000000 1.0
C      1  0.4120680000000  0.5036970000000  0.5127280000000 1.0
C      1  0.5456370000000  0.5252710000000  0.5114870000000 1.0
C      1  0.4134000000000  0.5142650000000  0.4617510000000 1.0
C      1  0.5168360000000  0.4083640000000  0.5246420000000 1.0
C      1  0.4771440000000  0.5805980000000  0.4530530000000 1.0
C      1  0.5841240000000  0.4451040000000  0.5076410000000 1.0
C      1  0.4183250000000  0.5425020000000  0.4682430000000 1.0
C      1  0.4790990000000  0.5547170000000  0.4141270000000 1.0
C      1  0.5189930000000  0.4985640000000  0.4063060000000 1.0
C      1  0.4806310000000  0.5284650000000  0.4042550000000 1.0
C      1  0.5033820000000  0.5850620000000  0.4420170000000 1.0
C      1  0.4233580000000  0.4529680000000  0.4563010000000 1.0
C      1  0.4274400000000  0.4963560000000  0.5595460000000 1.0
C      1  0.5997090000000  0.5045330000000  0.5389320000000 1.0
C      1  0.5625020000000  0.4360330000000  0.5516240000000 1.0
C      1  0.4099050000000  0.4679320000000  0.4777550000000 1.0
C      1  0.4543060000000  0.5627700000000  0.5337670000000 1.0
C      1  0.4927280000000  0.4440180000000  0.5857320000000 1.0
C      1  0.5293210000000  0.5014950000000  0.5442030000000 1.0
C      1  0.5061670000000  0.5521450000000  0.4826090000000 1.0
C      1  0.4583220000000  0.5594610000000  0.5030660000000 1.0
C      1  0.5525340000000  0.5186320000000  0.4333730000000 1.0
C      1  0.4415740000000  0.4307010000000  0.4648100000000 1.0
C      1  0.4928750000000  0.4248500000000  0.4603650000000 1.0
C      1  0.4901170000000  0.4548840000000  0.4163070000000 1.0
C      1  0.5472830000000  0.4779890000000  0.5130030000000 1.0
C      1  0.5496660000000  0.4372360000000  0.4547040000000 1.0
C      1  0.4325640000000  0.5455400000000  0.5417170000000 1.0
C      1  0.5078810000000  0.4852000000000  0.4853530000000 1.0
C      1  0.4624600000000  0.4153280000000  0.5199890000000 1.0
C      1  0.5885570000000  0.4781660000000  0.5493780000000 1.0
C      1  0.4273260000000  0.4603380000000  0.5007850000000 1.0
C      1  0.4395740000000  0.5498050000000  0.4490280000000 1.0
C      1  0.5540510000000  0.4585940000000  0.4305630000000 1.0
C      1  0.4759790000000  0.4708570000000  0.4569240000000 1.0
C      1  0.4348310000000  0.5780300000000  0.4990510000000 1.0
C      1  0.4921520000000  0.5325470000000  0.5405260000000 1.0
END
