TITL C-4164237-1827-313 13.6938047236735 125000 -16676.9761984393 0 0 112 (C1) n - 1
REM
REM in /home/nfs/bkarasulu/CARBON/AIRSS/Generating-Clusters/ReaxFF-fromJPCA2015/Units_Real/with-SteepDescent/Only-C1/SD-CG/Try1-3A/FIRE-CG
REM
REM
REM
REM
REM
REM ./C.cell (11c1c37f851c82e70ff6c80c92926a4b)
REM
REM compiler GCC version 9.2.1 20190827 (Red Hat 9.2.1-1)
REM options -cpp -mtune=generic -march=x86-64 -g -O0 -fpre-include=/usr/include/finclude/math-vector-fortran.h
REM seed 111103096 506157349 1181300395 1822526529 -1564667220 -1562161699 -980006740 -1020251040 515099694 -786028525 107977681 -1704704735 686693396 -916771205 -1109392351 -162238942 740961396 -218767374 -1725531614 1478570666 970775695 1073699419 1119249650 911376424 1042199597 -1444874910 -639779319 535516389 -1406161966 612701594 -1580833596 -417022003 1728629413
REM
CELL 1.54180   50.00000   50.00000   50.00000   90.00000   90.00000   90.00000
LATT -1
SFAC C  
C      1  0.5392930000000  0.4146030000000  0.5464550000000 1.0
C      1  0.4421860000000  0.5384960000000  0.4820080000000 1.0
C      1  0.5475890000000  0.4680110000000  0.4281950000000 1.0
C      1  0.4136890000000  0.4752400000000  0.5130890000000 1.0
C      1  0.5614510000000  0.5307650000000  0.5555180000000 1.0
C      1  0.4808490000000  0.4879900000000  0.4694650000000 1.0
C      1  0.5989270000000  0.5133260000000  0.4763290000000 1.0
C      1  0.4701570000000  0.4689160000000  0.5785400000000 1.0
C      1  0.4840690000000  0.5811850000000  0.4851360000000 1.0
C      1  0.5556740000000  0.5031570000000  0.5651900000000 1.0
C      1  0.4308050000000  0.4966180000000  0.5583860000000 1.0
C      1  0.5156190000000  0.5917010000000  0.4812910000000 1.0
C      1  0.4555040000000  0.4939140000000  0.5747060000000 1.0
C      1  0.4706650000000  0.5391090000000  0.5691650000000 1.0
C      1  0.4620790000000  0.5930660000000  0.4700190000000 1.0
C      1  0.5603280000000  0.5274710000000  0.4745400000000 1.0
C      1  0.4863300000000  0.4748450000000  0.4954900000000 1.0
C      1  0.5180900000000  0.5917110000000  0.5284310000000 1.0
C      1  0.4693270000000  0.5859110000000  0.5092550000000 1.0
C      1  0.4747800000000  0.4373740000000  0.4667900000000 1.0
C      1  0.5010340000000  0.4853260000000  0.4151630000000 1.0
C      1  0.5237500000000  0.5387490000000  0.4328470000000 1.0
C      1  0.4258550000000  0.4619010000000  0.4700160000000 1.0
C      1  0.5240330000000  0.4941230000000  0.4934280000000 1.0
C      1  0.4921580000000  0.4301310000000  0.5575690000000 1.0
C      1  0.5558250000000  0.4329350000000  0.5286690000000 1.0
C      1  0.5085000000000  0.5010960000000  0.5871770000000 1.0
C      1  0.5180460000000  0.5798590000000  0.4559100000000 1.0
C      1  0.4464570000000  0.5701640000000  0.5165420000000 1.0
C      1  0.5096530000000  0.4132350000000  0.4700100000000 1.0
C      1  0.4882790000000  0.4072110000000  0.4885550000000 1.0
C      1  0.4836630000000  0.4580030000000  0.5541340000000 1.0
C      1  0.5517020000000  0.5635750000000  0.5021530000000 1.0
C      1  0.4852460000000  0.5546590000000  0.4736000000000 1.0
C      1  0.4420150000000  0.5303480000000  0.4417270000000 1.0
C      1  0.5711010000000  0.4841600000000  0.5484170000000 1.0
C      1  0.5246880000000  0.4706390000000  0.5386900000000 1.0
C      1  0.4263960000000  0.5214860000000  0.5425910000000 1.0
C      1  0.4901190000000  0.5650860000000  0.4459730000000 1.0
C      1  0.4258210000000  0.4745900000000  0.5395020000000 1.0
C      1  0.5210730000000  0.4315890000000  0.5623990000000 1.0
C      1  0.5863790000000  0.4864090000000  0.5052080000000 1.0
C      1  0.4770750000000  0.5751040000000  0.5522030000000 1.0
C      1  0.4166450000000  0.5020130000000  0.4982920000000 1.0
C      1  0.5394270000000  0.5140890000000  0.4298530000000 1.0
C      1  0.4640900000000  0.5060480000000  0.5296310000000 1.0
C      1  0.4303700000000  0.5044830000000  0.4423770000000 1.0
C      1  0.4542730000000  0.4934600000000  0.4273410000000 1.0
C      1  0.5387830000000  0.4200580000000  0.4756860000000 1.0
C      1  0.4791020000000  0.5056830000000  0.4174500000000 1.0
C      1  0.4777490000000  0.4126870000000  0.5385970000000 1.0
C      1  0.4664810000000  0.5159720000000  0.5032170000000 1.0
C      1  0.4956810000000  0.4766020000000  0.5892170000000 1.0
C      1  0.5095050000000  0.4448890000000  0.4355620000000 1.0
C      1  0.5612630000000  0.4564170000000  0.5466520000000 1.0
C      1  0.5631470000000  0.4697270000000  0.5072640000000 1.0
C      1  0.4863560000000  0.5148030000000  0.4643910000000 1.0
C      1  0.4529820000000  0.4780110000000  0.5286600000000 1.0
C      1  0.4885520000000  0.5888780000000  0.5302670000000 1.0
C      1  0.5854610000000  0.4612350000000  0.4662490000000 1.0
C      1  0.4670320000000  0.5845160000000  0.4438750000000 1.0
C      1  0.5308520000000  0.4587510000000  0.4494050000000 1.0
C      1  0.4963940000000  0.4097930000000  0.5162320000000 1.0
C      1  0.5116770000000  0.5242960000000  0.5307840000000 1.0
C      1  0.4956490000000  0.4495070000000  0.4850860000000 1.0
C      1  0.4945600000000  0.4271140000000  0.4475700000000 1.0
C      1  0.4420540000000  0.5788960000000  0.4562900000000 1.0
C      1  0.4614740000000  0.4314390000000  0.5042720000000 1.0
C      1  0.5854860000000  0.5016590000000  0.5299260000000 1.0
C      1  0.4959360000000  0.4601400000000  0.4241150000000 1.0
C      1  0.5860050000000  0.5375470000000  0.4835990000000 1.0
C      1  0.5364340000000  0.4592570000000  0.5627670000000 1.0
C      1  0.5699310000000  0.4544490000000  0.4429020000000 1.0
C      1  0.5308690000000  0.4895330000000  0.4178870000000 1.0
C      1  0.5386060000000  0.5438010000000  0.4838010000000 1.0
C      1  0.4325940000000  0.5510470000000  0.4606750000000 1.0
C      1  0.5183970000000  0.5227360000000  0.5021050000000 1.0
C      1  0.5510750000000  0.5061550000000  0.4561710000000 1.0
C      1  0.5157930000000  0.5433100000000  0.5524060000000 1.0
C      1  0.5995430000000  0.4852960000000  0.4776310000000 1.0
C      1  0.4194120000000  0.4518590000000  0.4973350000000 1.0
C      1  0.4292730000000  0.5513140000000  0.5016210000000 1.0
C      1  0.5432820000000  0.5541810000000  0.5583320000000 1.0
C      1  0.4186040000000  0.5269900000000  0.5154850000000 1.0
C      1  0.5733530000000  0.4491500000000  0.4903690000000 1.0
C      1  0.5556430000000  0.4278690000000  0.4987490000000 1.0
C      1  0.4515160000000  0.4193180000000  0.5280700000000 1.0
C      1  0.4917900000000  0.5045150000000  0.5415940000000 1.0
C      1  0.4889380000000  0.5302190000000  0.4878360000000 1.0
C      1  0.5502560000000  0.4352940000000  0.4537170000000 1.0
C      1  0.5331910000000  0.4899600000000  0.5776910000000 1.0
C      1  0.4440040000000  0.5109630000000  0.4873770000000 1.0
C      1  0.4528040000000  0.5643450000000  0.5435520000000 1.0
C      1  0.5760160000000  0.5497670000000  0.5096890000000 1.0
C      1  0.4952310000000  0.5425930000000  0.4273550000000 1.0
C      1  0.4928620000000  0.5563110000000  0.5661950000000 1.0
C      1  0.4511890000000  0.4520350000000  0.4572710000000 1.0
C      1  0.5321800000000  0.5554960000000  0.4550210000000 1.0
C      1  0.5344070000000  0.5882120000000  0.5028730000000 1.0
C      1  0.4989050000000  0.4749090000000  0.5341980000000 1.0
C      1  0.4643880000000  0.4610040000000  0.5092850000000 1.0
C      1  0.5375590000000  0.5772980000000  0.5429000000000 1.0
C      1  0.5099770000000  0.4364650000000  0.5082500000000 1.0
C      1  0.4342060000000  0.4280900000000  0.5065940000000 1.0
C      1  0.5779170000000  0.5303470000000  0.5319960000000 1.0
C      1  0.4650410000000  0.4759400000000  0.4485070000000 1.0
C      1  0.5332940000000  0.4867140000000  0.4674630000000 1.0
C      1  0.4796550000000  0.5115900000000  0.5738090000000 1.0
C      1  0.4752300000000  0.5258550000000  0.4384290000000 1.0
C      1  0.4498170000000  0.5378970000000  0.5503340000000 1.0
C      1  0.4187010000000  0.4895740000000  0.4652470000000 1.0
C      1  0.5348510000000  0.4758390000000  0.5141720000000 1.0
END
