TITL C-4164243-3780-66 5.07062541429332 125000 -10607.324384009 0 0 73 (C1) n - 1
REM
REM in /home/nfs/bkarasulu/CARBON/AIRSS/Generating-Clusters/ReaxFF-fromJPCA2015/Units_Real/with-SteepDescent/Only-C1/SD-CG/Try1-3A/FIRE-CG
REM
REM
REM
REM
REM
REM ./C.cell (11c1c37f851c82e70ff6c80c92926a4b)
REM
REM compiler GCC version 9.2.1 20190827 (Red Hat 9.2.1-1)
REM options -cpp -mtune=generic -march=x86-64 -g -O0 -fpre-include=/usr/include/finclude/math-vector-fortran.h
REM seed -1982550275 1889017381 -1382936976 -1623784963 103375225 -559113820 1881270647 400772517 -43010719 2043635241 -322143572 1174553999 2087170501 1983002836 -1689369149 409242242 149686105 -1864991203 1432357985 -1960653606 1258396488 1272685285 -1626535966 -1334312179 1637152001 -1231307528 833115295 1601645526 1745919498 -1484325173 -653162042 1934955124 -296602046
REM
CELL 1.54180   50.00000   50.00000   50.00000   90.00000   90.00000   90.00000
LATT -1
SFAC C  
C      1  0.4776040000000  0.4368000000000  0.4528920000000 1.0
C      1  0.5044360000000  0.5266020000000  0.4397290000000 1.0
C      1  0.5523980000000  0.5311660000000  0.4580170000000 1.0
C      1  0.4963120000000  0.4275180000000  0.4997680000000 1.0
C      1  0.4445360000000  0.4984640000000  0.4827910000000 1.0
C      1  0.4752610000000  0.5589140000000  0.4661680000000 1.0
C      1  0.5023560000000  0.5322520000000  0.5641900000000 1.0
C      1  0.5631040000000  0.4881040000000  0.5146980000000 1.0
C      1  0.5423000000000  0.5596460000000  0.5046060000000 1.0
C      1  0.4799090000000  0.5339040000000  0.4849610000000 1.0
C      1  0.4598180000000  0.5277990000000  0.4371090000000 1.0
C      1  0.5222140000000  0.4754280000000  0.5608730000000 1.0
C      1  0.4438860000000  0.5328500000000  0.5170700000000 1.0
C      1  0.5215280000000  0.4340810000000  0.5490170000000 1.0
C      1  0.4306350000000  0.5291060000000  0.4471990000000 1.0
C      1  0.4581610000000  0.5876320000000  0.4768090000000 1.0
C      1  0.4559550000000  0.5048630000000  0.5658210000000 1.0
C      1  0.5684220000000  0.5292880000000  0.5436170000000 1.0
C      1  0.5449580000000  0.5541910000000  0.4760940000000 1.0
C      1  0.4642370000000  0.4839750000000  0.5265670000000 1.0
C      1  0.4905570000000  0.5011420000000  0.4248910000000 1.0
C      1  0.4631970000000  0.4782470000000  0.5555820000000 1.0
C      1  0.5139400000000  0.4812440000000  0.5325270000000 1.0
C      1  0.4949570000000  0.4784950000000  0.4799950000000 1.0
C      1  0.4204220000000  0.5086310000000  0.4648420000000 1.0
C      1  0.5057920000000  0.4765200000000  0.4269300000000 1.0
C      1  0.4548320000000  0.5225550000000  0.4928740000000 1.0
C      1  0.4730990000000  0.5278990000000  0.5583100000000 1.0
C      1  0.5421600000000  0.4550590000000  0.5505620000000 1.0
C      1  0.4662300000000  0.4994340000000  0.4388620000000 1.0
C      1  0.5804530000000  0.5087560000000  0.5252060000000 1.0
C      1  0.5059570000000  0.4578490000000  0.4953600000000 1.0
C      1  0.4408110000000  0.4777780000000  0.5081380000000 1.0
C      1  0.4662340000000  0.5409050000000  0.5335190000000 1.0
C      1  0.5228560000000  0.5103320000000  0.5680200000000 1.0
C      1  0.5046610000000  0.4511780000000  0.5670630000000 1.0
C      1  0.4284380000000  0.5037770000000  0.5546380000000 1.0
C      1  0.4911620000000  0.4920430000000  0.5192470000000 1.0
C      1  0.5166420000000  0.5501820000000  0.5446760000000 1.0
C      1  0.5672490000000  0.5161810000000  0.4787420000000 1.0
C      1  0.5650130000000  0.5472900000000  0.5195500000000 1.0
C      1  0.4492560000000  0.4498750000000  0.4949390000000 1.0
C      1  0.4218180000000  0.4890870000000  0.5296350000000 1.0
C      1  0.4659020000000  0.4825380000000  0.4656420000000 1.0
C      1  0.5551290000000  0.4598700000000  0.5233310000000 1.0
C      1  0.5797160000000  0.5282500000000  0.5028270000000 1.0
C      1  0.5247970000000  0.4402440000000  0.4586850000000 1.0
C      1  0.4886070000000  0.5426410000000  0.5127860000000 1.0
C      1  0.5430900000000  0.4600840000000  0.4524540000000 1.0
C      1  0.5259240000000  0.5267020000000  0.5314390000000 1.0
C      1  0.4690690000000  0.4397380000000  0.5372400000000 1.0
C      1  0.4813110000000  0.5473650000000  0.4417290000000 1.0
C      1  0.5129790000000  0.5647260000000  0.5172660000000 1.0
C      1  0.4832200000000  0.5969160000000  0.4835030000000 1.0
C      1  0.5083540000000  0.5827990000000  0.4940730000000 1.0
C      1  0.5174070000000  0.4960590000000  0.4751090000000 1.0
C      1  0.5524200000000  0.4920820000000  0.4877040000000 1.0
C      1  0.5652360000000  0.4430430000000  0.4958910000000 1.0
C      1  0.4656980000000  0.4322280000000  0.5109100000000 1.0
C      1  0.5029200000000  0.5205500000000  0.4693780000000 1.0
C      1  0.5032620000000  0.5175820000000  0.5167730000000 1.0
C      1  0.5606660000000  0.4625030000000  0.4763140000000 1.0
C      1  0.5266000000000  0.4663580000000  0.5137540000000 1.0
C      1  0.5338760000000  0.5166100000000  0.4408820000000 1.0
C      1  0.5128430000000  0.4216400000000  0.5235730000000 1.0
C      1  0.4577270000000  0.4535520000000  0.4680640000000 1.0
C      1  0.4930900000000  0.4525850000000  0.4352390000000 1.0
C      1  0.4757000000000  0.4512660000000  0.5621050000000 1.0
C      1  0.4215420000000  0.5180050000000  0.5299350000000 1.0
C      1  0.4983990000000  0.5740130000000  0.4683330000000 1.0
C      1  0.5488930000000  0.5195930000000  0.5622170000000 1.0
C      1  0.5019730000000  0.4262940000000  0.4661310000000 1.0
C      1  0.5298870000000  0.4871230000000  0.4446070000000 1.0
END
