TITL C-4164234-2335-167 8.98945813140944 125000 -16956.2832553797 0 0 112 (C1) n - 1
REM
REM in /home/nfs/bkarasulu/CARBON/AIRSS/Generating-Clusters/ReaxFF-fromJPCA2015/Units_Real/with-SteepDescent/Only-C1/SD-CG/Try1-3A/FIRE-CG
REM
REM
REM
REM
REM
REM ./C.cell (11c1c37f851c82e70ff6c80c92926a4b)
REM
REM compiler GCC version 9.2.1 20190827 (Red Hat 9.2.1-1)
REM options -cpp -mtune=generic -march=x86-64 -g -O0 -fpre-include=/usr/include/finclude/math-vector-fortran.h
REM seed -248213247 1705454853 128661299 -777848201 226652332 737251648 -1638865568 -1858826156 -16083837 -32708315 404608699 -1266527364 -1094745601 192401533 1387596350 1882275253 1978385542 -1925895614 1732426706 -876309366 2014292075 360684368 -1969283283 154756685 1412393067 -157125275 -1924682852 415284167 1474937627 1965925002 1242193929 910362024 1442246998
REM
CELL 1.54180   50.00000   50.00000   50.00000   90.00000   90.00000   90.00000
LATT -1
SFAC C  
C      1  0.4868200000000  0.5621340000000  0.4433040000000 1.0
C      1  0.4884000000000  0.5366370000000  0.4602970000000 1.0
C      1  0.5328410000000  0.5817720000000  0.4969090000000 1.0
C      1  0.5460140000000  0.5203100000000  0.5734340000000 1.0
C      1  0.5275310000000  0.5711530000000  0.4711180000000 1.0
C      1  0.5207670000000  0.5944140000000  0.4202040000000 1.0
C      1  0.4565470000000  0.4829690000000  0.5344840000000 1.0
C      1  0.5349660000000  0.4141990000000  0.5150180000000 1.0
C      1  0.4558720000000  0.5651300000000  0.5102240000000 1.0
C      1  0.5110530000000  0.5680730000000  0.5435270000000 1.0
C      1  0.4392640000000  0.5018610000000  0.4653950000000 1.0
C      1  0.4168590000000  0.4696390000000  0.5157930000000 1.0
C      1  0.5916390000000  0.5029610000000  0.4842820000000 1.0
C      1  0.4670620000000  0.5114170000000  0.4746400000000 1.0
C      1  0.4281350000000  0.5219320000000  0.5208800000000 1.0
C      1  0.4673880000000  0.5809780000000  0.5341700000000 1.0
C      1  0.5395810000000  0.4933830000000  0.5033220000000 1.0
C      1  0.4749120000000  0.5667210000000  0.4884970000000 1.0
C      1  0.5359530000000  0.4317780000000  0.4423830000000 1.0
C      1  0.4459660000000  0.5406800000000  0.4281740000000 1.0
C      1  0.5164300000000  0.4366060000000  0.5521450000000 1.0
C      1  0.4706030000000  0.5714920000000  0.5605020000000 1.0
C      1  0.5165990000000  0.5708260000000  0.4298070000000 1.0
C      1  0.5787920000000  0.4933200000000  0.5301310000000 1.0
C      1  0.4275220000000  0.4544170000000  0.4976990000000 1.0
C      1  0.4162210000000  0.5109240000000  0.4812430000000 1.0
C      1  0.4802070000000  0.5562200000000  0.5826920000000 1.0
C      1  0.5190910000000  0.5197250000000  0.5887910000000 1.0
C      1  0.5240800000000  0.5045000000000  0.4636780000000 1.0
C      1  0.5623830000000  0.5451480000000  0.5324030000000 1.0
C      1  0.4326940000000  0.5472560000000  0.5058730000000 1.0
C      1  0.4899240000000  0.6046930000000  0.4826520000000 1.0
C      1  0.4963610000000  0.4625330000000  0.4249020000000 1.0
C      1  0.4873230000000  0.4005760000000  0.5218630000000 1.0
C      1  0.4724340000000  0.5844050000000  0.4641210000000 1.0
C      1  0.4388900000000  0.4382360000000  0.4783720000000 1.0
C      1  0.5140510000000  0.3981140000000  0.5073880000000 1.0
C      1  0.4950010000000  0.4969540000000  0.5576150000000 1.0
C      1  0.5721000000000  0.4827830000000  0.5608650000000 1.0
C      1  0.5259020000000  0.4664960000000  0.5815960000000 1.0
C      1  0.5356050000000  0.5247190000000  0.4157030000000 1.0
C      1  0.5261330000000  0.4154010000000  0.4614350000000 1.0
C      1  0.5832880000000  0.4710960000000  0.5089020000000 1.0
C      1  0.4839070000000  0.4798230000000  0.4966020000000 1.0
C      1  0.5518880000000  0.5475080000000  0.5590650000000 1.0
C      1  0.5080020000000  0.4443480000000  0.5791690000000 1.0
C      1  0.4240260000000  0.5395450000000  0.4792050000000 1.0
C      1  0.5480870000000  0.5551210000000  0.4580870000000 1.0
C      1  0.5311170000000  0.4674050000000  0.4925890000000 1.0
C      1  0.4617110000000  0.4388910000000  0.5618500000000 1.0
C      1  0.5845710000000  0.5280890000000  0.4939760000000 1.0
C      1  0.4956160000000  0.5898900000000  0.5317280000000 1.0
C      1  0.5022740000000  0.5527160000000  0.4828500000000 1.0
C      1  0.5278710000000  0.5617000000000  0.5668520000000 1.0
C      1  0.4991860000000  0.4750350000000  0.4506130000000 1.0
C      1  0.5091870000000  0.5151210000000  0.5391170000000 1.0
C      1  0.4631860000000  0.4153300000000  0.5163180000000 1.0
C      1  0.5085650000000  0.4020170000000  0.4774340000000 1.0
C      1  0.4602140000000  0.4406580000000  0.4327370000000 1.0
C      1  0.4834650000000  0.4249970000000  0.4419670000000 1.0
C      1  0.5929780000000  0.4750540000000  0.4815340000000 1.0
C      1  0.4609480000000  0.4200580000000  0.4876370000000 1.0
C      1  0.5596220000000  0.4510540000000  0.4468360000000 1.0
C      1  0.5483430000000  0.4771190000000  0.4391760000000 1.0
C      1  0.5251210000000  0.4766580000000  0.4617690000000 1.0
C      1  0.4764960000000  0.4774280000000  0.5896670000000 1.0
C      1  0.5059280000000  0.4919400000000  0.5854830000000 1.0
C      1  0.5067180000000  0.5159400000000  0.4173030000000 1.0
C      1  0.5724090000000  0.5019390000000  0.5815500000000 1.0
C      1  0.5566340000000  0.5385730000000  0.4830470000000 1.0
C      1  0.5741210000000  0.4528190000000  0.4717560000000 1.0
C      1  0.5800720000000  0.5246050000000  0.5225120000000 1.0
C      1  0.5162020000000  0.5412720000000  0.5068800000000 1.0
C      1  0.5081320000000  0.4360100000000  0.4302490000000 1.0
C      1  0.5457510000000  0.4386520000000  0.5484500000000 1.0
C      1  0.4275060000000  0.4528040000000  0.5403570000000 1.0
C      1  0.5048490000000  0.4612200000000  0.5055800000000 1.0
C      1  0.4710180000000  0.5532980000000  0.4197870000000 1.0
C      1  0.4517790000000  0.4877560000000  0.5788420000000 1.0
C      1  0.4503500000000  0.4861690000000  0.4214840000000 1.0
C      1  0.4807870000000  0.5273770000000  0.4086480000000 1.0
C      1  0.4338070000000  0.5533370000000  0.4536330000000 1.0
C      1  0.4557290000000  0.5123520000000  0.5294680000000 1.0
C      1  0.4535720000000  0.5137220000000  0.5648970000000 1.0
C      1  0.5551600000000  0.4304250000000  0.5215980000000 1.0
C      1  0.5066790000000  0.5187090000000  0.4462080000000 1.0
C      1  0.4832310000000  0.4742010000000  0.5431820000000 1.0
C      1  0.5446550000000  0.4996770000000  0.4241820000000 1.0
C      1  0.5497380000000  0.4624280000000  0.5656310000000 1.0
C      1  0.4727200000000  0.5057380000000  0.5038810000000 1.0
C      1  0.5434100000000  0.5550890000000  0.5080770000000 1.0
C      1  0.4417500000000  0.5807080000000  0.4582080000000 1.0
C      1  0.5075000000000  0.5970130000000  0.5042440000000 1.0
C      1  0.4782110000000  0.4490130000000  0.5831030000000 1.0
C      1  0.4547590000000  0.5148810000000  0.4159950000000 1.0
C      1  0.5502950000000  0.4938260000000  0.5289960000000 1.0
C      1  0.4146260000000  0.4997240000000  0.5085520000000 1.0
C      1  0.4820910000000  0.4130260000000  0.4686970000000 1.0
C      1  0.5003110000000  0.4527000000000  0.5324680000000 1.0
C      1  0.4365170000000  0.4762690000000  0.5555780000000 1.0
C      1  0.4363530000000  0.4796100000000  0.4462920000000 1.0
C      1  0.4796490000000  0.4846240000000  0.4689270000000 1.0
C      1  0.5407370000000  0.5133130000000  0.4842050000000 1.0
C      1  0.4407110000000  0.4509370000000  0.4515320000000 1.0
C      1  0.5614280000000  0.4524910000000  0.4993460000000 1.0
C      1  0.4476210000000  0.4309130000000  0.5400040000000 1.0
C      1  0.4648260000000  0.5339000000000  0.5764120000000 1.0
C      1  0.5017400000000  0.5428180000000  0.5315900000000 1.0
C      1  0.5100920000000  0.5461100000000  0.5849040000000 1.0
C      1  0.5394190000000  0.5497760000000  0.4315220000000 1.0
C      1  0.5365030000000  0.5086610000000  0.5472960000000 1.0
C      1  0.4683180000000  0.4634910000000  0.4162310000000 1.0
END
