TITL C-4164245-3996-267 17.3699234960942 125000 -18098.9105401964 0 0 122 (C1) n - 1
REM
REM in /home/nfs/bkarasulu/CARBON/AIRSS/Generating-Clusters/ReaxFF-fromJPCA2015/Units_Real/with-SteepDescent/Only-C1/SD-CG/Try1-3A/FIRE-CG
REM
REM
REM
REM
REM
REM ./C.cell (11c1c37f851c82e70ff6c80c92926a4b)
REM
REM compiler GCC version 9.2.1 20190827 (Red Hat 9.2.1-1)
REM options -cpp -mtune=generic -march=x86-64 -g -O0 -fpre-include=/usr/include/finclude/math-vector-fortran.h
REM seed 901021817 -640108470 1726742289 -1465539802 -795474536 990944571 1761399422 -481265098 -532326641 -1286041032 -1796604736 1519221634 1657324101 -835383471 -1244998431 1504528293 363969760 -1243188399 -1049809271 -1304883777 -1247943178 430637823 -2022015733 1603164359 -1881405274 -1677613252 876118960 -1528266125 -1028839742 -1725475879 -328973064 -95665616 661803750
REM
CELL 1.54180   50.00000   50.00000   50.00000   90.00000   90.00000   90.00000
LATT -1
SFAC C  
C      1  0.4405740000000  0.4961180000000  0.5523330000000 1.0
C      1  0.5620990000000  0.4426590000000  0.4907610000000 1.0
C      1  0.4814430000000  0.5797780000000  0.4774500000000 1.0
C      1  0.4904360000000  0.4126120000000  0.5035340000000 1.0
C      1  0.5086840000000  0.5879020000000  0.4754910000000 1.0
C      1  0.4363140000000  0.5074660000000  0.4299080000000 1.0
C      1  0.5344730000000  0.4872100000000  0.4709820000000 1.0
C      1  0.4721270000000  0.5285720000000  0.5681120000000 1.0
C      1  0.5052390000000  0.5822700000000  0.5273060000000 1.0
C      1  0.5845660000000  0.4525970000000  0.5063620000000 1.0
C      1  0.5425270000000  0.5021550000000  0.5819870000000 1.0
C      1  0.4681130000000  0.4725740000000  0.5193370000000 1.0
C      1  0.5228310000000  0.4873920000000  0.4449620000000 1.0
C      1  0.4993820000000  0.4659810000000  0.4420290000000 1.0
C      1  0.5221960000000  0.4326980000000  0.4628070000000 1.0
C      1  0.4713170000000  0.4882990000000  0.4734110000000 1.0
C      1  0.4924730000000  0.4643350000000  0.5122720000000 1.0
C      1  0.4740570000000  0.5129710000000  0.5930940000000 1.0
C      1  0.5017860000000  0.5142290000000  0.4460930000000 1.0
C      1  0.4049960000000  0.4919160000000  0.5142530000000 1.0
C      1  0.5550480000000  0.5508280000000  0.5587400000000 1.0
C      1  0.4443730000000  0.4829720000000  0.4158520000000 1.0
C      1  0.5018930000000  0.5056440000000  0.5937900000000 1.0
C      1  0.5711040000000  0.4824500000000  0.5479520000000 1.0
C      1  0.4764640000000  0.5831800000000  0.5323380000000 1.0
C      1  0.5019300000000  0.5211020000000  0.4021110000000 1.0
C      1  0.4950700000000  0.4490800000000  0.4657800000000 1.0
C      1  0.4689040000000  0.4328040000000  0.4568410000000 1.0
C      1  0.5378480000000  0.4893690000000  0.4213690000000 1.0
C      1  0.5744450000000  0.4377180000000  0.5302400000000 1.0
C      1  0.4556060000000  0.4895050000000  0.5909390000000 1.0
C      1  0.5541810000000  0.5053120000000  0.5105490000000 1.0
C      1  0.5448250000000  0.5754020000000  0.4929230000000 1.0
C      1  0.4417950000000  0.4290940000000  0.4997100000000 1.0
C      1  0.4584820000000  0.5541050000000  0.5647850000000 1.0
C      1  0.5452310000000  0.4492040000000  0.5726540000000 1.0
C      1  0.4910080000000  0.4700720000000  0.4857980000000 1.0
C      1  0.4501020000000  0.4812270000000  0.4971210000000 1.0
C      1  0.4282560000000  0.4959600000000  0.5796380000000 1.0
C      1  0.4459730000000  0.5090470000000  0.5047700000000 1.0
C      1  0.4157590000000  0.5395780000000  0.4941390000000 1.0
C      1  0.5678120000000  0.5038270000000  0.5677470000000 1.0
C      1  0.5674870000000  0.5567630000000  0.5040190000000 1.0
C      1  0.5313110000000  0.5002620000000  0.5256910000000 1.0
C      1  0.5154500000000  0.4252850000000  0.4345210000000 1.0
C      1  0.4669880000000  0.4200930000000  0.5163440000000 1.0
C      1  0.4137190000000  0.4785680000000  0.4635140000000 1.0
C      1  0.4803160000000  0.4880650000000  0.4440220000000 1.0
C      1  0.4934170000000  0.4421140000000  0.4233750000000 1.0
C      1  0.5916100000000  0.5263530000000  0.5333830000000 1.0
C      1  0.4174410000000  0.4787540000000  0.4923620000000 1.0
C      1  0.5276170000000  0.5508830000000  0.4937110000000 1.0
C      1  0.5311220000000  0.4764940000000  0.5403050000000 1.0
C      1  0.4801650000000  0.5738930000000  0.5600860000000 1.0
C      1  0.5844250000000  0.5045660000000  0.4257150000000 1.0
C      1  0.4331760000000  0.5457250000000  0.4488050000000 1.0
C      1  0.4413020000000  0.4562820000000  0.4281480000000 1.0
C      1  0.5207450000000  0.4330640000000  0.5721950000000 1.0
C      1  0.5204250000000  0.5741100000000  0.4511970000000 1.0
C      1  0.5352320000000  0.5586690000000  0.4145700000000 1.0
C      1  0.4749680000000  0.4294800000000  0.5435000000000 1.0
C      1  0.4815320000000  0.5113460000000  0.5460680000000 1.0
C      1  0.5923550000000  0.4795040000000  0.4993310000000 1.0
C      1  0.5229910000000  0.5234190000000  0.5840500000000 1.0
C      1  0.5501750000000  0.5073880000000  0.4837040000000 1.0
C      1  0.4951200000000  0.5164240000000  0.5228420000000 1.0
C      1  0.4366880000000  0.5569720000000  0.5451390000000 1.0
C      1  0.4119380000000  0.4639920000000  0.5305440000000 1.0
C      1  0.4401420000000  0.5153760000000  0.5322290000000 1.0
C      1  0.5299690000000  0.4120090000000  0.5076220000000 1.0
C      1  0.4173900000000  0.4390000000000  0.5131320000000 1.0
C      1  0.4641590000000  0.5195230000000  0.4843870000000 1.0
C      1  0.5522090000000  0.5593490000000  0.5310960000000 1.0
C      1  0.4702070000000  0.4688830000000  0.5750220000000 1.0
C      1  0.4184430000000  0.5349010000000  0.5371200000000 1.0
C      1  0.5615570000000  0.5328770000000  0.4812280000000 1.0
C      1  0.5652190000000  0.5434580000000  0.4546080000000 1.0
C      1  0.5816630000000  0.4966430000000  0.5222120000000 1.0
C      1  0.5691410000000  0.4687260000000  0.4542750000000 1.0
C      1  0.4567210000000  0.4460490000000  0.5597960000000 1.0
C      1  0.5089250000000  0.5684620000000  0.5554750000000 1.0
C      1  0.4857680000000  0.5314250000000  0.5006460000000 1.0
C      1  0.5125360000000  0.5223550000000  0.4712620000000 1.0
C      1  0.5955510000000  0.5492480000000  0.5163950000000 1.0
C      1  0.5005940000000  0.4742410000000  0.5869910000000 1.0
C      1  0.5888170000000  0.4823800000000  0.4703140000000 1.0
C      1  0.5472120000000  0.5645220000000  0.4422850000000 1.0
C      1  0.4493940000000  0.5712140000000  0.5233970000000 1.0
C      1  0.4916320000000  0.5345940000000  0.4252840000000 1.0
C      1  0.4552880000000  0.5731360000000  0.4814700000000 1.0
C      1  0.5760070000000  0.5300930000000  0.5580060000000 1.0
C      1  0.4140180000000  0.5315700000000  0.4661240000000 1.0
C      1  0.4170980000000  0.5055110000000  0.4518300000000 1.0
C      1  0.4552010000000  0.5313760000000  0.4320290000000 1.0
C      1  0.4728400000000  0.4876750000000  0.4154740000000 1.0
C      1  0.5308470000000  0.4759980000000  0.5706060000000 1.0
C      1  0.5026960000000  0.5461520000000  0.4831610000000 1.0
C      1  0.5274370000000  0.5496970000000  0.5689160000000 1.0
C      1  0.5672570000000  0.4537250000000  0.5534810000000 1.0
C      1  0.5177480000000  0.5222540000000  0.5339070000000 1.0
C      1  0.5967650000000  0.5027720000000  0.4501450000000 1.0
C      1  0.4927100000000  0.4961750000000  0.3966110000000 1.0
C      1  0.5211630000000  0.5889930000000  0.5029320000000 1.0
C      1  0.5213870000000  0.5005030000000  0.4006080000000 1.0
C      1  0.4674270000000  0.4858690000000  0.5459640000000 1.0
C      1  0.5553210000000  0.4223000000000  0.5118140000000 1.0
C      1  0.5130320000000  0.4114640000000  0.4865930000000 1.0
C      1  0.4359030000000  0.5627000000000  0.4990770000000 1.0
C      1  0.5460480000000  0.4578690000000  0.4702140000000 1.0
C      1  0.5292620000000  0.5455920000000  0.5213320000000 1.0
C      1  0.4281750000000  0.4549240000000  0.4538090000000 1.0
C      1  0.4039530000000  0.5220730000000  0.5147340000000 1.0
C      1  0.5854540000000  0.5283100000000  0.4404430000000 1.0
C      1  0.4329840000000  0.4553680000000  0.5475430000000 1.0
C      1  0.5036240000000  0.4349970000000  0.5477420000000 1.0
C      1  0.5128860000000  0.4562070000000  0.5306420000000 1.0
C      1  0.4592630000000  0.5402400000000  0.4601950000000 1.0
C      1  0.4644520000000  0.4374850000000  0.4289840000000 1.0
C      1  0.5656790000000  0.4845510000000  0.4299210000000 1.0
C      1  0.5095210000000  0.4469650000000  0.5967290000000 1.0
C      1  0.5078540000000  0.5605430000000  0.4277260000000 1.0
C      1  0.4439920000000  0.4359980000000  0.4710470000000 1.0
END
