TITL C-4164238-4211-292 20.6675502240619 125000 -23486.0596396209 0 0 158 (C1) n - 1
REM
REM in /home/nfs/bkarasulu/CARBON/AIRSS/Generating-Clusters/ReaxFF-fromJPCA2015/Units_Real/with-SteepDescent/Only-C1/SD-CG/Try1-3A/FIRE-CG
REM
REM
REM
REM
REM
REM ./C.cell (11c1c37f851c82e70ff6c80c92926a4b)
REM
REM compiler GCC version 9.2.1 20190827 (Red Hat 9.2.1-1)
REM options -cpp -mtune=generic -march=x86-64 -g -O0 -fpre-include=/usr/include/finclude/math-vector-fortran.h
REM seed -979016438 1128251488 -1877923689 1921928902 1294299876 -774062849 -1226946946 -597436284 755276348 -267037547 167516280 -1907925133 852230520 2091941552 956830201 -1441756449 -1475455234 -1242642204 -45920214 -1265888311 1832932844 -1934332141 710017003 -430938987 -1331553566 -239234633 -165010395 98766939 1038025141 -1830789966 -1720595779 1609965915 1342985612
REM
CELL 1.54180   50.00000   50.00000   50.00000   90.00000   90.00000   90.00000
LATT -1
SFAC C  
C      1  0.5614130000000  0.4527570000000  0.5801970000000 1.0
C      1  0.4807830000000  0.4976650000000  0.4443130000000 1.0
C      1  0.4962880000000  0.4951590000000  0.5063560000000 1.0
C      1  0.4742500000000  0.3955760000000  0.5119610000000 1.0
C      1  0.5804290000000  0.5597360000000  0.5112620000000 1.0
C      1  0.5321100000000  0.5001660000000  0.6056360000000 1.0
C      1  0.4682750000000  0.5512280000000  0.5717570000000 1.0
C      1  0.4600670000000  0.5472650000000  0.5112910000000 1.0
C      1  0.4871010000000  0.4496870000000  0.5823390000000 1.0
C      1  0.5619820000000  0.4728260000000  0.4431970000000 1.0
C      1  0.5354180000000  0.4490920000000  0.5933770000000 1.0
C      1  0.4743750000000  0.4039580000000  0.5383240000000 1.0
C      1  0.4525190000000  0.4240100000000  0.5504380000000 1.0
C      1  0.4549830000000  0.5196830000000  0.5038680000000 1.0
C      1  0.5424660000000  0.4653610000000  0.4687980000000 1.0
C      1  0.5055700000000  0.4487440000000  0.5047570000000 1.0
C      1  0.5559250000000  0.4652830000000  0.4987290000000 1.0
C      1  0.4755730000000  0.5560700000000  0.4188830000000 1.0
C      1  0.4871600000000  0.6077550000000  0.4595680000000 1.0
C      1  0.5373530000000  0.5614580000000  0.4785420000000 1.0
C      1  0.4282530000000  0.5662060000000  0.4779710000000 1.0
C      1  0.4830130000000  0.4806630000000  0.5262080000000 1.0
C      1  0.4158900000000  0.4165310000000  0.5081870000000 1.0
C      1  0.4857380000000  0.5478500000000  0.4604100000000 1.0
C      1  0.5589210000000  0.4798500000000  0.5683500000000 1.0
C      1  0.5111260000000  0.5183120000000  0.4018090000000 1.0
C      1  0.5570130000000  0.5018710000000  0.4265340000000 1.0
C      1  0.5152060000000  0.4011710000000  0.5079490000000 1.0
C      1  0.5077420000000  0.4695240000000  0.4197830000000 1.0
C      1  0.4324720000000  0.4356560000000  0.5246090000000 1.0
C      1  0.5371750000000  0.4510650000000  0.5376150000000 1.0
C      1  0.5562570000000  0.5237650000000  0.4809340000000 1.0
C      1  0.5574290000000  0.5008790000000  0.5895120000000 1.0
C      1  0.5274600000000  0.6014950000000  0.4656440000000 1.0
C      1  0.3911110000000  0.5148400000000  0.5129670000000 1.0
C      1  0.6091910000000  0.5092980000000  0.4624180000000 1.0
C      1  0.4850700000000  0.4575170000000  0.4091620000000 1.0
C      1  0.5102200000000  0.5197690000000  0.6007500000000 1.0
C      1  0.5571260000000  0.5517330000000  0.4634380000000 1.0
C      1  0.4531840000000  0.4363390000000  0.4999750000000 1.0
C      1  0.6134410000000  0.5199990000000  0.4903120000000 1.0
C      1  0.4864340000000  0.4267510000000  0.4453260000000 1.0
C      1  0.4428020000000  0.5673120000000  0.5598170000000 1.0
C      1  0.4337450000000  0.4943680000000  0.5408230000000 1.0
C      1  0.4532540000000  0.4853100000000  0.5556330000000 1.0
C      1  0.4427860000000  0.5057890000000  0.4193040000000 1.0
C      1  0.4125170000000  0.5253930000000  0.5601570000000 1.0
C      1  0.5336100000000  0.4450730000000  0.5103810000000 1.0
C      1  0.4365000000000  0.5687320000000  0.5075100000000 1.0
C      1  0.5057220000000  0.6081560000000  0.4817320000000 1.0
C      1  0.5625020000000  0.4886770000000  0.5217670000000 1.0
C      1  0.4933410000000  0.4473150000000  0.5541390000000 1.0
C      1  0.5151930000000  0.4303410000000  0.5843470000000 1.0
C      1  0.4640120000000  0.4974250000000  0.4679380000000 1.0
C      1  0.4908570000000  0.5209450000000  0.5461300000000 1.0
C      1  0.5388420000000  0.5088400000000  0.4043240000000 1.0
C      1  0.4669660000000  0.4441730000000  0.4293190000000 1.0
C      1  0.5192800000000  0.5445870000000  0.4013740000000 1.0
C      1  0.5047380000000  0.4038590000000  0.5382620000000 1.0
C      1  0.4512820000000  0.4177320000000  0.4772750000000 1.0
C      1  0.4150300000000  0.5215750000000  0.4559610000000 1.0
C      1  0.4780010000000  0.4102750000000  0.4670970000000 1.0
C      1  0.4970080000000  0.4620200000000  0.4822760000000 1.0
C      1  0.4431950000000  0.5734580000000  0.4537250000000 1.0
C      1  0.4691030000000  0.4587890000000  0.4895000000000 1.0
C      1  0.3915370000000  0.4960700000000  0.4911200000000 1.0
C      1  0.5941800000000  0.5358650000000  0.5612700000000 1.0
C      1  0.4184430000000  0.5516900000000  0.5504510000000 1.0
C      1  0.5933410000000  0.4918280000000  0.5271320000000 1.0
C      1  0.4034470000000  0.4959770000000  0.4644830000000 1.0
C      1  0.5093170000000  0.5931670000000  0.4436890000000 1.0
C      1  0.4935970000000  0.4802500000000  0.5959270000000 1.0
C      1  0.4577100000000  0.4410170000000  0.5758580000000 1.0
C      1  0.5820630000000  0.5735010000000  0.4671240000000 1.0
C      1  0.5639010000000  0.5692610000000  0.5387720000000 1.0
C      1  0.4065440000000  0.4668760000000  0.4554180000000 1.0
C      1  0.5200310000000  0.5450890000000  0.5884270000000 1.0
C      1  0.4501610000000  0.4650230000000  0.4381040000000 1.0
C      1  0.4608600000000  0.5251850000000  0.5851010000000 1.0
C      1  0.4499360000000  0.5530040000000  0.4315400000000 1.0
C      1  0.5391940000000  0.4144840000000  0.4995410000000 1.0
C      1  0.4644250000000  0.4762660000000  0.4025810000000 1.0
C      1  0.6021140000000  0.5526540000000  0.4652830000000 1.0
C      1  0.4281370000000  0.4491690000000  0.4439000000000 1.0
C      1  0.5443410000000  0.4783990000000  0.5420760000000 1.0
C      1  0.4480620000000  0.4749080000000  0.4762750000000 1.0
C      1  0.4372520000000  0.5002580000000  0.5140770000000 1.0
C      1  0.5530750000000  0.4272030000000  0.5445640000000 1.0
C      1  0.4416160000000  0.5849010000000  0.5376060000000 1.0
C      1  0.5202850000000  0.4732860000000  0.6030290000000 1.0
C      1  0.5781140000000  0.4466440000000  0.5055120000000 1.0
C      1  0.5381760000000  0.5816570000000  0.5389300000000 1.0
C      1  0.5798880000000  0.4375940000000  0.4774770000000 1.0
C      1  0.4278640000000  0.4243860000000  0.4602720000000 1.0
C      1  0.4113550000000  0.5430930000000  0.4755400000000 1.0
C      1  0.4842360000000  0.5075540000000  0.5952100000000 1.0
C      1  0.5843720000000  0.4622490000000  0.4614510000000 1.0
C      1  0.5692600000000  0.5272400000000  0.4333140000000 1.0
C      1  0.3963120000000  0.5082220000000  0.5425080000000 1.0
C      1  0.6071940000000  0.4934370000000  0.5013080000000 1.0
C      1  0.5567120000000  0.4718290000000  0.3968280000000 1.0
C      1  0.6036660000000  0.5474120000000  0.4940680000000 1.0
C      1  0.4917790000000  0.3963100000000  0.4901330000000 1.0
C      1  0.4325390000000  0.5175630000000  0.5828730000000 1.0
C      1  0.5002300000000  0.5624190000000  0.5774430000000 1.0
C      1  0.5512250000000  0.4923340000000  0.3785780000000 1.0
C      1  0.5952580000000  0.5298890000000  0.4475970000000 1.0
C      1  0.4591840000000  0.5974850000000  0.4574780000000 1.0
C      1  0.5522470000000  0.4561050000000  0.4201300000000 1.0
C      1  0.4908870000000  0.5397260000000  0.4007990000000 1.0
C      1  0.4449590000000  0.4826210000000  0.4155250000000 1.0
C      1  0.5030200000000  0.5783770000000  0.5158510000000 1.0
C      1  0.5643350000000  0.5355040000000  0.5054290000000 1.0
C      1  0.4436790000000  0.4675440000000  0.5781850000000 1.0
C      1  0.5167960000000  0.4811890000000  0.4687970000000 1.0
C      1  0.5180970000000  0.5159430000000  0.5370280000000 1.0
C      1  0.5792550000000  0.4326800000000  0.5316270000000 1.0
C      1  0.5236550000000  0.4473410000000  0.4194030000000 1.0
C      1  0.5791930000000  0.5876710000000  0.4926340000000 1.0
C      1  0.5550790000000  0.4199200000000  0.4757050000000 1.0
C      1  0.4768600000000  0.5472520000000  0.5420270000000 1.0
C      1  0.5756880000000  0.4355240000000  0.5610970000000 1.0
C      1  0.3958110000000  0.4491910000000  0.4748660000000 1.0
C      1  0.5307070000000  0.5104360000000  0.4857560000000 1.0
C      1  0.4897350000000  0.5230460000000  0.4490700000000 1.0
C      1  0.3996830000000  0.5404160000000  0.5029620000000 1.0
C      1  0.5977670000000  0.5128470000000  0.5456310000000 1.0
C      1  0.5178670000000  0.4144690000000  0.5609230000000 1.0
C      1  0.5137950000000  0.5782510000000  0.5573650000000 1.0
C      1  0.4338430000000  0.5275070000000  0.4331630000000 1.0
C      1  0.4799420000000  0.5521960000000  0.4893530000000 1.0
C      1  0.5503170000000  0.5495710000000  0.4361040000000 1.0
C      1  0.4095140000000  0.4580900000000  0.5274630000000 1.0
C      1  0.5414160000000  0.5256640000000  0.5483680000000 1.0
C      1  0.5238560000000  0.4993080000000  0.5132960000000 1.0
C      1  0.5264010000000  0.5927670000000  0.5136900000000 1.0
C      1  0.4295720000000  0.4788370000000  0.4979860000000 1.0
C      1  0.5068070000000  0.4868580000000  0.4413090000000 1.0
C      1  0.4127240000000  0.5581480000000  0.5219210000000 1.0
C      1  0.4875640000000  0.4528270000000  0.5270940000000 1.0
C      1  0.5261450000000  0.5601120000000  0.4250820000000 1.0
C      1  0.5692690000000  0.5550050000000  0.5627940000000 1.0
C      1  0.5152180000000  0.4298850000000  0.4415750000000 1.0
C      1  0.5347980000000  0.4362700000000  0.4627100000000 1.0
C      1  0.5613340000000  0.5172680000000  0.5281810000000 1.0
C      1  0.5398330000000  0.5877600000000  0.4878610000000 1.0
C      1  0.5448080000000  0.5416940000000  0.5717610000000 1.0
C      1  0.4062880000000  0.4222570000000  0.4802060000000 1.0
C      1  0.5193150000000  0.5412590000000  0.4851580000000 1.0
C      1  0.4776670000000  0.5097200000000  0.4899100000000 1.0
C      1  0.4077150000000  0.4807970000000  0.5450000000000 1.0
C      1  0.5002560000000  0.5671480000000  0.4373770000000 1.0
C      1  0.4783560000000  0.4953110000000  0.5493280000000 1.0
C      1  0.4377290000000  0.4911730000000  0.5920900000000 1.0
C      1  0.4001070000000  0.4677190000000  0.5001470000000 1.0
C      1  0.6008190000000  0.4830000000000  0.4735930000000 1.0
C      1  0.5031240000000  0.5536790000000  0.5049850000000 1.0
C      1  0.4914110000000  0.5747600000000  0.5395680000000 1.0
END
