TITL C-4164243-3780-399 17.0479409510168 125000 -15039.2351867463 0 0 102 (C1) n - 1
REM
REM in /home/nfs/bkarasulu/CARBON/AIRSS/Generating-Clusters/ReaxFF-fromJPCA2015/Units_Real/with-SteepDescent/Only-C1/SD-CG/Try1-3A/FIRE-CG
REM
REM
REM
REM
REM
REM ./C.cell (11c1c37f851c82e70ff6c80c92926a4b)
REM
REM compiler GCC version 9.2.1 20190827 (Red Hat 9.2.1-1)
REM options -cpp -mtune=generic -march=x86-64 -g -O0 -fpre-include=/usr/include/finclude/math-vector-fortran.h
REM seed -544078937 1147400835 -910982084 -611173182 1019969433 -645610848 1143153836 -707735039 -1619390209 -438751147 -1510687088 2134415525 1151832022 -2132060680 1879261677 1021512111 77368703 -852528189 2072958620 66544202 -2028767603 -1127783790 -1085050786 1245334505 -1295003123 -1908508052 -1071128647 -1270774190 -500222832 1291902312 1954360998 715273700 -2084331555
REM
CELL 1.54180   50.00000   50.00000   50.00000   90.00000   90.00000   90.00000
LATT -1
SFAC C  
C      1  0.5205890000000  0.5780010000000  0.5313450000000 1.0
C      1  0.5548120000000  0.5508620000000  0.4656770000000 1.0
C      1  0.4644410000000  0.4688290000000  0.5117440000000 1.0
C      1  0.5507970000000  0.4553450000000  0.5716400000000 1.0
C      1  0.4679490000000  0.4365070000000  0.4624890000000 1.0
C      1  0.5358250000000  0.4262810000000  0.4753450000000 1.0
C      1  0.5288170000000  0.4848860000000  0.4142740000000 1.0
C      1  0.4446510000000  0.4602920000000  0.5304870000000 1.0
C      1  0.5400310000000  0.5639960000000  0.5479040000000 1.0
C      1  0.5668600000000  0.5602830000000  0.5356450000000 1.0
C      1  0.4721170000000  0.5246960000000  0.5879030000000 1.0
C      1  0.4537620000000  0.4854870000000  0.4926410000000 1.0
C      1  0.4278090000000  0.4280440000000  0.5017470000000 1.0
C      1  0.5424530000000  0.4267870000000  0.5267400000000 1.0
C      1  0.4755880000000  0.4220610000000  0.5254160000000 1.0
C      1  0.5796420000000  0.5274870000000  0.4738370000000 1.0
C      1  0.4682700000000  0.5208970000000  0.5254590000000 1.0
C      1  0.5630170000000  0.4873720000000  0.4414500000000 1.0
C      1  0.4068380000000  0.4978980000000  0.5150150000000 1.0
C      1  0.4549530000000  0.5334040000000  0.5675310000000 1.0
C      1  0.4486560000000  0.4633000000000  0.4241230000000 1.0
C      1  0.4710910000000  0.5128130000000  0.4601400000000 1.0
C      1  0.4420290000000  0.5363220000000  0.4337980000000 1.0
C      1  0.4802500000000  0.5098170000000  0.4120680000000 1.0
C      1  0.4884250000000  0.4989300000000  0.5789880000000 1.0
C      1  0.5134560000000  0.5657210000000  0.4367360000000 1.0
C      1  0.5911700000000  0.5238840000000  0.5008230000000 1.0
C      1  0.4919200000000  0.4636160000000  0.5070900000000 1.0
C      1  0.4142350000000  0.4511700000000  0.4889500000000 1.0
C      1  0.4696050000000  0.5360380000000  0.4206440000000 1.0
C      1  0.4616960000000  0.5710670000000  0.5043520000000 1.0
C      1  0.5117870000000  0.4404200000000  0.4313210000000 1.0
C      1  0.4522390000000  0.4594080000000  0.5926860000000 1.0
C      1  0.5768330000000  0.5001560000000  0.5412690000000 1.0
C      1  0.4472440000000  0.4312260000000  0.5242780000000 1.0
C      1  0.4213130000000  0.5198500000000  0.5027100000000 1.0
C      1  0.5597140000000  0.5373330000000  0.5220930000000 1.0
C      1  0.5148140000000  0.5204900000000  0.5169360000000 1.0
C      1  0.4854320000000  0.4422460000000  0.5755430000000 1.0
C      1  0.5183810000000  0.5296570000000  0.4595540000000 1.0
C      1  0.5198480000000  0.5812670000000  0.4612520000000 1.0
C      1  0.4736210000000  0.4690250000000  0.5835030000000 1.0
C      1  0.4866390000000  0.4259580000000  0.5515000000000 1.0
C      1  0.5072500000000  0.4492460000000  0.5554550000000 1.0
C      1  0.4477080000000  0.4492080000000  0.4512540000000 1.0
C      1  0.5950660000000  0.4704330000000  0.5022050000000 1.0
C      1  0.5266450000000  0.5415800000000  0.5588820000000 1.0
C      1  0.4453030000000  0.5115070000000  0.4493920000000 1.0
C      1  0.4841090000000  0.5506530000000  0.5873180000000 1.0
C      1  0.4322420000000  0.4680340000000  0.4709220000000 1.0
C      1  0.4848990000000  0.5547360000000  0.4908970000000 1.0
C      1  0.4992110000000  0.4791260000000  0.4818970000000 1.0
C      1  0.5358460000000  0.4369910000000  0.5539500000000 1.0
C      1  0.5027160000000  0.5790450000000  0.4851760000000 1.0
C      1  0.5380040000000  0.5320920000000  0.5058420000000 1.0
C      1  0.4736110000000  0.4774000000000  0.4165470000000 1.0
C      1  0.5609630000000  0.5051200000000  0.5653470000000 1.0
C      1  0.4885100000000  0.4236140000000  0.4739180000000 1.0
C      1  0.5435900000000  0.4838070000000  0.5775470000000 1.0
C      1  0.5906720000000  0.4987960000000  0.5162430000000 1.0
C      1  0.5585730000000  0.4580760000000  0.4398940000000 1.0
C      1  0.5851510000000  0.5471910000000  0.5175200000000 1.0
C      1  0.4670700000000  0.5702600000000  0.5333620000000 1.0
C      1  0.5179010000000  0.4967520000000  0.5895080000000 1.0
C      1  0.5068460000000  0.5022710000000  0.4106870000000 1.0
C      1  0.5259130000000  0.4239820000000  0.5024430000000 1.0
C      1  0.4899930000000  0.5026170000000  0.5488020000000 1.0
C      1  0.4224420000000  0.4784420000000  0.4233730000000 1.0
C      1  0.4869650000000  0.5533290000000  0.4360700000000 1.0
C      1  0.5333950000000  0.4949140000000  0.4413490000000 1.0
C      1  0.5252230000000  0.4891400000000  0.5251950000000 1.0
C      1  0.5491470000000  0.5323320000000  0.5724670000000 1.0
C      1  0.5399020000000  0.5297860000000  0.4786570000000 1.0
C      1  0.4760820000000  0.4922480000000  0.4762630000000 1.0
C      1  0.5017520000000  0.4760410000000  0.5358050000000 1.0
C      1  0.5344790000000  0.5459950000000  0.4423510000000 1.0
C      1  0.5134330000000  0.4258670000000  0.4580790000000 1.0
C      1  0.4933170000000  0.5793520000000  0.5438390000000 1.0
C      1  0.4467750000000  0.5090720000000  0.5099110000000 1.0
C      1  0.4895900000000  0.5671200000000  0.5686060000000 1.0
C      1  0.5818070000000  0.4536200000000  0.4852520000000 1.0
C      1  0.4886840000000  0.5316310000000  0.5091630000000 1.0
C      1  0.5430820000000  0.5758860000000  0.4782450000000 1.0
C      1  0.4889030000000  0.5363450000000  0.4611970000000 1.0
C      1  0.4190020000000  0.4747150000000  0.5301940000000 1.0
C      1  0.4279070000000  0.5496560000000  0.4562090000000 1.0
C      1  0.4012410000000  0.4692630000000  0.5082590000000 1.0
C      1  0.5452530000000  0.4712210000000  0.4813420000000 1.0
C      1  0.4554810000000  0.5439210000000  0.5415420000000 1.0
C      1  0.4249960000000  0.4897050000000  0.4510940000000 1.0
C      1  0.5354240000000  0.4559660000000  0.4224940000000 1.0
C      1  0.5084710000000  0.5252030000000  0.5445010000000 1.0
C      1  0.5326260000000  0.5205800000000  0.5928100000000 1.0
C      1  0.4378870000000  0.5618220000000  0.4941390000000 1.0
C      1  0.4952910000000  0.4307990000000  0.5038720000000 1.0
C      1  0.5749190000000  0.5059080000000  0.4585970000000 1.0
C      1  0.5387890000000  0.4775920000000  0.5057320000000 1.0
C      1  0.5609320000000  0.4436020000000  0.4666320000000 1.0
C      1  0.5258230000000  0.5811350000000  0.5028970000000 1.0
C      1  0.4182750000000  0.5450260000000  0.4846420000000 1.0
C      1  0.4924290000000  0.4591660000000  0.4238300000000 1.0
C      1  0.5228620000000  0.4819330000000  0.4657370000000 1.0
END
