TITL C-4164240-4114-125 -5.8370585984249 125000 -21036.0390527103 0 0 141 (C1) n - 1
REM
REM in /home/nfs/bkarasulu/CARBON/AIRSS/Generating-Clusters/ReaxFF-fromJPCA2015/Units_Real/with-SteepDescent/Only-C1/SD-CG/Try1-3A/FIRE-CG
REM
REM
REM
REM
REM
REM ./C.cell (11c1c37f851c82e70ff6c80c92926a4b)
REM
REM compiler GCC version 9.2.1 20190827 (Red Hat 9.2.1-1)
REM options -cpp -mtune=generic -march=x86-64 -g -O0 -fpre-include=/usr/include/finclude/math-vector-fortran.h
REM seed 1696220295 1004689936 542633390 -975991759 -857755875 1409494062 -2134804815 473430435 -122311707 696611912 1086476381 -1894697101 1437498483 1921685054 1606435089 2065974937 1308250479 1240977 170255885 1847159919 -1945840490 -667612680 -2057282803 1105767106 -1726359192 1133190153 1341043488 -2036697186 -2081562242 -969195606 -406263394 -1682113800 -1955286415
REM
CELL 1.54180   50.00000   50.00000   50.00000   90.00000   90.00000   90.00000
LATT -1
SFAC C  
C      1  0.5321210000000  0.4891710000000  0.5973620000000 1.0
C      1  0.4076720000000  0.5033150000000  0.5557070000000 1.0
C      1  0.5690400000000  0.4460560000000  0.4428760000000 1.0
C      1  0.4391860000000  0.4446310000000  0.5233010000000 1.0
C      1  0.4436880000000  0.5202790000000  0.5812970000000 1.0
C      1  0.4837270000000  0.5558870000000  0.5778190000000 1.0
C      1  0.5259830000000  0.4095520000000  0.4847750000000 1.0
C      1  0.4125000000000  0.5433230000000  0.5490010000000 1.0
C      1  0.4755950000000  0.5135420000000  0.4043910000000 1.0
C      1  0.4195190000000  0.5372640000000  0.4493840000000 1.0
C      1  0.4841440000000  0.4829420000000  0.4399330000000 1.0
C      1  0.4841180000000  0.4844640000000  0.5326270000000 1.0
C      1  0.4598260000000  0.5926220000000  0.4879090000000 1.0
C      1  0.4412480000000  0.4866180000000  0.4693940000000 1.0
C      1  0.5662850000000  0.5778090000000  0.5094730000000 1.0
C      1  0.4890110000000  0.5368380000000  0.4161240000000 1.0
C      1  0.5490940000000  0.4473710000000  0.5677300000000 1.0
C      1  0.4886540000000  0.5479240000000  0.4666530000000 1.0
C      1  0.4075130000000  0.4856140000000  0.5093660000000 1.0
C      1  0.4769550000000  0.4805330000000  0.5888320000000 1.0
C      1  0.4090910000000  0.4807620000000  0.5392130000000 1.0
C      1  0.4729250000000  0.5771260000000  0.5079390000000 1.0
C      1  0.4135420000000  0.5133860000000  0.5111090000000 1.0
C      1  0.4768650000000  0.5496800000000  0.4400890000000 1.0
C      1  0.5314140000000  0.5281220000000  0.5798820000000 1.0
C      1  0.4480070000000  0.5334000000000  0.5010010000000 1.0
C      1  0.4668670000000  0.4949150000000  0.4617790000000 1.0
C      1  0.5550940000000  0.5663080000000  0.4503640000000 1.0
C      1  0.5925120000000  0.4876010000000  0.5003170000000 1.0
C      1  0.4789940000000  0.6150100000000  0.4825550000000 1.0
C      1  0.4706090000000  0.4141640000000  0.5416080000000 1.0
C      1  0.4527130000000  0.4422000000000  0.4382570000000 1.0
C      1  0.5452110000000  0.4495740000000  0.4586760000000 1.0
C      1  0.5101450000000  0.4184310000000  0.5452010000000 1.0
C      1  0.4442920000000  0.5777430000000  0.4667190000000 1.0
C      1  0.5841180000000  0.5638580000000  0.4906590000000 1.0
C      1  0.5685440000000  0.4618520000000  0.5487120000000 1.0
C      1  0.4684910000000  0.5351040000000  0.5439800000000 1.0
C      1  0.4214130000000  0.5463800000000  0.5000910000000 1.0
C      1  0.5424190000000  0.4178470000000  0.5120680000000 1.0
C      1  0.5246630000000  0.4948780000000  0.4740370000000 1.0
C      1  0.4149140000000  0.5256980000000  0.5714800000000 1.0
C      1  0.5082790000000  0.4425290000000  0.5315310000000 1.0
C      1  0.4937690000000  0.6134360000000  0.4546480000000 1.0
C      1  0.5122070000000  0.5972960000000  0.5355800000000 1.0
C      1  0.4510550000000  0.5585860000000  0.5430930000000 1.0
C      1  0.5431740000000  0.5199430000000  0.5119970000000 1.0
C      1  0.5354040000000  0.4091350000000  0.5401670000000 1.0
C      1  0.5051380000000  0.5057310000000  0.5472310000000 1.0
C      1  0.5433580000000  0.4923800000000  0.5194530000000 1.0
C      1  0.4538260000000  0.4910300000000  0.5371380000000 1.0
C      1  0.5159330000000  0.5467950000000  0.4760020000000 1.0
C      1  0.5031790000000  0.4593540000000  0.4053450000000 1.0
C      1  0.4826580000000  0.5089740000000  0.5941550000000 1.0
C      1  0.5740740000000  0.5506880000000  0.4655620000000 1.0
C      1  0.5280720000000  0.4699610000000  0.4152740000000 1.0
C      1  0.4913250000000  0.4600450000000  0.5444030000000 1.0
C      1  0.4793090000000  0.4832010000000  0.4093420000000 1.0
C      1  0.4267360000000  0.5258610000000  0.4225740000000 1.0
C      1  0.5880560000000  0.4363740000000  0.4873880000000 1.0
C      1  0.4754840000000  0.3847170000000  0.5304310000000 1.0
C      1  0.5190780000000  0.6006590000000  0.4541840000000 1.0
C      1  0.4951480000000  0.5306170000000  0.5307680000000 1.0
C      1  0.5969880000000  0.4580540000000  0.5034300000000 1.0
C      1  0.4820280000000  0.5917490000000  0.4412700000000 1.0
C      1  0.4736510000000  0.5020460000000  0.4887060000000 1.0
C      1  0.4676710000000  0.5339320000000  0.5907390000000 1.0
C      1  0.4806870000000  0.4526790000000  0.4445140000000 1.0
C      1  0.5239430000000  0.6094590000000  0.5117190000000 1.0
C      1  0.4842160000000  0.5865920000000  0.5333770000000 1.0
C      1  0.4740540000000  0.5474530000000  0.4944410000000 1.0
C      1  0.4937670000000  0.4336610000000  0.5827580000000 1.0
C      1  0.5714550000000  0.4259700000000  0.5097530000000 1.0
C      1  0.5740960000000  0.4956110000000  0.4796430000000 1.0
C      1  0.5301320000000  0.4239390000000  0.5649380000000 1.0
C      1  0.5272430000000  0.5319950000000  0.4397920000000 1.0
C      1  0.4907790000000  0.5235510000000  0.5017970000000 1.0
C      1  0.5131430000000  0.5509640000000  0.5799920000000 1.0
C      1  0.4471580000000  0.5096710000000  0.4081050000000 1.0
C      1  0.4850100000000  0.4065230000000  0.4567970000000 1.0
C      1  0.5418880000000  0.5889890000000  0.4951570000000 1.0
C      1  0.4731910000000  0.4333120000000  0.4924420000000 1.0
C      1  0.4875870000000  0.3882120000000  0.5049480000000 1.0
C      1  0.4850970000000  0.4805610000000  0.5035270000000 1.0
C      1  0.5527760000000  0.5171900000000  0.5575800000000 1.0
C      1  0.5937110000000  0.5466750000000  0.5098160000000 1.0
C      1  0.4473390000000  0.4481100000000  0.5701410000000 1.0
C      1  0.4576100000000  0.4588600000000  0.5953630000000 1.0
C      1  0.4572140000000  0.5122010000000  0.5567320000000 1.0
C      1  0.5774450000000  0.5208490000000  0.4632750000000 1.0
C      1  0.5731670000000  0.4904880000000  0.5496600000000 1.0
C      1  0.5001450000000  0.6148470000000  0.4998660000000 1.0
C      1  0.5411520000000  0.4695340000000  0.5042120000000 1.0
C      1  0.5287040000000  0.4248950000000  0.4616640000000 1.0
C      1  0.5408290000000  0.4675050000000  0.5827010000000 1.0
C      1  0.5849780000000  0.4452770000000  0.4660740000000 1.0
C      1  0.5047720000000  0.4717280000000  0.4847660000000 1.0
C      1  0.5293550000000  0.4454770000000  0.5141870000000 1.0
C      1  0.4126350000000  0.5096060000000  0.4416460000000 1.0
C      1  0.5097640000000  0.5080970000000  0.5807000000000 1.0
C      1  0.4663430000000  0.4263330000000  0.5679550000000 1.0
C      1  0.5280990000000  0.5056570000000  0.4482440000000 1.0
C      1  0.5723120000000  0.4867750000000  0.4145900000000 1.0
C      1  0.5214820000000  0.5210410000000  0.4910840000000 1.0
C      1  0.5003330000000  0.3965210000000  0.4810320000000 1.0
C      1  0.4262010000000  0.5559970000000  0.4712470000000 1.0
C      1  0.5178160000000  0.5412280000000  0.4154150000000 1.0
C      1  0.5578330000000  0.4634010000000  0.4200660000000 1.0
C      1  0.4674470000000  0.4363570000000  0.5219460000000 1.0
C      1  0.5287890000000  0.5734250000000  0.5422840000000 1.0
C      1  0.4412100000000  0.5104650000000  0.5164190000000 1.0
C      1  0.5806690000000  0.4473170000000  0.5258250000000 1.0
C      1  0.5534580000000  0.5357320000000  0.5334790000000 1.0
C      1  0.5967840000000  0.5240760000000  0.5206440000000 1.0
C      1  0.5812080000000  0.5209620000000  0.4362520000000 1.0
C      1  0.5136440000000  0.4866210000000  0.4338170000000 1.0
C      1  0.4597740000000  0.5749890000000  0.4412620000000 1.0
C      1  0.5408470000000  0.5533610000000  0.4282390000000 1.0
C      1  0.5222260000000  0.5639710000000  0.4987260000000 1.0
C      1  0.5061880000000  0.4178960000000  0.4414250000000 1.0
C      1  0.4965120000000  0.4371500000000  0.4220420000000 1.0
C      1  0.4896080000000  0.4500450000000  0.4748920000000 1.0
C      1  0.4494090000000  0.4804050000000  0.4087430000000 1.0
C      1  0.4469480000000  0.4252220000000  0.4821600000000 1.0
C      1  0.5429270000000  0.5901210000000  0.4634070000000 1.0
C      1  0.5560100000000  0.5651910000000  0.5338290000000 1.0
C      1  0.5929930000000  0.4981640000000  0.5295250000000 1.0
C      1  0.4943990000000  0.4620190000000  0.5738290000000 1.0
C      1  0.4240180000000  0.4722060000000  0.4887500000000 1.0
C      1  0.4716580000000  0.5742700000000  0.5571640000000 1.0
C      1  0.4781210000000  0.4381410000000  0.6075300000000 1.0
C      1  0.4292040000000  0.4443830000000  0.4960380000000 1.0
C      1  0.5331850000000  0.4979480000000  0.5459060000000 1.0
C      1  0.4230260000000  0.4825240000000  0.4487950000000 1.0
C      1  0.4355080000000  0.4639770000000  0.5455980000000 1.0
C      1  0.5830720000000  0.5088790000000  0.4140980000000 1.0
C      1  0.4243150000000  0.5588630000000  0.5290470000000 1.0
C      1  0.4358880000000  0.4640920000000  0.4293090000000 1.0
C      1  0.5491350000000  0.4770310000000  0.4773640000000 1.0
C      1  0.5148060000000  0.5551860000000  0.5243130000000 1.0
C      1  0.4572290000000  0.4186920000000  0.4555200000000 1.0
END
