TITL C-4164233-775-395 34.5396342451999 125000 -11716.4480155847 0 0 81 (C1) n - 1
REM
REM in /home/nfs/bkarasulu/CARBON/AIRSS/Generating-Clusters/ReaxFF-fromJPCA2015/Units_Real/with-SteepDescent/Only-C1/SD-CG/Try1-3A/FIRE-CG
REM
REM
REM
REM
REM
REM ./C.cell (11c1c37f851c82e70ff6c80c92926a4b)
REM
REM compiler GCC version 9.2.1 20190827 (Red Hat 9.2.1-1)
REM options -cpp -mtune=generic -march=x86-64 -g -O0 -fpre-include=/usr/include/finclude/math-vector-fortran.h
REM seed -1384846145 -619443771 28850765 1946110386 1390523403 -940551712 1258146215 -1045617083 -2129579789 -395057124 283602477 -597554472 250132339 -1593241513 -873788261 -1158619952 212805504 -975542847 1951684537 -1746998457 1984397294 2041701669 1368191034 -1627945303 1305196575 1584901425 1285753310 439894953 1267778034 -1745067665 -1507317288 1716353326 2003911051
REM
CELL 1.54180   50.00000   50.00000   50.00000   90.00000   90.00000   90.00000
LATT -1
SFAC C  
C      1  0.4793250000000  0.4275810000000  0.5347680000000 1.0
C      1  0.4245920000000  0.5464330000000  0.5311110000000 1.0
C      1  0.5160110000000  0.5547650000000  0.4827080000000 1.0
C      1  0.5357680000000  0.5041840000000  0.4980760000000 1.0
C      1  0.4249190000000  0.5274680000000  0.5089790000000 1.0
C      1  0.5050450000000  0.4657770000000  0.5113650000000 1.0
C      1  0.4801740000000  0.4736560000000  0.4956260000000 1.0
C      1  0.4440920000000  0.5668010000000  0.5232560000000 1.0
C      1  0.4619640000000  0.4318030000000  0.4669780000000 1.0
C      1  0.4356470000000  0.5207350000000  0.4662160000000 1.0
C      1  0.4204510000000  0.5133270000000  0.5566690000000 1.0
C      1  0.4569670000000  0.4358710000000  0.5228080000000 1.0
C      1  0.4867950000000  0.5635240000000  0.4588980000000 1.0
C      1  0.4984670000000  0.5762100000000  0.5095790000000 1.0
C      1  0.4925920000000  0.4693760000000  0.4618030000000 1.0
C      1  0.4517860000000  0.5636280000000  0.4952820000000 1.0
C      1  0.4316460000000  0.5428670000000  0.4852110000000 1.0
C      1  0.4508340000000  0.4334410000000  0.4940840000000 1.0
C      1  0.4323610000000  0.5363910000000  0.5588560000000 1.0
C      1  0.5510160000000  0.5467080000000  0.5486180000000 1.0
C      1  0.4323100000000  0.4919570000000  0.4690890000000 1.0
C      1  0.5642150000000  0.4867630000000  0.5370310000000 1.0
C      1  0.4616910000000  0.5284110000000  0.4632140000000 1.0
C      1  0.5098980000000  0.4973420000000  0.5646130000000 1.0
C      1  0.5626890000000  0.5049170000000  0.4552520000000 1.0
C      1  0.4697520000000  0.4629680000000  0.5514910000000 1.0
C      1  0.5643320000000  0.4432540000000  0.5023930000000 1.0
C      1  0.5400100000000  0.4395740000000  0.4623880000000 1.0
C      1  0.4598050000000  0.4997220000000  0.4281110000000 1.0
C      1  0.4422530000000  0.5034430000000  0.5091250000000 1.0
C      1  0.4331360000000  0.4787060000000  0.4960930000000 1.0
C      1  0.4663760000000  0.4574470000000  0.4529790000000 1.0
C      1  0.5016150000000  0.5046880000000  0.4299130000000 1.0
C      1  0.5548070000000  0.5161600000000  0.5414300000000 1.0
C      1  0.5293640000000  0.4767490000000  0.4997250000000 1.0
C      1  0.4786930000000  0.5702830000000  0.4871920000000 1.0
C      1  0.5043810000000  0.5583370000000  0.5321370000000 1.0
C      1  0.4795020000000  0.4051360000000  0.4606830000000 1.0
C      1  0.4494750000000  0.4639070000000  0.5311750000000 1.0
C      1  0.4630700000000  0.4895540000000  0.5435600000000 1.0
C      1  0.4997850000000  0.5344710000000  0.4933270000000 1.0
C      1  0.4823820000000  0.5155020000000  0.4794800000000 1.0
C      1  0.5147010000000  0.5608000000000  0.4546110000000 1.0
C      1  0.5227070000000  0.5509850000000  0.5545260000000 1.0
C      1  0.5295560000000  0.5149810000000  0.5237890000000 1.0
C      1  0.4804960000000  0.5009940000000  0.5649680000000 1.0
C      1  0.5474910000000  0.4252940000000  0.4881380000000 1.0
C      1  0.5643660000000  0.5542490000000  0.5236890000000 1.0
C      1  0.4636050000000  0.5709130000000  0.5467050000000 1.0
C      1  0.5510990000000  0.4844460000000  0.4389230000000 1.0
C      1  0.4834190000000  0.5292440000000  0.5735080000000 1.0
C      1  0.5089680000000  0.4081000000000  0.5161110000000 1.0
C      1  0.4712570000000  0.5446450000000  0.4432570000000 1.0
C      1  0.4865460000000  0.4092810000000  0.5213060000000 1.0
C      1  0.5125890000000  0.4456620000000  0.4546730000000 1.0
C      1  0.5010360000000  0.4976530000000  0.4583110000000 1.0
C      1  0.5842840000000  0.5117540000000  0.5024660000000 1.0
C      1  0.5048610000000  0.5310580000000  0.5217130000000 1.0
C      1  0.4474430000000  0.4797920000000  0.4471910000000 1.0
C      1  0.5338800000000  0.4188440000000  0.5131370000000 1.0
C      1  0.5795240000000  0.5294300000000  0.5244590000000 1.0
C      1  0.5615680000000  0.5177330000000  0.4822440000000 1.0
C      1  0.4543300000000  0.4605260000000  0.4922770000000 1.0
C      1  0.5463830000000  0.4645870000000  0.5429800000000 1.0
C      1  0.5204240000000  0.4716960000000  0.5544790000000 1.0
C      1  0.5345320000000  0.5159130000000  0.4543460000000 1.0
C      1  0.5125550000000  0.5274050000000  0.5697090000000 1.0
C      1  0.5252420000000  0.5766420000000  0.4995230000000 1.0
C      1  0.4990750000000  0.4566210000000  0.5391420000000 1.0
C      1  0.4704950000000  0.5010730000000  0.5037280000000 1.0
C      1  0.5771480000000  0.4853150000000  0.5112330000000 1.0
C      1  0.4777180000000  0.5224820000000  0.4244360000000 1.0
C      1  0.5546920000000  0.5466620000000  0.4745800000000 1.0
C      1  0.5370520000000  0.5428500000000  0.4505310000000 1.0
C      1  0.5020090000000  0.4217430000000  0.4576350000000 1.0
C      1  0.5552260000000  0.4643790000000  0.4588110000000 1.0
C      1  0.5601560000000  0.4682020000000  0.4919700000000 1.0
C      1  0.5506330000000  0.5627530000000  0.4981470000000 1.0
C      1  0.5307180000000  0.5083840000000  0.4304540000000 1.0
C      1  0.4623130000000  0.5475300000000  0.5642440000000 1.0
C      1  0.5499070000000  0.4395410000000  0.5267570000000 1.0
END
