TITL C-4164245-3996-274 37.7590116154107 125000 -18180.4166781473 0 0 124 (C1) n - 1
REM
REM in /home/nfs/bkarasulu/CARBON/AIRSS/Generating-Clusters/ReaxFF-fromJPCA2015/Units_Real/with-SteepDescent/Only-C1/SD-CG/Try1-3A/FIRE-CG
REM
REM
REM
REM
REM
REM ./C.cell (11c1c37f851c82e70ff6c80c92926a4b)
REM
REM compiler GCC version 9.2.1 20190827 (Red Hat 9.2.1-1)
REM options -cpp -mtune=generic -march=x86-64 -g -O0 -fpre-include=/usr/include/finclude/math-vector-fortran.h
REM seed -98481839 -909780822 1580823380 1580992317 217227132 -2126360077 -1623854667 301995168 -763933519 1189290581 -1457564152 -1360164311 -365608993 -750008231 -510111829 -1839247639 654739424 1968192190 -214365657 2048545367 811770990 421731747 1043600546 2029576674 -1057773843 1333385356 2084632978 502666666 -960775582 2117389352 235041223 -817472620 -302231263
REM
CELL 1.54180   50.00000   50.00000   50.00000   90.00000   90.00000   90.00000
LATT -1
SFAC C  
C      1  0.5694610000000  0.4893000000000  0.5375920000000 1.0
C      1  0.4708210000000  0.4223700000000  0.4557270000000 1.0
C      1  0.4777550000000  0.5018550000000  0.5451330000000 1.0
C      1  0.5268600000000  0.5237130000000  0.4314750000000 1.0
C      1  0.5216930000000  0.5683540000000  0.4418200000000 1.0
C      1  0.4406380000000  0.5793720000000  0.4933020000000 1.0
C      1  0.4566650000000  0.4182060000000  0.5055730000000 1.0
C      1  0.4508720000000  0.5450170000000  0.4364450000000 1.0
C      1  0.5334190000000  0.5530870000000  0.5607220000000 1.0
C      1  0.4727710000000  0.5864410000000  0.5282640000000 1.0
C      1  0.4568050000000  0.5542150000000  0.5640670000000 1.0
C      1  0.4631960000000  0.4722120000000  0.4217190000000 1.0
C      1  0.5577600000000  0.4807360000000  0.4767860000000 1.0
C      1  0.5453540000000  0.4869120000000  0.5210660000000 1.0
C      1  0.4528840000000  0.4448260000000  0.4588030000000 1.0
C      1  0.4164050000000  0.5193680000000  0.4934640000000 1.0
C      1  0.4875330000000  0.4411540000000  0.5793910000000 1.0
C      1  0.4949950000000  0.5323650000000  0.5758320000000 1.0
C      1  0.4990930000000  0.4209450000000  0.5650330000000 1.0
C      1  0.4841970000000  0.5282550000000  0.5479830000000 1.0
C      1  0.5048360000000  0.5034810000000  0.5024200000000 1.0
C      1  0.5074870000000  0.4267040000000  0.4746070000000 1.0
C      1  0.4681860000000  0.5885020000000  0.4991250000000 1.0
C      1  0.5251480000000  0.5034860000000  0.5427180000000 1.0
C      1  0.4391980000000  0.4285980000000  0.5241380000000 1.0
C      1  0.5522950000000  0.5302980000000  0.4296180000000 1.0
C      1  0.4253710000000  0.5582710000000  0.4768940000000 1.0
C      1  0.5201420000000  0.5788520000000  0.5207460000000 1.0
C      1  0.5845130000000  0.4685650000000  0.5476610000000 1.0
C      1  0.4138670000000  0.4739240000000  0.4799210000000 1.0
C      1  0.5863790000000  0.5212860000000  0.4639290000000 1.0
C      1  0.5121580000000  0.5505260000000  0.5168350000000 1.0
C      1  0.4608140000000  0.4920330000000  0.5239530000000 1.0
C      1  0.4835660000000  0.5590970000000  0.5755130000000 1.0
C      1  0.4756840000000  0.5061720000000  0.5006370000000 1.0
C      1  0.4196850000000  0.4481790000000  0.4931940000000 1.0
C      1  0.5338770000000  0.4128440000000  0.5443180000000 1.0
C      1  0.4206090000000  0.4702480000000  0.5437480000000 1.0
C      1  0.4965810000000  0.4189920000000  0.4467600000000 1.0
C      1  0.5705000000000  0.5097310000000  0.4409810000000 1.0
C      1  0.4361050000000  0.5124520000000  0.4728050000000 1.0
C      1  0.5968570000000  0.5283230000000  0.5106630000000 1.0
C      1  0.4901520000000  0.5175570000000  0.4429830000000 1.0
C      1  0.4607830000000  0.5002900000000  0.4311390000000 1.0
C      1  0.4032910000000  0.4973680000000  0.5591030000000 1.0
C      1  0.5031380000000  0.4851880000000  0.5843160000000 1.0
C      1  0.5557690000000  0.4431870000000  0.4422450000000 1.0
C      1  0.5394150000000  0.4580620000000  0.4844910000000 1.0
C      1  0.4247960000000  0.5433690000000  0.4504590000000 1.0
C      1  0.5292710000000  0.4279680000000  0.5672790000000 1.0
C      1  0.5402150000000  0.4646960000000  0.4093730000000 1.0
C      1  0.5374760000000  0.4131650000000  0.5165670000000 1.0
C      1  0.4719540000000  0.5357040000000  0.4999720000000 1.0
C      1  0.5611540000000  0.4315980000000  0.5192780000000 1.0
C      1  0.5475020000000  0.5041630000000  0.4920770000000 1.0
C      1  0.4113280000000  0.4928320000000  0.5019610000000 1.0
C      1  0.5526800000000  0.4903310000000  0.4501140000000 1.0
C      1  0.4982440000000  0.4536280000000  0.4806640000000 1.0
C      1  0.5060510000000  0.5549360000000  0.4207100000000 1.0
C      1  0.5545530000000  0.5527110000000  0.4751500000000 1.0
C      1  0.4549190000000  0.4767470000000  0.5808150000000 1.0
C      1  0.5847860000000  0.4658350000000  0.4892130000000 1.0
C      1  0.5648720000000  0.5265910000000  0.4837880000000 1.0
C      1  0.5252480000000  0.5071050000000  0.4095010000000 1.0
C      1  0.5101740000000  0.5856890000000  0.4641040000000 1.0
C      1  0.4997760000000  0.5860880000000  0.5402910000000 1.0
C      1  0.5154020000000  0.4806690000000  0.4061050000000 1.0
C      1  0.4314760000000  0.5671830000000  0.5180930000000 1.0
C      1  0.4511260000000  0.5703110000000  0.5399830000000 1.0
C      1  0.5015830000000  0.4889030000000  0.5547530000000 1.0
C      1  0.4173450000000  0.5136340000000  0.4504890000000 1.0
C      1  0.4657710000000  0.4650700000000  0.5331040000000 1.0
C      1  0.4931920000000  0.4564060000000  0.5294100000000 1.0
C      1  0.5430760000000  0.4543810000000  0.5647450000000 1.0
C      1  0.5084600000000  0.5701290000000  0.5635030000000 1.0
C      1  0.5596490000000  0.5680950000000  0.4999780000000 1.0
C      1  0.5212060000000  0.6002810000000  0.5005290000000 1.0
C      1  0.5456710000000  0.5060220000000  0.5650380000000 1.0
C      1  0.4795340000000  0.4636510000000  0.5907620000000 1.0
C      1  0.5045230000000  0.4394340000000  0.4256630000000 1.0
C      1  0.5162970000000  0.5068440000000  0.4535850000000 1.0
C      1  0.6040890000000  0.5225890000000  0.4855670000000 1.0
C      1  0.4618930000000  0.5270850000000  0.4163280000000 1.0
C      1  0.4195550000000  0.4829050000000  0.4514510000000 1.0
C      1  0.4707750000000  0.4899390000000  0.4786400000000 1.0
C      1  0.4862580000000  0.4113310000000  0.5131110000000 1.0
C      1  0.4917550000000  0.4277890000000  0.5361620000000 1.0
C      1  0.5669390000000  0.5531610000000  0.5238770000000 1.0
C      1  0.5117710000000  0.4114470000000  0.4993240000000 1.0
C      1  0.4786340000000  0.5506870000000  0.4775480000000 1.0
C      1  0.4842530000000  0.5446320000000  0.5244840000000 1.0
C      1  0.4228170000000  0.5161400000000  0.5518670000000 1.0
C      1  0.4745430000000  0.5398460000000  0.4528050000000 1.0
C      1  0.4391020000000  0.4655520000000  0.4374610000000 1.0
C      1  0.4580980000000  0.5061440000000  0.5840810000000 1.0
C      1  0.5533410000000  0.5339500000000  0.5570830000000 1.0
C      1  0.4470150000000  0.4639590000000  0.5558270000000 1.0
C      1  0.4291290000000  0.4951710000000  0.5268560000000 1.0
C      1  0.4859980000000  0.5093000000000  0.5910470000000 1.0
C      1  0.4148940000000  0.5474360000000  0.5018030000000 1.0
C      1  0.5306130000000  0.6012100000000  0.4753280000000 1.0
C      1  0.4920640000000  0.5295720000000  0.4148140000000 1.0
C      1  0.5470160000000  0.5542660000000  0.4471210000000 1.0
C      1  0.4443340000000  0.5277870000000  0.5690350000000 1.0
C      1  0.5601970000000  0.4708510000000  0.4311940000000 1.0
C      1  0.5545070000000  0.4370450000000  0.4711070000000 1.0
C      1  0.5217800000000  0.5100610000000  0.4814440000000 1.0
C      1  0.4916300000000  0.4636470000000  0.4174340000000 1.0
C      1  0.5301340000000  0.4624420000000  0.5120360000000 1.0
C      1  0.4861390000000  0.5777360000000  0.4787130000000 1.0
C      1  0.5959570000000  0.4945310000000  0.5344510000000 1.0
C      1  0.5040670000000  0.4693520000000  0.5051320000000 1.0
C      1  0.5342090000000  0.4394160000000  0.4223460000000 1.0
C      1  0.5744620000000  0.4383310000000  0.4933490000000 1.0
C      1  0.4550920000000  0.4969660000000  0.4612950000000 1.0
C      1  0.5963070000000  0.4805100000000  0.5098020000000 1.0
C      1  0.5493770000000  0.5959340000000  0.4966080000000 1.0
C      1  0.5815530000000  0.5324670000000  0.5344180000000 1.0
C      1  0.5193000000000  0.5225040000000  0.5199440000000 1.0
C      1  0.5640740000000  0.4481230000000  0.5444440000000 1.0
C      1  0.4186200000000  0.4471750000000  0.5231390000000 1.0
C      1  0.4765670000000  0.4652440000000  0.4694210000000 1.0
C      1  0.5356800000000  0.4809960000000  0.5762520000000 1.0
C      1  0.4405730000000  0.4296800000000  0.4831380000000 1.0
END
