TITL C-4164234-2335-535 61.2841843403147 125000 -23049.0385531503 0 0 158 (C1) n - 1
REM
REM in /home/nfs/bkarasulu/CARBON/AIRSS/Generating-Clusters/ReaxFF-fromJPCA2015/Units_Real/with-SteepDescent/Only-C1/SD-CG/Try1-3A/FIRE-CG
REM
REM
REM
REM
REM
REM ./C.cell (11c1c37f851c82e70ff6c80c92926a4b)
REM
REM compiler GCC version 9.2.1 20190827 (Red Hat 9.2.1-1)
REM options -cpp -mtune=generic -march=x86-64 -g -O0 -fpre-include=/usr/include/finclude/math-vector-fortran.h
REM seed 711835988 1970538781 -1472529759 -396000401 -1085793120 147197093 -1607595547 584657580 -111796989 351124856 1585494240 203506661 124183706 -362539804 1940215841 561114600 -2060039252 -498631338 929101542 -93153987 -287002905 -1515386748 -398442972 1481296641 -124492767 1443456636 -1861375070 1324660295 747869008 748881571 330887904 -102478820 312144839
REM
CELL 1.54180   50.00000   50.00000   50.00000   90.00000   90.00000   90.00000
LATT -1
SFAC C  
C      1  0.5648080000000  0.5359460000000  0.5489220000000 1.0
C      1  0.6050730000000  0.5159160000000  0.4950390000000 1.0
C      1  0.4079400000000  0.5292340000000  0.4907830000000 1.0
C      1  0.5089510000000  0.6008470000000  0.5132270000000 1.0
C      1  0.4883420000000  0.6040390000000  0.4912320000000 1.0
C      1  0.4301450000000  0.4614450000000  0.4426070000000 1.0
C      1  0.4637320000000  0.4688050000000  0.4908950000000 1.0
C      1  0.5550700000000  0.5638600000000  0.5547040000000 1.0
C      1  0.4546260000000  0.4766680000000  0.6042260000000 1.0
C      1  0.4744010000000  0.5918140000000  0.5487620000000 1.0
C      1  0.5454500000000  0.4230500000000  0.5389440000000 1.0
C      1  0.5006660000000  0.4445010000000  0.5451010000000 1.0
C      1  0.5784380000000  0.5138020000000  0.5616590000000 1.0
C      1  0.4674850000000  0.5430920000000  0.5803940000000 1.0
C      1  0.5603350000000  0.4017550000000  0.4837050000000 1.0
C      1  0.5072890000000  0.5515380000000  0.5245000000000 1.0
C      1  0.4679450000000  0.5521090000000  0.4899490000000 1.0
C      1  0.5325130000000  0.5675820000000  0.5772060000000 1.0
C      1  0.5610450000000  0.4342990000000  0.4359810000000 1.0
C      1  0.4851790000000  0.5947650000000  0.4380540000000 1.0
C      1  0.4609920000000  0.5128790000000  0.4399760000000 1.0
C      1  0.4322150000000  0.5250520000000  0.5057650000000 1.0
C      1  0.5395110000000  0.4821550000000  0.4084050000000 1.0
C      1  0.5597440000000  0.4428150000000  0.5516560000000 1.0
C      1  0.4410600000000  0.5732060000000  0.4959510000000 1.0
C      1  0.5761400000000  0.5255140000000  0.4589220000000 1.0
C      1  0.5198730000000  0.5031690000000  0.4016180000000 1.0
C      1  0.4971410000000  0.4026960000000  0.4429590000000 1.0
C      1  0.5662570000000  0.4851620000000  0.4219330000000 1.0
C      1  0.5015560000000  0.5990520000000  0.5423760000000 1.0
C      1  0.4646680000000  0.5778520000000  0.4501070000000 1.0
C      1  0.4897920000000  0.5113130000000  0.4461360000000 1.0
C      1  0.5464960000000  0.5893250000000  0.4711170000000 1.0
C      1  0.5210510000000  0.5444850000000  0.5902620000000 1.0
C      1  0.5041610000000  0.4204640000000  0.5617430000000 1.0
C      1  0.4801840000000  0.4442810000000  0.4521480000000 1.0
C      1  0.4412200000000  0.4887810000000  0.5342120000000 1.0
C      1  0.4815110000000  0.5597260000000  0.5141000000000 1.0
C      1  0.4603000000000  0.5355680000000  0.4206710000000 1.0
C      1  0.5235650000000  0.5587210000000  0.4147340000000 1.0
C      1  0.5514750000000  0.4963380000000  0.5109150000000 1.0
C      1  0.5059450000000  0.4410800000000  0.5164420000000 1.0
C      1  0.4458270000000  0.5623100000000  0.5715700000000 1.0
C      1  0.5970640000000  0.4624110000000  0.5140640000000 1.0
C      1  0.5322700000000  0.4364690000000  0.4293240000000 1.0
C      1  0.4911590000000  0.4523360000000  0.5904270000000 1.0
C      1  0.4274150000000  0.4800300000000  0.4675200000000 1.0
C      1  0.4425450000000  0.5104240000000  0.4625550000000 1.0
C      1  0.5852320000000  0.4987560000000  0.4738460000000 1.0
C      1  0.4998620000000  0.3925640000000  0.4681160000000 1.0
C      1  0.4835000000000  0.5250600000000  0.5620100000000 1.0
C      1  0.4779940000000  0.4257210000000  0.4312660000000 1.0
C      1  0.4278210000000  0.5547830000000  0.5490820000000 1.0
C      1  0.4609710000000  0.5961270000000  0.4927910000000 1.0
C      1  0.5160490000000  0.4244010000000  0.4501440000000 1.0
C      1  0.4203880000000  0.5064890000000  0.5756520000000 1.0
C      1  0.4952830000000  0.4024700000000  0.5251950000000 1.0
C      1  0.4759520000000  0.4573670000000  0.5391310000000 1.0
C      1  0.5100280000000  0.5788360000000  0.4324600000000 1.0
C      1  0.4419140000000  0.5022020000000  0.5963360000000 1.0
C      1  0.5744640000000  0.5815810000000  0.4679060000000 1.0
C      1  0.4812390000000  0.4056870000000  0.5507840000000 1.0
C      1  0.5740210000000  0.5125440000000  0.4282980000000 1.0
C      1  0.4327470000000  0.5147250000000  0.5313970000000 1.0
C      1  0.5463690000000  0.4680960000000  0.4665450000000 1.0
C      1  0.4606220000000  0.5243640000000  0.6021990000000 1.0
C      1  0.4185430000000  0.4520280000000  0.5648120000000 1.0
C      1  0.5310060000000  0.5581350000000  0.5078460000000 1.0
C      1  0.5575720000000  0.5094070000000  0.5797280000000 1.0
C      1  0.6022440000000  0.4906810000000  0.5182310000000 1.0
C      1  0.5659010000000  0.4780960000000  0.4864570000000 1.0
C      1  0.5976520000000  0.4884490000000  0.4495250000000 1.0
C      1  0.5988310000000  0.5377600000000  0.4752360000000 1.0
C      1  0.5064740000000  0.5297570000000  0.5444270000000 1.0
C      1  0.4241540000000  0.4713830000000  0.5172760000000 1.0
C      1  0.4164330000000  0.4276560000000  0.5293980000000 1.0
C      1  0.5913650000000  0.5327980000000  0.5148680000000 1.0
C      1  0.5225010000000  0.4609760000000  0.5051520000000 1.0
C      1  0.5325690000000  0.4987950000000  0.5863230000000 1.0
C      1  0.5387950000000  0.4520530000000  0.5713170000000 1.0
C      1  0.3902430000000  0.5058530000000  0.4939160000000 1.0
C      1  0.5355950000000  0.4883160000000  0.4483150000000 1.0
C      1  0.4967820000000  0.4631550000000  0.3999060000000 1.0
C      1  0.3991950000000  0.4825890000000  0.4792530000000 1.0
C      1  0.4376380000000  0.4076440000000  0.5001140000000 1.0
C      1  0.5639970000000  0.5276360000000  0.5212480000000 1.0
C      1  0.4361680000000  0.4634390000000  0.4912980000000 1.0
C      1  0.4327560000000  0.5500740000000  0.4235980000000 1.0
C      1  0.4654570000000  0.5809710000000  0.5692490000000 1.0
C      1  0.4801460000000  0.4872670000000  0.6139580000000 1.0
C      1  0.4955070000000  0.4813280000000  0.5891670000000 1.0
C      1  0.4210450000000  0.5268900000000  0.5531200000000 1.0
C      1  0.5233710000000  0.5951140000000  0.4536340000000 1.0
C      1  0.4066890000000  0.4522980000000  0.5370640000000 1.0
C      1  0.5422880000000  0.4009720000000  0.5042670000000 1.0
C      1  0.5108890000000  0.5022240000000  0.5354860000000 1.0
C      1  0.5524210000000  0.5840760000000  0.5337340000000 1.0
C      1  0.4740510000000  0.4669930000000  0.4655400000000 1.0
C      1  0.5777660000000  0.4582020000000  0.4319010000000 1.0
C      1  0.4855810000000  0.5485780000000  0.4206480000000 1.0
C      1  0.5339840000000  0.4794170000000  0.5633230000000 1.0
C      1  0.5075960000000  0.4891730000000  0.4442960000000 1.0
C      1  0.4800960000000  0.5577380000000  0.4645200000000 1.0
C      1  0.5512270000000  0.5606190000000  0.4249850000000 1.0
C      1  0.4983720000000  0.6064110000000  0.4618040000000 1.0
C      1  0.5095460000000  0.5209520000000  0.4904960000000 1.0
C      1  0.4624820000000  0.4802590000000  0.5509530000000 1.0
C      1  0.4957480000000  0.5407930000000  0.4465570000000 1.0
C      1  0.4537120000000  0.4155490000000  0.5533210000000 1.0
C      1  0.4191270000000  0.5333000000000  0.4629000000000 1.0
C      1  0.5327760000000  0.4834330000000  0.5305350000000 1.0
C      1  0.5252410000000  0.4517290000000  0.4776790000000 1.0
C      1  0.5950700000000  0.4613860000000  0.4556860000000 1.0
C      1  0.4096970000000  0.5353950000000  0.4306400000000 1.0
C      1  0.5278240000000  0.5430160000000  0.4828860000000 1.0
C      1  0.4505010000000  0.4306900000000  0.4234550000000 1.0
C      1  0.5274050000000  0.4038240000000  0.5270160000000 1.0
C      1  0.5877840000000  0.5626080000000  0.4851850000000 1.0
C      1  0.5355940000000  0.5887510000000  0.5079990000000 1.0
C      1  0.4641690000000  0.5755200000000  0.5300830000000 1.0
C      1  0.5822570000000  0.4615210000000  0.5399360000000 1.0
C      1  0.4812220000000  0.4962400000000  0.5668740000000 1.0
C      1  0.5149910000000  0.4367910000000  0.5830880000000 1.0
C      1  0.4613450000000  0.4509990000000  0.5903950000000 1.0
C      1  0.5300490000000  0.5301080000000  0.4058430000000 1.0
C      1  0.4421320000000  0.4196500000000  0.4734580000000 1.0
C      1  0.5864310000000  0.4531060000000  0.4860000000000 1.0
C      1  0.3964380000000  0.4805900000000  0.5077120000000 1.0
C      1  0.5574290000000  0.5734560000000  0.4494600000000 1.0
C      1  0.5575830000000  0.5333170000000  0.4154950000000 1.0
C      1  0.5184150000000  0.5846060000000  0.5603950000000 1.0
C      1  0.4351130000000  0.4080610000000  0.5303430000000 1.0
C      1  0.4481040000000  0.4604290000000  0.4190870000000 1.0
C      1  0.5485470000000  0.5353390000000  0.4643750000000 1.0
C      1  0.4729390000000  0.4754450000000  0.4121590000000 1.0
C      1  0.4884140000000  0.4965670000000  0.5183520000000 1.0
C      1  0.4927880000000  0.4916450000000  0.3967330000000 1.0
C      1  0.5692310000000  0.4156990000000  0.4568420000000 1.0
C      1  0.4832940000000  0.5153730000000  0.4981800000000 1.0
C      1  0.4862360000000  0.5156200000000  0.6129080000000 1.0
C      1  0.5284300000000  0.4991070000000  0.4923040000000 1.0
C      1  0.4176290000000  0.4792780000000  0.5704790000000 1.0
C      1  0.4585800000000  0.4286970000000  0.4959740000000 1.0
C      1  0.5900280000000  0.4899370000000  0.5445630000000 1.0
C      1  0.5127640000000  0.5212570000000  0.6000030000000 1.0
C      1  0.5721150000000  0.5532380000000  0.5074420000000 1.0
C      1  0.4259060000000  0.5615730000000  0.4702030000000 1.0
C      1  0.4449900000000  0.4368260000000  0.5709520000000 1.0
C      1  0.4865210000000  0.4209980000000  0.5048590000000 1.0
C      1  0.5010910000000  0.4642820000000  0.4585730000000 1.0
C      1  0.5241780000000  0.4579210000000  0.4098180000000 1.0
C      1  0.4369850000000  0.5689050000000  0.5259670000000 1.0
C      1  0.5385470000000  0.5089180000000  0.4661480000000 1.0
C      1  0.4562050000000  0.5231500000000  0.4892040000000 1.0
C      1  0.5805100000000  0.4237760000000  0.4812990000000 1.0
C      1  0.4786940000000  0.4708710000000  0.5142720000000 1.0
C      1  0.4361730000000  0.5711890000000  0.4455330000000 1.0
C      1  0.4330950000000  0.4329070000000  0.4477800000000 1.0
END
