TITL C-4164237-1827-645 -8.67861257776965 125000 -23993.1093737269 0 0 157 (C1) n - 1
REM
REM in /home/nfs/bkarasulu/CARBON/AIRSS/Generating-Clusters/ReaxFF-fromJPCA2015/Units_Real/with-SteepDescent/Only-C1/SD-CG/Try1-3A/FIRE-CG
REM
REM
REM
REM
REM
REM ./C.cell (11c1c37f851c82e70ff6c80c92926a4b)
REM
REM compiler GCC version 9.2.1 20190827 (Red Hat 9.2.1-1)
REM options -cpp -mtune=generic -march=x86-64 -g -O0 -fpre-include=/usr/include/finclude/math-vector-fortran.h
REM seed -1589890536 1055445259 -1325251619 -1521649093 -627390583 1717117386 -107740893 350641307 -2112939851 -1895024145 -1575739679 1667769857 720892071 -279551588 -697696845 -913974347 -1485113357 -1072677564 1811049175 458380414 1300013249 890233486 2633967 517231877 1083388440 1398305677 1215520998 -1014080006 -772487813 2100763587 1525988939 -9490303 -1002099024
REM
CELL 1.54180   50.00000   50.00000   50.00000   90.00000   90.00000   90.00000
LATT -1
SFAC C  
C      1  0.4911750000000  0.4805020000000  0.3985570000000 1.0
C      1  0.3953600000000  0.4672900000000  0.5065860000000 1.0
C      1  0.5618650000000  0.5906140000000  0.5037270000000 1.0
C      1  0.4042280000000  0.5472760000000  0.4982480000000 1.0
C      1  0.5474810000000  0.4859090000000  0.5915270000000 1.0
C      1  0.4566360000000  0.4577270000000  0.4865460000000 1.0
C      1  0.4844770000000  0.5815680000000  0.5761650000000 1.0
C      1  0.5996980000000  0.4695290000000  0.4897620000000 1.0
C      1  0.4773090000000  0.5550290000000  0.5876240000000 1.0
C      1  0.5486890000000  0.5121780000000  0.4304080000000 1.0
C      1  0.4736260000000  0.4704280000000  0.4637540000000 1.0
C      1  0.5114740000000  0.5890030000000  0.5781740000000 1.0
C      1  0.5068800000000  0.4932330000000  0.5536750000000 1.0
C      1  0.4946810000000  0.4927940000000  0.6136500000000 1.0
C      1  0.4584350000000  0.4980490000000  0.5794600000000 1.0
C      1  0.5664570000000  0.4708720000000  0.4188070000000 1.0
C      1  0.4696610000000  0.4626170000000  0.5159820000000 1.0
C      1  0.4718600000000  0.4286330000000  0.4145180000000 1.0
C      1  0.4556800000000  0.5340020000000  0.5166610000000 1.0
C      1  0.5228200000000  0.5509320000000  0.4338420000000 1.0
C      1  0.4085000000000  0.4416500000000  0.5020340000000 1.0
C      1  0.4874830000000  0.4941000000000  0.4716030000000 1.0
C      1  0.5960510000000  0.5016880000000  0.4468670000000 1.0
C      1  0.4656810000000  0.5487220000000  0.4222850000000 1.0
C      1  0.5377660000000  0.5783520000000  0.4342910000000 1.0
C      1  0.5962540000000  0.4756420000000  0.4617280000000 1.0
C      1  0.5426210000000  0.4024260000000  0.5270380000000 1.0
C      1  0.4293590000000  0.5091900000000  0.5737200000000 1.0
C      1  0.5467640000000  0.5423930000000  0.4777780000000 1.0
C      1  0.5776960000000  0.5360690000000  0.5514190000000 1.0
C      1  0.5243830000000  0.3940420000000  0.4818090000000 1.0
C      1  0.5639950000000  0.5663280000000  0.4381290000000 1.0
C      1  0.4319730000000  0.5060340000000  0.4476620000000 1.0
C      1  0.5751200000000  0.4975420000000  0.4257250000000 1.0
C      1  0.5199040000000  0.4831450000000  0.4008710000000 1.0
C      1  0.5882870000000  0.5180150000000  0.4972630000000 1.0
C      1  0.4856910000000  0.4289860000000  0.5684100000000 1.0
C      1  0.5262870000000  0.4231230000000  0.4887420000000 1.0
C      1  0.4242360000000  0.4344960000000  0.5259650000000 1.0
C      1  0.5789420000000  0.4606030000000  0.4435630000000 1.0
C      1  0.6036980000000  0.4932200000000  0.5067670000000 1.0
C      1  0.5471220000000  0.5966160000000  0.5259250000000 1.0
C      1  0.4235240000000  0.4609690000000  0.4332070000000 1.0
C      1  0.4553820000000  0.4678290000000  0.5822690000000 1.0
C      1  0.5387850000000  0.5651580000000  0.5595020000000 1.0
C      1  0.4784900000000  0.5016800000000  0.5519850000000 1.0
C      1  0.4460810000000  0.4958560000000  0.4046050000000 1.0
C      1  0.3962840000000  0.5197960000000  0.5075470000000 1.0
C      1  0.5119330000000  0.5166430000000  0.6126880000000 1.0
C      1  0.4912840000000  0.4953460000000  0.5005530000000 1.0
C      1  0.4145810000000  0.4369450000000  0.4472180000000 1.0
C      1  0.4420990000000  0.4684600000000  0.4118990000000 1.0
C      1  0.4621970000000  0.5937530000000  0.4912100000000 1.0
C      1  0.4833400000000  0.4578140000000  0.4400140000000 1.0
C      1  0.5535370000000  0.3928820000000  0.4882350000000 1.0
C      1  0.4960150000000  0.4133400000000  0.5163530000000 1.0
C      1  0.5221690000000  0.6018110000000  0.5402920000000 1.0
C      1  0.5869400000000  0.4491190000000  0.5083660000000 1.0
C      1  0.4838910000000  0.4001020000000  0.4561810000000 1.0
C      1  0.4612020000000  0.5374870000000  0.4704100000000 1.0
C      1  0.4215410000000  0.4560880000000  0.5441100000000 1.0
C      1  0.5186730000000  0.4712030000000  0.5382690000000 1.0
C      1  0.5807220000000  0.5713930000000  0.4616660000000 1.0
C      1  0.4103590000000  0.5565850000000  0.4717910000000 1.0
C      1  0.4125330000000  0.4858770000000  0.5796370000000 1.0
C      1  0.5138530000000  0.4255770000000  0.5606580000000 1.0
C      1  0.5274530000000  0.5140040000000  0.5549640000000 1.0
C      1  0.4749220000000  0.5566500000000  0.4509960000000 1.0
C      1  0.4374370000000  0.5443790000000  0.4222830000000 1.0
C      1  0.5834720000000  0.5538850000000  0.5285690000000 1.0
C      1  0.4639480000000  0.4856990000000  0.5317130000000 1.0
C      1  0.5397450000000  0.4618550000000  0.4093130000000 1.0
C      1  0.5160780000000  0.5141190000000  0.5035670000000 1.0
C      1  0.5573140000000  0.5754830000000  0.4795140000000 1.0
C      1  0.5309660000000  0.5916970000000  0.5656780000000 1.0
C      1  0.4287890000000  0.4608740000000  0.5718820000000 1.0
C      1  0.4482840000000  0.4156230000000  0.5297170000000 1.0
C      1  0.4313250000000  0.5157770000000  0.4206470000000 1.0
C      1  0.5670030000000  0.3983640000000  0.5145750000000 1.0
C      1  0.5992220000000  0.5521000000000  0.4742650000000 1.0
C      1  0.5417990000000  0.4980400000000  0.5001910000000 1.0
C      1  0.5259000000000  0.4382510000000  0.4201980000000 1.0
C      1  0.5301960000000  0.4968370000000  0.4506810000000 1.0
C      1  0.4661610000000  0.5825210000000  0.4656170000000 1.0
C      1  0.3887480000000  0.4900290000000  0.4643160000000 1.0
C      1  0.4339370000000  0.4751940000000  0.4824490000000 1.0
C      1  0.5380160000000  0.5923810000000  0.4598590000000 1.0
C      1  0.5115020000000  0.4535100000000  0.4412700000000 1.0
C      1  0.5967110000000  0.5451690000000  0.5039320000000 1.0
C      1  0.4083340000000  0.5136020000000  0.5320720000000 1.0
C      1  0.4963220000000  0.5551590000000  0.5007640000000 1.0
C      1  0.5584870000000  0.5461780000000  0.5703130000000 1.0
C      1  0.4474630000000  0.4283580000000  0.4785940000000 1.0
C      1  0.4656620000000  0.4060280000000  0.4801670000000 1.0
C      1  0.5400810000000  0.5262620000000  0.5770210000000 1.0
C      1  0.4743010000000  0.5031720000000  0.3991300000000 1.0
C      1  0.5878980000000  0.4207050000000  0.5112000000000 1.0
C      1  0.4689600000000  0.4047260000000  0.5095570000000 1.0
C      1  0.5607490000000  0.4588100000000  0.5563530000000 1.0
C      1  0.5120150000000  0.5334260000000  0.4094910000000 1.0
C      1  0.5047210000000  0.4366500000000  0.5012580000000 1.0
C      1  0.4661940000000  0.4221520000000  0.5489220000000 1.0
C      1  0.4361630000000  0.5558490000000  0.5551690000000 1.0
C      1  0.4184310000000  0.4292860000000  0.4762640000000 1.0
C      1  0.4420080000000  0.5815830000000  0.5115740000000 1.0
C      1  0.4597200000000  0.5440990000000  0.5670230000000 1.0
C      1  0.4749340000000  0.5342920000000  0.5416570000000 1.0
C      1  0.5276980000000  0.4646350000000  0.5896120000000 1.0
C      1  0.4878770000000  0.5335840000000  0.6048930000000 1.0
C      1  0.4986840000000  0.4647060000000  0.5130180000000 1.0
C      1  0.4219940000000  0.5295590000000  0.5530610000000 1.0
C      1  0.5291700000000  0.5253120000000  0.5288460000000 1.0
C      1  0.4963130000000  0.5516060000000  0.5306360000000 1.0
C      1  0.5537510000000  0.4208320000000  0.4809030000000 1.0
C      1  0.4763220000000  0.4120680000000  0.4321130000000 1.0
C      1  0.4741630000000  0.5898440000000  0.5494890000000 1.0
C      1  0.4877840000000  0.6043880000000  0.5039690000000 1.0
C      1  0.5170940000000  0.5397730000000  0.4831100000000 1.0
C      1  0.4577780000000  0.5047620000000  0.5100370000000 1.0
C      1  0.5559450000000  0.4527010000000  0.4573880000000 1.0
C      1  0.4353350000000  0.5259550000000  0.4649340000000 1.0
C      1  0.5172130000000  0.4071620000000  0.5382200000000 1.0
C      1  0.5717030000000  0.5809550000000  0.5276590000000 1.0
C      1  0.4708760000000  0.5428080000000  0.4952400000000 1.0
C      1  0.5946010000000  0.4971370000000  0.5326080000000 1.0
C      1  0.5597480000000  0.5188480000000  0.4910200000000 1.0
C      1  0.4315470000000  0.4915170000000  0.5053430000000 1.0
C      1  0.5008930000000  0.4670480000000  0.5998470000000 1.0
C      1  0.4793050000000  0.4525260000000  0.5864220000000 1.0
C      1  0.5284010000000  0.5107150000000  0.4065520000000 1.0
C      1  0.4718920000000  0.5089490000000  0.6046860000000 1.0
C      1  0.5827650000000  0.5063740000000  0.5554150000000 1.0
C      1  0.5320030000000  0.4686760000000  0.4559410000000 1.0
C      1  0.6023700000000  0.5280550000000  0.4578170000000 1.0
C      1  0.5533660000000  0.4253550000000  0.4542210000000 1.0
C      1  0.4118600000000  0.4810140000000  0.5272760000000 1.0
C      1  0.4936940000000  0.6012180000000  0.5320200000000 1.0
C      1  0.5314730000000  0.4153960000000  0.4381330000000 1.0
C      1  0.3881870000000  0.4929450000000  0.4922750000000 1.0
C      1  0.5168350000000  0.5968160000000  0.4769590000000 1.0
C      1  0.4705680000000  0.4572700000000  0.4088980000000 1.0
C      1  0.5134560000000  0.3991050000000  0.4552420000000 1.0
C      1  0.4307890000000  0.5553070000000  0.5081640000000 1.0
C      1  0.5666600000000  0.4836800000000  0.5696670000000 1.0
C      1  0.5055770000000  0.5098230000000  0.4539950000000 1.0
C      1  0.5311310000000  0.4501120000000  0.5632850000000 1.0
C      1  0.5490890000000  0.5402360000000  0.4452720000000 1.0
C      1  0.5653600000000  0.4601330000000  0.5276400000000 1.0
C      1  0.5051250000000  0.5399610000000  0.4558250000000 1.0
C      1  0.5241410000000  0.5520120000000  0.5378510000000 1.0
C      1  0.5020230000000  0.5859940000000  0.4925660000000 1.0
C      1  0.4206730000000  0.4821660000000  0.4571480000000 1.0
C      1  0.4205720000000  0.5461110000000  0.4477940000000 1.0
C      1  0.4833910000000  0.5310210000000  0.4069770000000 1.0
C      1  0.5434460000000  0.4775990000000  0.5210870000000 1.0
C      1  0.5379730000000  0.5123120000000  0.6003220000000 1.0
C      1  0.4482910000000  0.5788590000000  0.5399420000000 1.0
END
