TITL C-4164234-2335-359 11.5229858492288 125000 -10698.5879414762 0 0 73 (C1) n - 1
REM
REM in /home/nfs/bkarasulu/CARBON/AIRSS/Generating-Clusters/ReaxFF-fromJPCA2015/Units_Real/with-SteepDescent/Only-C1/SD-CG/Try1-3A/FIRE-CG
REM
REM
REM
REM
REM
REM ./C.cell (11c1c37f851c82e70ff6c80c92926a4b)
REM
REM compiler GCC version 9.2.1 20190827 (Red Hat 9.2.1-1)
REM options -cpp -mtune=generic -march=x86-64 -g -O0 -fpre-include=/usr/include/finclude/math-vector-fortran.h
REM seed -1222339753 1599128464 -1257654465 -1060741525 603304627 705183533 -45403492 51170269 -1960067362 -1951302916 1773509936 836158540 1287513254 1674291561 1535735048 736413041 1366075533 1593253127 1351587328 585196130 -1826281067 1094834851 -575173180 -977297225 1337667239 227533054 -412119973 -892431659 -980592700 1596158892 -413637385 892702582 -2073284890
REM
CELL 1.54180   50.00000   50.00000   50.00000   90.00000   90.00000   90.00000
LATT -1
SFAC C  
C      1  0.4841230000000  0.4326540000000  0.5536170000000 1.0
C      1  0.4783650000000  0.5261690000000  0.4804950000000 1.0
C      1  0.5397810000000  0.4299670000000  0.5613570000000 1.0
C      1  0.5123100000000  0.5722680000000  0.5006060000000 1.0
C      1  0.5372030000000  0.4852340000000  0.4788140000000 1.0
C      1  0.4480560000000  0.4631690000000  0.4775030000000 1.0
C      1  0.4439180000000  0.4844760000000  0.4575460000000 1.0
C      1  0.5322070000000  0.4112520000000  0.4916130000000 1.0
C      1  0.4798420000000  0.5210340000000  0.5410750000000 1.0
C      1  0.4505890000000  0.5266040000000  0.4891180000000 1.0
C      1  0.4511850000000  0.5768790000000  0.5388480000000 1.0
C      1  0.5680040000000  0.5236750000000  0.4567960000000 1.0
C      1  0.4951760000000  0.5470130000000  0.5334910000000 1.0
C      1  0.4519520000000  0.5011090000000  0.5694980000000 1.0
C      1  0.4963620000000  0.5054770000000  0.4831760000000 1.0
C      1  0.5001570000000  0.4040180000000  0.5161620000000 1.0
C      1  0.5592300000000  0.5326260000000  0.5468220000000 1.0
C      1  0.4461710000000  0.5439580000000  0.4459500000000 1.0
C      1  0.4781270000000  0.5753810000000  0.5279190000000 1.0
C      1  0.4505900000000  0.4792880000000  0.5276280000000 1.0
C      1  0.4629180000000  0.5735780000000  0.4823080000000 1.0
C      1  0.5210430000000  0.4428860000000  0.4559120000000 1.0
C      1  0.4915280000000  0.4432840000000  0.4555420000000 1.0
C      1  0.4429240000000  0.5546300000000  0.4944190000000 1.0
C      1  0.5611600000000  0.4518600000000  0.4910650000000 1.0
C      1  0.5721910000000  0.4963660000000  0.4613070000000 1.0
C      1  0.5108350000000  0.4313440000000  0.5626960000000 1.0
C      1  0.4710960000000  0.5004140000000  0.5225130000000 1.0
C      1  0.5591160000000  0.4411170000000  0.5408710000000 1.0
C      1  0.4828410000000  0.4590660000000  0.4317000000000 1.0
C      1  0.4363800000000  0.5119970000000  0.5481570000000 1.0
C      1  0.5241970000000  0.4957480000000  0.5641900000000 1.0
C      1  0.4897100000000  0.5432820000000  0.4553790000000 1.0
C      1  0.4469790000000  0.4585260000000  0.5069140000000 1.0
C      1  0.5286190000000  0.5575610000000  0.4277360000000 1.0
C      1  0.5057620000000  0.5020620000000  0.4357940000000 1.0
C      1  0.5050040000000  0.5104160000000  0.5808130000000 1.0
C      1  0.5610760000000  0.4603990000000  0.5195460000000 1.0
C      1  0.5197090000000  0.3944380000000  0.5047030000000 1.0
C      1  0.4611690000000  0.4741220000000  0.4399060000000 1.0
C      1  0.4660390000000  0.5622710000000  0.4559790000000 1.0
C      1  0.4801550000000  0.4216170000000  0.5256750000000 1.0
C      1  0.4402100000000  0.5171790000000  0.4601960000000 1.0
C      1  0.5211450000000  0.5508660000000  0.4524880000000 1.0
C      1  0.5547490000000  0.4891110000000  0.5255760000000 1.0
C      1  0.5169890000000  0.5493400000000  0.5538680000000 1.0
C      1  0.5107170000000  0.5442280000000  0.5063890000000 1.0
C      1  0.5389490000000  0.5740650000000  0.5167870000000 1.0
C      1  0.4810900000000  0.4605380000000  0.5615190000000 1.0
C      1  0.4343250000000  0.5567480000000  0.5221670000000 1.0
C      1  0.5064940000000  0.4758660000000  0.4237070000000 1.0
C      1  0.5533650000000  0.5489170000000  0.5220200000000 1.0
C      1  0.5081020000000  0.4718640000000  0.5523360000000 1.0
C      1  0.5387000000000  0.5324810000000  0.4668580000000 1.0
C      1  0.4774090000000  0.5167230000000  0.5695720000000 1.0
C      1  0.4842030000000  0.5826980000000  0.5004640000000 1.0
C      1  0.4924000000000  0.4878760000000  0.5059500000000 1.0
C      1  0.4848150000000  0.5215470000000  0.4350490000000 1.0
C      1  0.5489380000000  0.5052800000000  0.5499840000000 1.0
C      1  0.5387430000000  0.5454380000000  0.5613330000000 1.0
C      1  0.4707200000000  0.4430930000000  0.4761040000000 1.0
C      1  0.4676320000000  0.4375150000000  0.5048820000000 1.0
C      1  0.5107310000000  0.4709740000000  0.5228100000000 1.0
C      1  0.4554160000000  0.4749770000000  0.5567890000000 1.0
C      1  0.4349330000000  0.5287840000000  0.5260030000000 1.0
C      1  0.5294280000000  0.4575870000000  0.4314630000000 1.0
C      1  0.5413910000000  0.4344960000000  0.4781210000000 1.0
C      1  0.5354320000000  0.5636630000000  0.4051730000000 1.0
C      1  0.5428730000000  0.5010400000000  0.5029580000000 1.0
C      1  0.5617090000000  0.4707540000000  0.4684530000000 1.0
C      1  0.5205420000000  0.5049000000000  0.4626320000000 1.0
C      1  0.5369530000000  0.5311190000000  0.5004060000000 1.0
C      1  0.4571000000000  0.5210970000000  0.4367840000000 1.0
END
