TITL C-4164236-1577-392 -1.61954070606838 125000 -7603.87656949576 0 0 52 (C1) n - 1
REM
REM in /home/nfs/bkarasulu/CARBON/AIRSS/Generating-Clusters/ReaxFF-fromJPCA2015/Units_Real/with-SteepDescent/Only-C1/SD-CG/Try1-3A/FIRE-CG
REM
REM
REM
REM
REM
REM ./C.cell (11c1c37f851c82e70ff6c80c92926a4b)
REM
REM compiler GCC version 9.2.1 20190827 (Red Hat 9.2.1-1)
REM options -cpp -mtune=generic -march=x86-64 -g -O0 -fpre-include=/usr/include/finclude/math-vector-fortran.h
REM seed 1835431606 -1128774954 -1936338527 1248382005 -550101960 -83154148 1679230030 1776530152 -1344277204 -1428703667 -1248698314 1227108416 965033216 -1847060613 1005884259 -1376288523 2051463072 -196321647 2106412411 1539173126 -1448756768 1725161372 -416837221 -507658688 1104389214 31550870 -1884072515 -1943977380 -1087486458 -1087216903 1552059286 1426236982 947448521
REM
CELL 1.54180   50.00000   50.00000   50.00000   90.00000   90.00000   90.00000
LATT -1
SFAC C  
C      1  0.4886230000000  0.4457850000000  0.5163800000000 1.0
C      1  0.4459960000000  0.4868840000000  0.4591010000000 1.0
C      1  0.4566110000000  0.5373130000000  0.4900780000000 1.0
C      1  0.4526630000000  0.4906450000000  0.5079560000000 1.0
C      1  0.4484620000000  0.5151000000000  0.5260900000000 1.0
C      1  0.5726580000000  0.4756740000000  0.5038400000000 1.0
C      1  0.4773790000000  0.4851230000000  0.4906210000000 1.0
C      1  0.4777650000000  0.5150790000000  0.5671560000000 1.0
C      1  0.4851840000000  0.5512030000000  0.4633190000000 1.0
C      1  0.4644820000000  0.4635980000000  0.4702970000000 1.0
C      1  0.5284060000000  0.5164410000000  0.5347970000000 1.0
C      1  0.5424090000000  0.5545470000000  0.4898860000000 1.0
C      1  0.4560130000000  0.5421240000000  0.5175750000000 1.0
C      1  0.4809710000000  0.4520750000000  0.4476100000000 1.0
C      1  0.4628460000000  0.4775460000000  0.5553180000000 1.0
C      1  0.5022690000000  0.4966410000000  0.4866470000000 1.0
C      1  0.5172790000000  0.5674870000000  0.4973210000000 1.0
C      1  0.4877890000000  0.4711090000000  0.4267870000000 1.0
C      1  0.4556700000000  0.4666490000000  0.5294180000000 1.0
C      1  0.5152910000000  0.4870970000000  0.4615760000000 1.0
C      1  0.5613770000000  0.5205440000000  0.4703320000000 1.0
C      1  0.4467400000000  0.4457280000000  0.4888700000000 1.0
C      1  0.4893670000000  0.5400610000000  0.5564910000000 1.0
C      1  0.4883930000000  0.4874780000000  0.5673860000000 1.0
C      1  0.5161190000000  0.5418620000000  0.5438010000000 1.0
C      1  0.5105130000000  0.4581770000000  0.5147110000000 1.0
C      1  0.5404980000000  0.5094520000000  0.4362390000000 1.0
C      1  0.4846680000000  0.5002550000000  0.4306020000000 1.0
C      1  0.4193240000000  0.4577740000000  0.4886380000000 1.0
C      1  0.5502660000000  0.5350940000000  0.4482490000000 1.0
C      1  0.5290150000000  0.4547780000000  0.5656270000000 1.0
C      1  0.4620250000000  0.5352230000000  0.4620330000000 1.0
C      1  0.5488050000000  0.4463140000000  0.5494990000000 1.0
C      1  0.5318780000000  0.4747560000000  0.5122160000000 1.0
C      1  0.5052160000000  0.5606370000000  0.5229360000000 1.0
C      1  0.5141410000000  0.4770480000000  0.5755560000000 1.0
C      1  0.5261250000000  0.5058700000000  0.5059440000000 1.0
C      1  0.5077060000000  0.4623810000000  0.4466620000000 1.0
C      1  0.5687060000000  0.4813190000000  0.4762690000000 1.0
C      1  0.5555080000000  0.4740020000000  0.5307500000000 1.0
C      1  0.5462650000000  0.4981990000000  0.5481300000000 1.0
C      1  0.5477360000000  0.5254770000000  0.4945320000000 1.0
C      1  0.4534550000000  0.5058010000000  0.5533150000000 1.0
C      1  0.5368980000000  0.5579200000000  0.4612650000000 1.0
C      1  0.5082930000000  0.5661500000000  0.4678860000000 1.0
C      1  0.4615630000000  0.5076330000000  0.4467110000000 1.0
C      1  0.4784150000000  0.5556490000000  0.5340030000000 1.0
C      1  0.5292500000000  0.4944070000000  0.5702170000000 1.0
C      1  0.5116280000000  0.5077750000000  0.4409400000000 1.0
C      1  0.4607490000000  0.4418370000000  0.5151780000000 1.0
C      1  0.4312480000000  0.4852770000000  0.4841710000000 1.0
C      1  0.5593450000000  0.4870030000000  0.4490720000000 1.0
END
