TITL C-4164244-2836-557 0.117953786500603 125000 -6832.61587936805 0 0 47 (C1) n - 1
REM
REM in /home/nfs/bkarasulu/CARBON/AIRSS/Generating-Clusters/ReaxFF-fromJPCA2015/Units_Real/with-SteepDescent/Only-C1/SD-CG/Try1-3A/FIRE-CG
REM
REM
REM
REM
REM
REM ./C.cell (11c1c37f851c82e70ff6c80c92926a4b)
REM
REM compiler GCC version 9.2.1 20190827 (Red Hat 9.2.1-1)
REM options -cpp -mtune=generic -march=x86-64 -g -O0 -fpre-include=/usr/include/finclude/math-vector-fortran.h
REM seed -663801743 650505582 -1914841329 -1914528505 -1182468129 -705273290 -1129079478 -1919243028 938035551 -385508638 1420701263 1144647474 5590553 -2124656581 1256718059 262834111 5426213 1771506478 1292576227 -66611855 -434786094 1152096218 1675086755 -1232637382 -1492060420 1516401537 -1526338581 749562459 -1542789779 2004802430 -54464273 -2006487456 1210597636
REM
CELL 1.54180   50.00000   50.00000   50.00000   90.00000   90.00000   90.00000
LATT -1
SFAC C  
C      1  0.4901760000000  0.4923500000000  0.4411180000000 1.0
C      1  0.5447330000000  0.5277870000000  0.5029380000000 1.0
C      1  0.5224280000000  0.4631170000000  0.4598690000000 1.0
C      1  0.4366570000000  0.4829330000000  0.5130850000000 1.0
C      1  0.5396780000000  0.5041820000000  0.4536880000000 1.0
C      1  0.4326140000000  0.5102790000000  0.5259040000000 1.0
C      1  0.5405950000000  0.5331630000000  0.4544530000000 1.0
C      1  0.5289780000000  0.4509290000000  0.5456650000000 1.0
C      1  0.4642940000000  0.4603550000000  0.4896890000000 1.0
C      1  0.5580630000000  0.4839170000000  0.5233220000000 1.0
C      1  0.5437350000000  0.4435020000000  0.4978340000000 1.0
C      1  0.5592210000000  0.5020820000000  0.5000440000000 1.0
C      1  0.5505300000000  0.4549050000000  0.5241160000000 1.0
C      1  0.4674600000000  0.4355790000000  0.5050170000000 1.0
C      1  0.4716880000000  0.5253430000000  0.5582530000000 1.0
C      1  0.5462400000000  0.5532670000000  0.5263910000000 1.0
C      1  0.4853880000000  0.4795870000000  0.4995950000000 1.0
C      1  0.4394930000000  0.4753550000000  0.4844530000000 1.0
C      1  0.5180140000000  0.4869970000000  0.4422860000000 1.0
C      1  0.5157420000000  0.4337830000000  0.4941560000000 1.0
C      1  0.5003410000000  0.5167550000000  0.5624080000000 1.0
C      1  0.5547540000000  0.4898320000000  0.4742710000000 1.0
C      1  0.4910410000000  0.5448790000000  0.4514890000000 1.0
C      1  0.5230780000000  0.5649010000000  0.5208390000000 1.0
C      1  0.4580750000000  0.5560670000000  0.5175570000000 1.0
C      1  0.5056020000000  0.5543990000000  0.5013660000000 1.0
C      1  0.5467020000000  0.5441170000000  0.4797620000000 1.0
C      1  0.4375450000000  0.5180960000000  0.4844790000000 1.0
C      1  0.5061930000000  0.4586580000000  0.4832170000000 1.0
C      1  0.5363020000000  0.4896550000000  0.5399630000000 1.0
C      1  0.5161520000000  0.5096350000000  0.5383740000000 1.0
C      1  0.4840400000000  0.5654150000000  0.5110730000000 1.0
C      1  0.4682470000000  0.5479810000000  0.5418130000000 1.0
C      1  0.4799640000000  0.4297430000000  0.5316630000000 1.0
C      1  0.4557620000000  0.5034140000000  0.5441040000000 1.0
C      1  0.5479880000000  0.4607950000000  0.4742790000000 1.0
C      1  0.5007430000000  0.4415700000000  0.5485950000000 1.0
C      1  0.5190260000000  0.5542660000000  0.4516220000000 1.0
C      1  0.4923930000000  0.4206560000000  0.5069060000000 1.0
C      1  0.4380200000000  0.5330180000000  0.5076890000000 1.0
C      1  0.4807810000000  0.5218730000000  0.4677770000000 1.0
C      1  0.4659850000000  0.5033030000000  0.4484040000000 1.0
C      1  0.5254070000000  0.5627390000000  0.4795420000000 1.0
C      1  0.5122030000000  0.5211630000000  0.5086550000000 1.0
C      1  0.4632130000000  0.4823750000000  0.5253740000000 1.0
C      1  0.4936440000000  0.5073410000000  0.4915030000000 1.0
C      1  0.4410760000000  0.4979440000000  0.4653970000000 1.0
END
