TITL C-4164233-775-702 40.4131372443855 125000 -22501.9971023082 0 0 152 (C1) n - 1
REM
REM in /home/nfs/bkarasulu/CARBON/AIRSS/Generating-Clusters/ReaxFF-fromJPCA2015/Units_Real/with-SteepDescent/Only-C1/SD-CG/Try1-3A/FIRE-CG
REM
REM
REM
REM
REM
REM ./C.cell (11c1c37f851c82e70ff6c80c92926a4b)
REM
REM compiler GCC version 9.2.1 20190827 (Red Hat 9.2.1-1)
REM options -cpp -mtune=generic -march=x86-64 -g -O0 -fpre-include=/usr/include/finclude/math-vector-fortran.h
REM seed 637164905 1212031238 -1365090289 -1420778825 -39462480 569573914 -1011979361 1049672370 1476982265 -1003554860 273962885 1970510460 -63434505 1285794456 -612978667 1276498733 1644714797 77359763 -894653443 895402985 -943340105 -712165463 1294002649 1037564978 1288540591 -799118036 -592137581 434565297 -719635953 -589139107 -1333834529 1897210400 -1770752437
REM
CELL 1.54180   50.00000   50.00000   50.00000   90.00000   90.00000   90.00000
LATT -1
SFAC C  
C      1  0.5913750000000  0.5460690000000  0.4705130000000 1.0
C      1  0.4220790000000  0.5537670000000  0.4707980000000 1.0
C      1  0.5737420000000  0.5468420000000  0.4466050000000 1.0
C      1  0.5745600000000  0.4377010000000  0.4480030000000 1.0
C      1  0.5078180000000  0.4127120000000  0.4290980000000 1.0
C      1  0.4100480000000  0.4942020000000  0.5440950000000 1.0
C      1  0.5310890000000  0.5309030000000  0.4727990000000 1.0
C      1  0.4966710000000  0.4701170000000  0.3988300000000 1.0
C      1  0.4932860000000  0.4917050000000  0.4617650000000 1.0
C      1  0.4415360000000  0.4145630000000  0.5155610000000 1.0
C      1  0.4667760000000  0.5468950000000  0.5400340000000 1.0
C      1  0.4591100000000  0.5125930000000  0.5957390000000 1.0
C      1  0.5559810000000  0.5688790000000  0.4531380000000 1.0
C      1  0.4848320000000  0.5034610000000  0.5185830000000 1.0
C      1  0.5109540000000  0.5957180000000  0.4985630000000 1.0
C      1  0.3938170000000  0.5202890000000  0.5100380000000 1.0
C      1  0.4700820000000  0.5421110000000  0.4540630000000 1.0
C      1  0.5428490000000  0.5008240000000  0.5975320000000 1.0
C      1  0.5777490000000  0.4952120000000  0.4368350000000 1.0
C      1  0.5441900000000  0.4926030000000  0.4673840000000 1.0
C      1  0.5073480000000  0.4838440000000  0.4383990000000 1.0
C      1  0.4012980000000  0.5042770000000  0.4621080000000 1.0
C      1  0.4452690000000  0.5883650000000  0.4765410000000 1.0
C      1  0.4869390000000  0.4861980000000  0.4999900000000 1.0
C      1  0.5554900000000  0.4830640000000  0.4223500000000 1.0
C      1  0.5773400000000  0.5351000000000  0.5639060000000 1.0
C      1  0.4547440000000  0.4138090000000  0.5423270000000 1.0
C      1  0.4541000000000  0.4830790000000  0.4186460000000 1.0
C      1  0.5417690000000  0.5245090000000  0.4144820000000 1.0
C      1  0.5692220000000  0.4962780000000  0.5912250000000 1.0
C      1  0.4876140000000  0.4541290000000  0.5269660000000 1.0
C      1  0.4748570000000  0.4904890000000  0.3987060000000 1.0
C      1  0.4847500000000  0.4133160000000  0.5405940000000 1.0
C      1  0.5851390000000  0.5236080000000  0.4874450000000 1.0
C      1  0.5232800000000  0.4567330000000  0.4929830000000 1.0
C      1  0.5939150000000  0.4603750000000  0.5243550000000 1.0
C      1  0.4283010000000  0.4614060000000  0.4551290000000 1.0
C      1  0.5464030000000  0.4559830000000  0.4087540000000 1.0
C      1  0.4764840000000  0.5223090000000  0.5523520000000 1.0
C      1  0.5472180000000  0.4135480000000  0.5135730000000 1.0
C      1  0.5224370000000  0.5451220000000  0.4170310000000 1.0
C      1  0.4241420000000  0.4437450000000  0.5526680000000 1.0
C      1  0.4532450000000  0.5483460000000  0.5133300000000 1.0
C      1  0.4817880000000  0.4644980000000  0.5929620000000 1.0
C      1  0.5145540000000  0.5462680000000  0.5108780000000 1.0
C      1  0.5972730000000  0.4972130000000  0.4852350000000 1.0
C      1  0.4565110000000  0.5738650000000  0.4302080000000 1.0
C      1  0.4263360000000  0.4654560000000  0.5709630000000 1.0
C      1  0.5328150000000  0.5846330000000  0.5319230000000 1.0
C      1  0.5057810000000  0.4789190000000  0.5898820000000 1.0
C      1  0.5142190000000  0.4485870000000  0.5311680000000 1.0
C      1  0.5065710000000  0.5179580000000  0.5487500000000 1.0
C      1  0.5868230000000  0.4459650000000  0.4989040000000 1.0
C      1  0.5632760000000  0.4895940000000  0.5160390000000 1.0
C      1  0.5241000000000  0.5058880000000  0.3984730000000 1.0
C      1  0.4197800000000  0.4929930000000  0.5726210000000 1.0
C      1  0.4356080000000  0.4964000000000  0.4107470000000 1.0
C      1  0.5305110000000  0.4704930000000  0.5415630000000 1.0
C      1  0.5723210000000  0.4441910000000  0.4192980000000 1.0
C      1  0.5668800000000  0.5221930000000  0.4314770000000 1.0
C      1  0.4879520000000  0.5079660000000  0.5964280000000 1.0
C      1  0.5341810000000  0.4745570000000  0.5863240000000 1.0
C      1  0.5485610000000  0.4641090000000  0.5158040000000 1.0
C      1  0.4354870000000  0.5798570000000  0.5467890000000 1.0
C      1  0.4609640000000  0.5946620000000  0.4987670000000 1.0
C      1  0.5381540000000  0.5829670000000  0.5020660000000 1.0
C      1  0.5462970000000  0.4119270000000  0.4642930000000 1.0
C      1  0.5236820000000  0.4040550000000  0.4501250000000 1.0
C      1  0.4996470000000  0.4582650000000  0.4260870000000 1.0
C      1  0.5248920000000  0.4772060000000  0.3948520000000 1.0
C      1  0.4602950000000  0.5200430000000  0.4691330000000 1.0
C      1  0.4137470000000  0.4838630000000  0.4427630000000 1.0
C      1  0.4780420000000  0.5685240000000  0.5603620000000 1.0
C      1  0.5254660000000  0.5004470000000  0.5378970000000 1.0
C      1  0.5056300000000  0.5353420000000  0.5901800000000 1.0
C      1  0.5292040000000  0.4301760000000  0.5626230000000 1.0
C      1  0.4932620000000  0.5288790000000  0.5074310000000 1.0
C      1  0.5339250000000  0.5297110000000  0.5884770000000 1.0
C      1  0.4551040000000  0.4692730000000  0.4487440000000 1.0
C      1  0.4739890000000  0.4423240000000  0.5728010000000 1.0
C      1  0.4002890000000  0.4730640000000  0.5271380000000 1.0
C      1  0.4063300000000  0.5456700000000  0.5196570000000 1.0
C      1  0.4721480000000  0.4416350000000  0.4518490000000 1.0
C      1  0.4620260000000  0.5020840000000  0.5372360000000 1.0
C      1  0.4652040000000  0.4924910000000  0.4636650000000 1.0
C      1  0.5230030000000  0.4395910000000  0.4270490000000 1.0
C      1  0.4460350000000  0.4288120000000  0.5655840000000 1.0
C      1  0.5792380000000  0.5529430000000  0.5187210000000 1.0
C      1  0.5596900000000  0.5333100000000  0.5069770000000 1.0
C      1  0.5899190000000  0.4817630000000  0.4613680000000 1.0
C      1  0.4274210000000  0.4393610000000  0.4736320000000 1.0
C      1  0.5416500000000  0.4638150000000  0.4720940000000 1.0
C      1  0.4998050000000  0.4248010000000  0.5630380000000 1.0
C      1  0.5882720000000  0.5097590000000  0.5768380000000 1.0
C      1  0.4297350000000  0.4893230000000  0.5020510000000 1.0
C      1  0.5879030000000  0.4541650000000  0.4697730000000 1.0
C      1  0.5140440000000  0.5507530000000  0.4600250000000 1.0
C      1  0.4781860000000  0.4199480000000  0.4333560000000 1.0
C      1  0.5616680000000  0.4381800000000  0.5108380000000 1.0
C      1  0.4160020000000  0.4990440000000  0.4238870000000 1.0
C      1  0.5474850000000  0.4566650000000  0.5643910000000 1.0
C      1  0.5506850000000  0.5450510000000  0.5708640000000 1.0
C      1  0.4683020000000  0.4880520000000  0.6041220000000 1.0
C      1  0.4061750000000  0.4493600000000  0.5153780000000 1.0
C      1  0.4453410000000  0.4630590000000  0.5046790000000 1.0
C      1  0.5840570000000  0.5659060000000  0.4915320000000 1.0
C      1  0.5775350000000  0.4621840000000  0.5510010000000 1.0
C      1  0.4304260000000  0.5443880000000  0.5697470000000 1.0
C      1  0.5331580000000  0.4071060000000  0.4896520000000 1.0
C      1  0.5377900000000  0.5479880000000  0.4949980000000 1.0
C      1  0.4865560000000  0.5851550000000  0.4859330000000 1.0
C      1  0.5073860000000  0.5929520000000  0.4323350000000 1.0
C      1  0.4940890000000  0.5392410000000  0.4104990000000 1.0
C      1  0.4116740000000  0.5292810000000  0.4641090000000 1.0
C      1  0.5075460000000  0.5976040000000  0.5280520000000 1.0
C      1  0.5606420000000  0.5788240000000  0.4799340000000 1.0
C      1  0.4169720000000  0.5563890000000  0.5458000000000 1.0
C      1  0.5279780000000  0.5672340000000  0.4387670000000 1.0
C      1  0.4558240000000  0.4342350000000  0.4765330000000 1.0
C      1  0.5160830000000  0.5428440000000  0.5377940000000 1.0
C      1  0.5918990000000  0.4856720000000  0.5587410000000 1.0
C      1  0.6042760000000  0.4854990000000  0.5120690000000 1.0
C      1  0.4684770000000  0.5335800000000  0.4937710000000 1.0
C      1  0.4478110000000  0.5685090000000  0.5708300000000 1.0
C      1  0.5429760000000  0.5088040000000  0.5159170000000 1.0
C      1  0.4812080000000  0.5868930000000  0.4302430000000 1.0
C      1  0.4884310000000  0.5603650000000  0.4697380000000 1.0
C      1  0.4194420000000  0.4293350000000  0.5010930000000 1.0
C      1  0.5283200000000  0.5061460000000  0.4877660000000 1.0
C      1  0.5442300000000  0.4401710000000  0.4533690000000 1.0
C      1  0.4270800000000  0.5539360000000  0.5010610000000 1.0
C      1  0.4640080000000  0.4150280000000  0.4980370000000 1.0
C      1  0.5072460000000  0.4860860000000  0.4855390000000 1.0
C      1  0.5126050000000  0.4271020000000  0.4958460000000 1.0
C      1  0.4355860000000  0.5174370000000  0.5803210000000 1.0
C      1  0.4945270000000  0.5128660000000  0.3989630000000 1.0
C      1  0.5345870000000  0.4925600000000  0.4400510000000 1.0
C      1  0.5288860000000  0.4232510000000  0.5341260000000 1.0
C      1  0.4444510000000  0.4586360000000  0.5343770000000 1.0
C      1  0.5888260000000  0.5336770000000  0.5375430000000 1.0
C      1  0.4562160000000  0.5926600000000  0.5287330000000 1.0
C      1  0.5046500000000  0.5581260000000  0.5741730000000 1.0
C      1  0.4695160000000  0.4582620000000  0.5475210000000 1.0
C      1  0.4020870000000  0.4975360000000  0.4933440000000 1.0
C      1  0.4902700000000  0.4155790000000  0.5112200000000 1.0
C      1  0.4339510000000  0.5024000000000  0.5279020000000 1.0
C      1  0.5302010000000  0.5627180000000  0.5561350000000 1.0
C      1  0.4371920000000  0.5752520000000  0.4534880000000 1.0
C      1  0.5883980000000  0.5020440000000  0.5310740000000 1.0
C      1  0.4814180000000  0.5924440000000  0.5415210000000 1.0
C      1  0.4743920000000  0.4617010000000  0.5026490000000 1.0
C      1  0.4690950000000  0.5476340000000  0.4250630000000 1.0
END
