TITL C-4164240-4114-678 31.4867420800434 125000 -28955.2199888191 0 0 191 (C1) n - 1
REM
REM in /home/nfs/bkarasulu/CARBON/AIRSS/Generating-Clusters/ReaxFF-fromJPCA2015/Units_Real/with-SteepDescent/Only-C1/SD-CG/Try1-3A/FIRE-CG
REM
REM
REM
REM
REM
REM ./C.cell (11c1c37f851c82e70ff6c80c92926a4b)
REM
REM compiler GCC version 9.2.1 20190827 (Red Hat 9.2.1-1)
REM options -cpp -mtune=generic -march=x86-64 -g -O0 -fpre-include=/usr/include/finclude/math-vector-fortran.h
REM seed -83071008 569518034 1983715647 -1443487796 -774663714 968772661 2089931736 -1930456598 -2052963749 -913841272 -1463273790 -1568267040 -894579533 1570494680 -655035538 1500217417 470068407 -1850146488 301540485 1047475108 280308582 -373396919 673515150 -1816938211 -1420567505 1161589380 1203825969 2085675505 325836494 1408280846 524317229 -160479600 -330027707
REM
CELL 1.54180   50.00000   50.00000   50.00000   90.00000   90.00000   90.00000
LATT -1
SFAC C  
C      1  0.6092710000000  0.5072780000000  0.5243300000000 1.0
C      1  0.4365050000000  0.4230580000000  0.4643750000000 1.0
C      1  0.4915870000000  0.5993680000000  0.4319530000000 1.0
C      1  0.5141050000000  0.5479080000000  0.3879460000000 1.0
C      1  0.4678430000000  0.4066540000000  0.5657420000000 1.0
C      1  0.5606280000000  0.4493100000000  0.5910260000000 1.0
C      1  0.4961160000000  0.5215040000000  0.5059290000000 1.0
C      1  0.5382890000000  0.4350160000000  0.5298670000000 1.0
C      1  0.5608600000000  0.5870730000000  0.5362260000000 1.0
C      1  0.4984800000000  0.4125220000000  0.4207770000000 1.0
C      1  0.4449350000000  0.5318730000000  0.5646610000000 1.0
C      1  0.5068460000000  0.4464270000000  0.6011500000000 1.0
C      1  0.4637170000000  0.5230740000000  0.6048950000000 1.0
C      1  0.5576520000000  0.5237600000000  0.5982620000000 1.0
C      1  0.4350470000000  0.4446660000000  0.5766120000000 1.0
C      1  0.4802650000000  0.4788750000000  0.5021180000000 1.0
C      1  0.4474480000000  0.4346260000000  0.5295290000000 1.0
C      1  0.5442620000000  0.5664230000000  0.4241490000000 1.0
C      1  0.6002800000000  0.4468060000000  0.4775370000000 1.0
C      1  0.5360240000000  0.4291470000000  0.3904810000000 1.0
C      1  0.5999020000000  0.4722400000000  0.5582130000000 1.0
C      1  0.5520310000000  0.5670780000000  0.5801420000000 1.0
C      1  0.4898910000000  0.3987220000000  0.5478020000000 1.0
C      1  0.5186680000000  0.4724580000000  0.5557520000000 1.0
C      1  0.4092020000000  0.5649770000000  0.4670550000000 1.0
C      1  0.5614800000000  0.4679630000000  0.4343910000000 1.0
C      1  0.5824410000000  0.4564600000000  0.5733640000000 1.0
C      1  0.4928130000000  0.5698770000000  0.5743110000000 1.0
C      1  0.5317260000000  0.5317450000000  0.6094040000000 1.0
C      1  0.4462080000000  0.4772030000000  0.4616570000000 1.0
C      1  0.3931510000000  0.4705970000000  0.4911670000000 1.0
C      1  0.4147890000000  0.5208860000000  0.4509190000000 1.0
C      1  0.3780730000000  0.4928670000000  0.4525600000000 1.0
C      1  0.6101170000000  0.4977780000000  0.4632470000000 1.0
C      1  0.5683270000000  0.4100740000000  0.4888890000000 1.0
C      1  0.5648320000000  0.4919050000000  0.5014500000000 1.0
C      1  0.3973330000000  0.5757080000000  0.5388370000000 1.0
C      1  0.5467910000000  0.3980240000000  0.5046900000000 1.0
C      1  0.4170400000000  0.4761970000000  0.4176510000000 1.0
C      1  0.3837220000000  0.5568080000000  0.5229230000000 1.0
C      1  0.5901440000000  0.4272040000000  0.4988760000000 1.0
C      1  0.3904960000000  0.5293820000000  0.5203460000000 1.0
C      1  0.4158760000000  0.4073640000000  0.4791370000000 1.0
C      1  0.5077330000000  0.5514310000000  0.4477300000000 1.0
C      1  0.4939490000000  0.5426750000000  0.5635590000000 1.0
C      1  0.5298900000000  0.4759140000000  0.4732540000000 1.0
C      1  0.4781920000000  0.6212100000000  0.5128180000000 1.0
C      1  0.5115730000000  0.5777600000000  0.5125120000000 1.0
C      1  0.5229360000000  0.4800250000000  0.5294050000000 1.0
C      1  0.4944910000000  0.5256710000000  0.4374730000000 1.0
C      1  0.4574810000000  0.4814200000000  0.5640980000000 1.0
C      1  0.5588870000000  0.5310280000000  0.4911970000000 1.0
C      1  0.5549500000000  0.4756450000000  0.5949680000000 1.0
C      1  0.4193690000000  0.5652100000000  0.5546020000000 1.0
C      1  0.5315610000000  0.5382280000000  0.5374650000000 1.0
C      1  0.4602270000000  0.4084680000000  0.4547060000000 1.0
C      1  0.5890360000000  0.4398630000000  0.5252690000000 1.0
C      1  0.4525950000000  0.4793710000000  0.5935320000000 1.0
C      1  0.4748820000000  0.4853050000000  0.4675750000000 1.0
C      1  0.5552450000000  0.5404950000000  0.4160360000000 1.0
C      1  0.4830600000000  0.5838980000000  0.4798150000000 1.0
C      1  0.3938730000000  0.5795670000000  0.5112170000000 1.0
C      1  0.4506620000000  0.5331050000000  0.4947520000000 1.0
C      1  0.4835780000000  0.4691960000000  0.4199440000000 1.0
C      1  0.5683260000000  0.4965440000000  0.4309040000000 1.0
C      1  0.5039070000000  0.6174360000000  0.5055820000000 1.0
C      1  0.5152960000000  0.4573540000000  0.4580970000000 1.0
C      1  0.4605340000000  0.5262520000000  0.5404760000000 1.0
C      1  0.5199400000000  0.5093100000000  0.4396750000000 1.0
C      1  0.5547760000000  0.5228530000000  0.5371130000000 1.0
C      1  0.5331380000000  0.5609110000000  0.6024660000000 1.0
C      1  0.4018850000000  0.5152060000000  0.5425300000000 1.0
C      1  0.5454470000000  0.4101580000000  0.4375990000000 1.0
C      1  0.4522540000000  0.6095290000000  0.5159910000000 1.0
C      1  0.5082750000000  0.5235210000000  0.5471660000000 1.0
C      1  0.5435220000000  0.4605780000000  0.4552340000000 1.0
C      1  0.4555080000000  0.5887390000000  0.4718460000000 1.0
C      1  0.4994080000000  0.5804100000000  0.4098210000000 1.0
C      1  0.4750320000000  0.4460610000000  0.5348070000000 1.0
C      1  0.5211940000000  0.3989760000000  0.4908280000000 1.0
C      1  0.6044510000000  0.5209150000000  0.4797110000000 1.0
C      1  0.5646340000000  0.5835090000000  0.4886930000000 1.0
C      1  0.5968590000000  0.5039410000000  0.5517410000000 1.0
C      1  0.4894200000000  0.5988230000000  0.5451100000000 1.0
C      1  0.5753550000000  0.5106330000000  0.4806260000000 1.0
C      1  0.4341240000000  0.4604000000000  0.5170300000000 1.0
C      1  0.5223970000000  0.5025500000000  0.4678250000000 1.0
C      1  0.5325960000000  0.5937130000000  0.4642850000000 1.0
C      1  0.4576090000000  0.4744790000000  0.4060390000000 1.0
C      1  0.4608540000000  0.5969790000000  0.5420580000000 1.0
C      1  0.5422100000000  0.5830880000000  0.5577420000000 1.0
C      1  0.5872800000000  0.5710880000000  0.5314270000000 1.0
C      1  0.4772730000000  0.4616770000000  0.5583420000000 1.0
C      1  0.4496900000000  0.4848580000000  0.5122780000000 1.0
C      1  0.4886740000000  0.5570800000000  0.3953590000000 1.0
C      1  0.5410030000000  0.4059270000000  0.5326690000000 1.0
C      1  0.4538260000000  0.5449980000000  0.5919210000000 1.0
C      1  0.5182460000000  0.5489930000000  0.4740840000000 1.0
C      1  0.3926420000000  0.4747770000000  0.5806710000000 1.0
C      1  0.5081310000000  0.4297440000000  0.3995160000000 1.0
C      1  0.4155680000000  0.3967390000000  0.5074960000000 1.0
C      1  0.5273450000000  0.6021060000000  0.4974740000000 1.0
C      1  0.4795150000000  0.4352480000000  0.6041850000000 1.0
C      1  0.5451090000000  0.5549410000000  0.4878250000000 1.0
C      1  0.4433110000000  0.4076620000000  0.5114590000000 1.0
C      1  0.4751440000000  0.4073600000000  0.5952520000000 1.0
C      1  0.5662760000000  0.4134350000000  0.4587160000000 1.0
C      1  0.5991480000000  0.5582610000000  0.5069920000000 1.0
C      1  0.5155750000000  0.4431410000000  0.5114440000000 1.0
C      1  0.4274270000000  0.5633300000000  0.4437810000000 1.0
C      1  0.5031220000000  0.4588110000000  0.4002090000000 1.0
C      1  0.5855860000000  0.4332180000000  0.4586010000000 1.0
C      1  0.4755150000000  0.5312180000000  0.4074850000000 1.0
C      1  0.5562350000000  0.4798490000000  0.5269630000000 1.0
C      1  0.5322470000000  0.4334730000000  0.5922000000000 1.0
C      1  0.6125400000000  0.4814900000000  0.5111040000000 1.0
C      1  0.5297170000000  0.5551570000000  0.5137870000000 1.0
C      1  0.3821690000000  0.4955380000000  0.4820800000000 1.0
C      1  0.4168080000000  0.5360390000000  0.5577060000000 1.0
C      1  0.4318040000000  0.4521510000000  0.4641580000000 1.0
C      1  0.4534610000000  0.4507800000000  0.5979770000000 1.0
C      1  0.5008240000000  0.4683750000000  0.5813820000000 1.0
C      1  0.3988900000000  0.5193420000000  0.4938360000000 1.0
C      1  0.6093250000000  0.4753960000000  0.4823430000000 1.0
C      1  0.5000800000000  0.5185550000000  0.5737860000000 1.0
C      1  0.5449830000000  0.5145790000000  0.4267320000000 1.0
C      1  0.4004200000000  0.5375340000000  0.4697830000000 1.0
C      1  0.4301320000000  0.5010670000000  0.4670370000000 1.0
C      1  0.5939600000000  0.5324540000000  0.5673640000000 1.0
C      1  0.5889620000000  0.5694360000000  0.4816730000000 1.0
C      1  0.4330990000000  0.5095150000000  0.4953210000000 1.0
C      1  0.5177220000000  0.5674170000000  0.4276280000000 1.0
C      1  0.4354090000000  0.4538750000000  0.4068150000000 1.0
C      1  0.4031630000000  0.4594870000000  0.4655910000000 1.0
C      1  0.4611720000000  0.5373200000000  0.4677620000000 1.0
C      1  0.5521560000000  0.5155680000000  0.5114400000000 1.0
C      1  0.4879270000000  0.4010870000000  0.5193280000000 1.0
C      1  0.4909520000000  0.5110670000000  0.3906560000000 1.0
C      1  0.6102010000000  0.5306110000000  0.5068220000000 1.0
C      1  0.5173490000000  0.4030770000000  0.4409720000000 1.0
C      1  0.4689710000000  0.4139130000000  0.4267080000000 1.0
C      1  0.5194600000000  0.5053740000000  0.3870630000000 1.0
C      1  0.5053790000000  0.4176170000000  0.5040640000000 1.0
C      1  0.4377890000000  0.5963580000000  0.4937820000000 1.0
C      1  0.4727720000000  0.5401400000000  0.5137810000000 1.0
C      1  0.4988110000000  0.4958690000000  0.5188390000000 1.0
C      1  0.4455810000000  0.5242570000000  0.4124840000000 1.0
C      1  0.4754700000000  0.5149420000000  0.4578380000000 1.0
C      1  0.4776480000000  0.3952540000000  0.4729330000000 1.0
C      1  0.4130900000000  0.5823130000000  0.4904540000000 1.0
C      1  0.5798520000000  0.5372770000000  0.4376450000000 1.0
C      1  0.4536940000000  0.4986700000000  0.5399550000000 1.0
C      1  0.5532260000000  0.5785700000000  0.4487060000000 1.0
C      1  0.5655610000000  0.5006260000000  0.5513970000000 1.0
C      1  0.4448830000000  0.5792660000000  0.5605070000000 1.0
C      1  0.5622420000000  0.4505740000000  0.5307490000000 1.0
C      1  0.5364610000000  0.5309370000000  0.3903230000000 1.0
C      1  0.4636850000000  0.5707780000000  0.5805380000000 1.0
C      1  0.5538290000000  0.4241030000000  0.4134920000000 1.0
C      1  0.4988410000000  0.4880420000000  0.6052260000000 1.0
C      1  0.4859680000000  0.5690460000000  0.5042030000000 1.0
C      1  0.5917390000000  0.5108350000000  0.4406550000000 1.0
C      1  0.5196150000000  0.3986180000000  0.5529640000000 1.0
C      1  0.4064440000000  0.4685460000000  0.5180900000000 1.0
C      1  0.5723930000000  0.5438640000000  0.5837420000000 1.0
C      1  0.4262460000000  0.5374370000000  0.4291800000000 1.0
C      1  0.4709700000000  0.4965050000000  0.6106140000000 1.0
C      1  0.5062870000000  0.3937120000000  0.4665320000000 1.0
C      1  0.5465160000000  0.4568530000000  0.3887570000000 1.0
C      1  0.4667300000000  0.3944190000000  0.5006650000000 1.0
C      1  0.4902900000000  0.4681850000000  0.4478380000000 1.0
C      1  0.4385080000000  0.4961840000000  0.4118120000000 1.0
C      1  0.5103720000000  0.5138700000000  0.5992350000000 1.0
C      1  0.5547970000000  0.5992570000000  0.5108920000000 1.0
C      1  0.5241920000000  0.4754770000000  0.3895950000000 1.0
C      1  0.4041050000000  0.4852570000000  0.5430290000000 1.0
C      1  0.6076190000000  0.4613320000000  0.5322440000000 1.0
C      1  0.5269090000000  0.4160420000000  0.5726460000000 1.0
C      1  0.4539380000000  0.5648220000000  0.4550410000000 1.0
C      1  0.5940920000000  0.5514030000000  0.5483750000000 1.0
C      1  0.4517020000000  0.4336420000000  0.4164930000000 1.0
C      1  0.5629720000000  0.4513900000000  0.4118930000000 1.0
C      1  0.5116670000000  0.5231970000000  0.4836690000000 1.0
C      1  0.5775330000000  0.5606200000000  0.4553030000000 1.0
C      1  0.5571070000000  0.4992070000000  0.5819680000000 1.0
C      1  0.4888470000000  0.4535050000000  0.5121330000000 1.0
C      1  0.3973910000000  0.4734020000000  0.4395920000000 1.0
C      1  0.4121960000000  0.4670470000000  0.5670580000000 1.0
C      1  0.5040590000000  0.5961110000000  0.4586000000000 1.0
C      1  0.4453440000000  0.4248260000000  0.5587770000000 1.0
C      1  0.5107650000000  0.5884200000000  0.5592110000000 1.0
END
