TITL C-4164247-2821-185 14.0691838489616 125000 -15255.3281003161 0 0 104 (C1) n - 1
REM
REM in /home/nfs/bkarasulu/CARBON/AIRSS/Generating-Clusters/ReaxFF-fromJPCA2015/Units_Real/with-SteepDescent/Only-C1/SD-CG/Try1-3A/FIRE-CG
REM
REM
REM
REM
REM
REM ./C.cell (11c1c37f851c82e70ff6c80c92926a4b)
REM
REM compiler GCC version 9.2.1 20190827 (Red Hat 9.2.1-1)
REM options -cpp -mtune=generic -march=x86-64 -g -O0 -fpre-include=/usr/include/finclude/math-vector-fortran.h
REM seed -1172140045 -1117727008 2074599556 -96046081 1549107539 -1745518973 397835405 -1402757059 1779961482 1018174579 568708946 1456143188 344737084 98297540 -1161334476 1581367323 -441762799 121491388 -1960189728 -1130665023 -1283528180 2142388994 1406842504 87152835 1717630378 -1352665077 -1364627839 750892883 -1931020055 -2097384885 1983862937 -1833464887 -789113784
REM
CELL 1.54180   50.00000   50.00000   50.00000   90.00000   90.00000   90.00000
LATT -1
SFAC C  
C      1  0.4937470000000  0.5480420000000  0.5817550000000 1.0
C      1  0.4260210000000  0.5296810000000  0.4583460000000 1.0
C      1  0.5464940000000  0.5444150000000  0.4418440000000 1.0
C      1  0.5157910000000  0.5300740000000  0.4726060000000 1.0
C      1  0.4820300000000  0.4781230000000  0.4391740000000 1.0
C      1  0.5684250000000  0.4378890000000  0.4946940000000 1.0
C      1  0.5406660000000  0.5088740000000  0.5149670000000 1.0
C      1  0.4386640000000  0.4952250000000  0.5716150000000 1.0
C      1  0.5041290000000  0.4795170000000  0.5907460000000 1.0
C      1  0.5120300000000  0.4574140000000  0.4727370000000 1.0
C      1  0.5393040000000  0.4295920000000  0.4939770000000 1.0
C      1  0.4374190000000  0.4906340000000  0.4848290000000 1.0
C      1  0.5410980000000  0.4082850000000  0.4467180000000 1.0
C      1  0.4980300000000  0.4156510000000  0.5238950000000 1.0
C      1  0.4562790000000  0.5501090000000  0.5429720000000 1.0
C      1  0.4566070000000  0.5455780000000  0.4812820000000 1.0
C      1  0.5080900000000  0.5874600000000  0.5339750000000 1.0
C      1  0.5555080000000  0.4349360000000  0.5509290000000 1.0
C      1  0.4330770000000  0.4863540000000  0.4360670000000 1.0
C      1  0.5209170000000  0.5041520000000  0.5912780000000 1.0
C      1  0.5551120000000  0.5352550000000  0.5093680000000 1.0
C      1  0.5402570000000  0.4183110000000  0.4689590000000 1.0
C      1  0.4376650000000  0.4456720000000  0.4615130000000 1.0
C      1  0.4978220000000  0.5245420000000  0.4238930000000 1.0
C      1  0.4800200000000  0.5801800000000  0.4368860000000 1.0
C      1  0.5710910000000  0.5392390000000  0.4847130000000 1.0
C      1  0.4794460000000  0.5895680000000  0.5305520000000 1.0
C      1  0.4425200000000  0.4294560000000  0.4818120000000 1.0
C      1  0.5111750000000  0.5040640000000  0.4703570000000 1.0
C      1  0.4840540000000  0.5011830000000  0.4634610000000 1.0
C      1  0.5441500000000  0.4991850000000  0.5768290000000 1.0
C      1  0.4224740000000  0.4724090000000  0.5014690000000 1.0
C      1  0.5740170000000  0.5417570000000  0.5316530000000 1.0
C      1  0.5306860000000  0.4820120000000  0.4684400000000 1.0
C      1  0.4908470000000  0.4522600000000  0.4534740000000 1.0
C      1  0.4934970000000  0.5690350000000  0.5191780000000 1.0
C      1  0.5903000000000  0.5146110000000  0.5323690000000 1.0
C      1  0.5141650000000  0.5439290000000  0.4459990000000 1.0
C      1  0.5019030000000  0.5710320000000  0.4495190000000 1.0
C      1  0.4269400000000  0.5419680000000  0.4842500000000 1.0
C      1  0.5476770000000  0.4785550000000  0.4419100000000 1.0
C      1  0.5887340000000  0.5173360000000  0.4778190000000 1.0
C      1  0.4591840000000  0.4517110000000  0.5216690000000 1.0
C      1  0.4995360000000  0.4353330000000  0.5692440000000 1.0
C      1  0.4877290000000  0.4162410000000  0.5008530000000 1.0
C      1  0.5392510000000  0.4099840000000  0.5534940000000 1.0
C      1  0.5141670000000  0.5278660000000  0.5741260000000 1.0
C      1  0.5013980000000  0.5324010000000  0.4975640000000 1.0
C      1  0.5681290000000  0.4376240000000  0.5236440000000 1.0
C      1  0.4559270000000  0.5680740000000  0.4387530000000 1.0
C      1  0.4629930000000  0.4424580000000  0.5477430000000 1.0
C      1  0.5795150000000  0.5046610000000  0.4524360000000 1.0
C      1  0.5601780000000  0.5199710000000  0.4356990000000 1.0
C      1  0.5086740000000  0.4575880000000  0.3985130000000 1.0
C      1  0.4697650000000  0.5184570000000  0.4218700000000 1.0
C      1  0.5772570000000  0.4894580000000  0.5381330000000 1.0
C      1  0.4786320000000  0.5116620000000  0.5497930000000 1.0
C      1  0.5556080000000  0.5594820000000  0.5412990000000 1.0
C      1  0.5763890000000  0.4622160000000  0.4778770000000 1.0
C      1  0.4644790000000  0.5243260000000  0.5308750000000 1.0
C      1  0.5057580000000  0.5194590000000  0.5458830000000 1.0
C      1  0.4803980000000  0.4242350000000  0.4523480000000 1.0
C      1  0.4519510000000  0.5381180000000  0.4401160000000 1.0
C      1  0.4098390000000  0.4878290000000  0.5236740000000 1.0
C      1  0.4705530000000  0.5285250000000  0.4617900000000 1.0
C      1  0.5621910000000  0.4825390000000  0.5639610000000 1.0
C      1  0.4483530000000  0.4745990000000  0.5886360000000 1.0
C      1  0.5292690000000  0.5668710000000  0.5365510000000 1.0
C      1  0.4623510000000  0.5737550000000  0.4868840000000 1.0
C      1  0.5156200000000  0.5052290000000  0.4131440000000 1.0
C      1  0.5439130000000  0.5776750000000  0.4659720000000 1.0
C      1  0.4355620000000  0.5623600000000  0.5264300000000 1.0
C      1  0.5061750000000  0.4709250000000  0.5181510000000 1.0
C      1  0.4686610000000  0.4339420000000  0.5748820000000 1.0
C      1  0.4358730000000  0.4461140000000  0.5032140000000 1.0
C      1  0.5561630000000  0.4788090000000  0.4884910000000 1.0
C      1  0.5166970000000  0.4576370000000  0.5766870000000 1.0
C      1  0.4586250000000  0.4908360000000  0.4257170000000 1.0
C      1  0.5751030000000  0.4751670000000  0.4510540000000 1.0
C      1  0.5448500000000  0.4583880000000  0.5662980000000 1.0
C      1  0.4197460000000  0.5415660000000  0.5129340000000 1.0
C      1  0.5097140000000  0.4149880000000  0.5502840000000 1.0
C      1  0.5015930000000  0.4780970000000  0.4123070000000 1.0
C      1  0.5624580000000  0.5573990000000  0.4623990000000 1.0
C      1  0.4645820000000  0.5861400000000  0.4602250000000 1.0
C      1  0.5193160000000  0.5924800000000  0.4645290000000 1.0
C      1  0.5982260000000  0.5073340000000  0.5051090000000 1.0
C      1  0.4694660000000  0.5584910000000  0.5685230000000 1.0
C      1  0.4364770000000  0.4613090000000  0.4446600000000 1.0
C      1  0.5570570000000  0.4841570000000  0.5165370000000 1.0
C      1  0.4099510000000  0.5176240000000  0.5275800000000 1.0
C      1  0.4656160000000  0.5081100000000  0.5736990000000 1.0
C      1  0.5143170000000  0.4471050000000  0.4997990000000 1.0
C      1  0.4779730000000  0.4720160000000  0.5120560000000 1.0
C      1  0.4170630000000  0.4992920000000  0.5490430000000 1.0
C      1  0.5180260000000  0.4967470000000  0.5272500000000 1.0
C      1  0.4749480000000  0.4860050000000  0.5920410000000 1.0
C      1  0.4554070000000  0.5810320000000  0.5146800000000 1.0
C      1  0.4676280000000  0.4930890000000  0.4918150000000 1.0
C      1  0.5097800000000  0.5455190000000  0.5243660000000 1.0
C      1  0.4252690000000  0.5012480000000  0.4603190000000 1.0
C      1  0.4774650000000  0.5184250000000  0.5056670000000 1.0
C      1  0.4692590000000  0.4159180000000  0.4790390000000 1.0
C      1  0.5430670000000  0.4998220000000  0.4228450000000 1.0
END
