TITL C-4164235-1454-617 7.03273646619298 125000 -17553.0228441276 0 0 119 (C1) n - 1
REM
REM in /home/nfs/bkarasulu/CARBON/AIRSS/Generating-Clusters/ReaxFF-fromJPCA2015/Units_Real/with-SteepDescent/Only-C1/SD-CG/Try1-3A/FIRE-CG
REM
REM
REM
REM
REM
REM ./C.cell (11c1c37f851c82e70ff6c80c92926a4b)
REM
REM compiler GCC version 9.2.1 20190827 (Red Hat 9.2.1-1)
REM options -cpp -mtune=generic -march=x86-64 -g -O0 -fpre-include=/usr/include/finclude/math-vector-fortran.h
REM seed -2077870427 1341197449 -225925763 -1748554034 -681423778 205978121 285814672 -931741982 1700912321 -757480434 -855045168 -419148452 741710151 1423128495 -1334676916 -2016083680 590412929 1753558089 -1347157174 833098764 1278307221 915099163 1282697910 1672213176 -563755553 1239505828 1944040446 -2040382756 619641949 -1404937926 -471940463 -243454665 -147503577
REM
CELL 1.54180   50.00000   50.00000   50.00000   90.00000   90.00000   90.00000
LATT -1
SFAC C  
C      1  0.4788110000000  0.5083600000000  0.5196250000000 1.0
C      1  0.5427110000000  0.4228340000000  0.5325910000000 1.0
C      1  0.5639260000000  0.4303560000000  0.4852690000000 1.0
C      1  0.4315160000000  0.4555700000000  0.5147040000000 1.0
C      1  0.5778120000000  0.4698910000000  0.5193420000000 1.0
C      1  0.5226590000000  0.4803720000000  0.5164520000000 1.0
C      1  0.4805160000000  0.5541350000000  0.4294670000000 1.0
C      1  0.4674080000000  0.4793650000000  0.4501750000000 1.0
C      1  0.5493440000000  0.4390850000000  0.5527370000000 1.0
C      1  0.4775470000000  0.5020900000000  0.4644280000000 1.0
C      1  0.4969370000000  0.4723200000000  0.5280910000000 1.0
C      1  0.4381560000000  0.4756370000000  0.4451170000000 1.0
C      1  0.4337020000000  0.4537880000000  0.4644930000000 1.0
C      1  0.5728060000000  0.4847320000000  0.5618780000000 1.0
C      1  0.5429100000000  0.4121190000000  0.4758660000000 1.0
C      1  0.4276760000000  0.5020790000000  0.4379920000000 1.0
C      1  0.4717170000000  0.5514640000000  0.5186520000000 1.0
C      1  0.5584490000000  0.4579540000000  0.5702630000000 1.0
C      1  0.5324530000000  0.5657170000000  0.5632420000000 1.0
C      1  0.5323080000000  0.4554620000000  0.5074560000000 1.0
C      1  0.4922670000000  0.4866400000000  0.4827490000000 1.0
C      1  0.4487370000000  0.4476430000000  0.5698270000000 1.0
C      1  0.4948170000000  0.4976470000000  0.5949320000000 1.0
C      1  0.5377340000000  0.5205600000000  0.5218450000000 1.0
C      1  0.4650120000000  0.4195720000000  0.5263670000000 1.0
C      1  0.4846830000000  0.4688680000000  0.4291930000000 1.0
C      1  0.4537900000000  0.4313010000000  0.4692740000000 1.0
C      1  0.5121000000000  0.4449780000000  0.4893490000000 1.0
C      1  0.4452520000000  0.5699470000000  0.4738590000000 1.0
C      1  0.5777120000000  0.5236620000000  0.5230760000000 1.0
C      1  0.5243700000000  0.4525690000000  0.4638300000000 1.0
C      1  0.4695590000000  0.4615780000000  0.5824740000000 1.0
C      1  0.5483590000000  0.5185320000000  0.4414340000000 1.0
C      1  0.5859330000000  0.5313150000000  0.4728830000000 1.0
C      1  0.5207650000000  0.4906410000000  0.4887240000000 1.0
C      1  0.5449170000000  0.5721230000000  0.4647360000000 1.0
C      1  0.5076070000000  0.5456670000000  0.4318520000000 1.0
C      1  0.4585300000000  0.5929230000000  0.5128190000000 1.0
C      1  0.5271750000000  0.4811550000000  0.4308540000000 1.0
C      1  0.4794670000000  0.5314280000000  0.4995060000000 1.0
C      1  0.5359950000000  0.5068980000000  0.4171540000000 1.0
C      1  0.4297180000000  0.4930870000000  0.5560510000000 1.0
C      1  0.4500630000000  0.5076280000000  0.5704240000000 1.0
C      1  0.4856090000000  0.5786860000000  0.4411600000000 1.0
C      1  0.4930380000000  0.4228570000000  0.5350850000000 1.0
C      1  0.5664630000000  0.5057420000000  0.4267020000000 1.0
C      1  0.4147850000000  0.5226720000000  0.4619560000000 1.0
C      1  0.5874460000000  0.5033020000000  0.4737520000000 1.0
C      1  0.5017880000000  0.4084470000000  0.4647000000000 1.0
C      1  0.4570680000000  0.4532550000000  0.5035380000000 1.0
C      1  0.5132200000000  0.4744830000000  0.5901090000000 1.0
C      1  0.4140070000000  0.5290610000000  0.5152760000000 1.0
C      1  0.4142550000000  0.4686210000000  0.4818590000000 1.0
C      1  0.5462680000000  0.4607370000000  0.4240380000000 1.0
C      1  0.5149700000000  0.5356350000000  0.5183900000000 1.0
C      1  0.4935130000000  0.5876560000000  0.4663020000000 1.0
C      1  0.4843250000000  0.5450000000000  0.5758480000000 1.0
C      1  0.5584120000000  0.5466180000000  0.4675900000000 1.0
C      1  0.5012340000000  0.5880990000000  0.5470960000000 1.0
C      1  0.4589390000000  0.5355000000000  0.5642450000000 1.0
C      1  0.4983770000000  0.4499700000000  0.5470190000000 1.0
C      1  0.5366910000000  0.5792490000000  0.4919110000000 1.0
C      1  0.5623370000000  0.4973850000000  0.5869120000000 1.0
C      1  0.4846820000000  0.4647280000000  0.5009550000000 1.0
C      1  0.4419690000000  0.5435880000000  0.4597920000000 1.0
C      1  0.4274340000000  0.4641600000000  0.5608450000000 1.0
C      1  0.4235200000000  0.4455620000000  0.5382410000000 1.0
C      1  0.4670050000000  0.5045500000000  0.4029730000000 1.0
C      1  0.4623630000000  0.5227270000000  0.4771320000000 1.0
C      1  0.4931980000000  0.4424160000000  0.4346340000000 1.0
C      1  0.5421170000000  0.5166310000000  0.5507450000000 1.0
C      1  0.4515320000000  0.5488390000000  0.5391230000000 1.0
C      1  0.5103990000000  0.5179240000000  0.4235040000000 1.0
C      1  0.4971820000000  0.4545570000000  0.5761040000000 1.0
C      1  0.5103800000000  0.5430070000000  0.4898370000000 1.0
C      1  0.4111290000000  0.5338930000000  0.4885730000000 1.0
C      1  0.5515090000000  0.5443980000000  0.5556850000000 1.0
C      1  0.4659390000000  0.5862430000000  0.4614690000000 1.0
C      1  0.4456540000000  0.5035830000000  0.4898170000000 1.0
C      1  0.5024430000000  0.5669240000000  0.5670860000000 1.0
C      1  0.5318980000000  0.5607320000000  0.4409580000000 1.0
C      1  0.4982470000000  0.5209020000000  0.5368030000000 1.0
C      1  0.5740670000000  0.4955880000000  0.5340290000000 1.0
C      1  0.4517230000000  0.4983230000000  0.5165840000000 1.0
C      1  0.5929970000000  0.5193510000000  0.4984340000000 1.0
C      1  0.5973300000000  0.4624840000000  0.4986630000000 1.0
C      1  0.4782240000000  0.5987110000000  0.5326680000000 1.0
C      1  0.5170740000000  0.4128240000000  0.5225900000000 1.0
C      1  0.5074310000000  0.5755110000000  0.4880920000000 1.0
C      1  0.4282040000000  0.5537070000000  0.5208000000000 1.0
C      1  0.5583590000000  0.4436290000000  0.5121160000000 1.0
C      1  0.4677310000000  0.4902210000000  0.5864260000000 1.0
C      1  0.4451760000000  0.5170960000000  0.4201840000000 1.0
C      1  0.5690250000000  0.4770510000000  0.4323910000000 1.0
C      1  0.5141870000000  0.5122610000000  0.5601960000000 1.0
C      1  0.4925560000000  0.4955660000000  0.4139470000000 1.0
C      1  0.5557790000000  0.5442810000000  0.4363260000000 1.0
C      1  0.4137140000000  0.4730800000000  0.5105680000000 1.0
C      1  0.5471660000000  0.5718140000000  0.5182790000000 1.0
C      1  0.4390250000000  0.5744370000000  0.5017220000000 1.0
C      1  0.4214200000000  0.4964830000000  0.4774110000000 1.0
C      1  0.5806910000000  0.4517770000000  0.4751520000000 1.0
C      1  0.4227480000000  0.4989360000000  0.5271890000000 1.0
C      1  0.4559570000000  0.4246640000000  0.4985080000000 1.0
C      1  0.4543800000000  0.5417140000000  0.4331910000000 1.0
C      1  0.4828470000000  0.5771660000000  0.5128700000000 1.0
C      1  0.5163170000000  0.4124710000000  0.4919770000000 1.0
C      1  0.5026310000000  0.5238870000000  0.5846850000000 1.0
C      1  0.5403860000000  0.5101060000000  0.4954710000000 1.0
C      1  0.5644010000000  0.5493450000000  0.5301870000000 1.0
C      1  0.5340870000000  0.5303980000000  0.4759340000000 1.0
C      1  0.4467040000000  0.4298280000000  0.5472830000000 1.0
C      1  0.5709790000000  0.4773070000000  0.4624760000000 1.0
C      1  0.5307120000000  0.5833240000000  0.5400870000000 1.0
C      1  0.5362790000000  0.4783840000000  0.4611090000000 1.0
C      1  0.5273110000000  0.4120810000000  0.4516080000000 1.0
C      1  0.4799430000000  0.4257120000000  0.4545660000000 1.0
C      1  0.5424900000000  0.4737670000000  0.5900550000000 1.0
C      1  0.5246810000000  0.4386800000000  0.4374060000000 1.0
END
