TITL C-4164238-4211-288 0.498669999176367 125000 -3681.4828440102 0 0 26 (C1) n - 1
REM
REM in /home/nfs/bkarasulu/CARBON/AIRSS/Generating-Clusters/ReaxFF-fromJPCA2015/Units_Real/with-SteepDescent/Only-C1/SD-CG/Try1-3A/FIRE-CG
REM
REM
REM
REM
REM
REM ./C.cell (11c1c37f851c82e70ff6c80c92926a4b)
REM
REM compiler GCC version 9.2.1 20190827 (Red Hat 9.2.1-1)
REM options -cpp -mtune=generic -march=x86-64 -g -O0 -fpre-include=/usr/include/finclude/math-vector-fortran.h
REM seed -679287546 -353722384 -943124894 -1734310581 -1908495452 718572460 1056022760 1092542303 -1846135406 -1800378801 -1743909567 -575621753 586884040 353822298 75045135 -1711385072 1152253554 1542383684 -969552846 -1803159554 -694328201 1142273209 2061855229 -115494211 -1715675065 945927044 619219265 -652746564 -44677759 600337878 -661295860 2032432900 -580365881
REM
CELL 1.54180   50.00000   50.00000   50.00000   90.00000   90.00000   90.00000
LATT -1
SFAC C  
C      1  0.4802520000000  0.4438800000000  0.5247390000000 1.0
C      1  0.5288070000000  0.5395090000000  0.5027300000000 1.0
C      1  0.4878780000000  0.5658360000000  0.5159580000000 1.0
C      1  0.4486510000000  0.5038270000000  0.5018950000000 1.0
C      1  0.4595320000000  0.4636030000000  0.5320290000000 1.0
C      1  0.4826490000000  0.4887240000000  0.4459420000000 1.0
C      1  0.4579840000000  0.4590210000000  0.4845950000000 1.0
C      1  0.4780480000000  0.4394020000000  0.4950810000000 1.0
C      1  0.5537480000000  0.5180300000000  0.4506940000000 1.0
C      1  0.5586340000000  0.4841590000000  0.5160060000000 1.0
C      1  0.5305280000000  0.5111570000000  0.4334950000000 1.0
C      1  0.4641500000000  0.5228550000000  0.5193250000000 1.0
C      1  0.4916660000000  0.5175900000000  0.5262430000000 1.0
C      1  0.5337520000000  0.4887250000000  0.5379440000000 1.0
C      1  0.4611320000000  0.5527110000000  0.5161580000000 1.0
C      1  0.4602930000000  0.4773950000000  0.4591700000000 1.0
C      1  0.4557380000000  0.4998020000000  0.4749200000000 1.0
C      1  0.5488620000000  0.5366540000000  0.4877890000000 1.0
C      1  0.5341850000000  0.4912660000000  0.5626700000000 1.0
C      1  0.4474670000000  0.4744880000000  0.5075070000000 1.0
C      1  0.5033320000000  0.4921180000000  0.5344010000000 1.0
C      1  0.4868390000000  0.4686540000000  0.5404080000000 1.0
C      1  0.5043970000000  0.4987150000000  0.4392510000000 1.0
C      1  0.5071020000000  0.5421300000000  0.5189330000000 1.0
C      1  0.5657410000000  0.4998610000000  0.4959370000000 1.0
C      1  0.5686310000000  0.5198870000000  0.4761790000000 1.0
END
