TITL C-4164236-1577-9 32.2404925299881 125000 -19950.6858178624 0 0 135 (C1) n - 1
REM
REM in /home/nfs/bkarasulu/CARBON/AIRSS/Generating-Clusters/ReaxFF-fromJPCA2015/Units_Real/with-SteepDescent/Only-C1/SD-CG/Try1-3A/FIRE-CG
REM
REM
REM
REM
REM
REM ./C.cell (11c1c37f851c82e70ff6c80c92926a4b)
REM
REM compiler GCC version 9.2.1 20190827 (Red Hat 9.2.1-1)
REM options -cpp -mtune=generic -march=x86-64 -g -O0 -fpre-include=/usr/include/finclude/math-vector-fortran.h
REM seed -125692918 -1423848326 -1460828513 1375676918 1846426303 -1727095471 -906200808 171864198 1262466411 1516788170 1689054007 1390979604 1268670705 -882778479 -779875121 1772049288 -326986036 -1385311578 632307036 597594115 -1185020425 741564319 -728563062 -1602889072 145323676 -71306439 2096377081 -1219218825 -227940066 301239706 -163924843 -518677842 34274222
REM
CELL 1.54180   50.00000   50.00000   50.00000   90.00000   90.00000   90.00000
LATT -1
SFAC C  
C      1  0.4212010000000  0.5005070000000  0.5612850000000 1.0
C      1  0.5230680000000  0.4748500000000  0.4382100000000 1.0
C      1  0.4510380000000  0.5904860000000  0.4798630000000 1.0
C      1  0.5393710000000  0.5514430000000  0.4263390000000 1.0
C      1  0.5372680000000  0.4166060000000  0.4701030000000 1.0
C      1  0.4234440000000  0.4707570000000  0.5622130000000 1.0
C      1  0.5795480000000  0.5074140000000  0.4458890000000 1.0
C      1  0.5070920000000  0.3963880000000  0.4920910000000 1.0
C      1  0.5176040000000  0.5826280000000  0.5562470000000 1.0
C      1  0.4834460000000  0.5392260000000  0.5082500000000 1.0
C      1  0.4537670000000  0.5834010000000  0.5097190000000 1.0
C      1  0.4387600000000  0.5592250000000  0.5114650000000 1.0
C      1  0.4256910000000  0.4277370000000  0.4743860000000 1.0
C      1  0.5593360000000  0.4542030000000  0.5592480000000 1.0
C      1  0.4295240000000  0.5765660000000  0.4675230000000 1.0
C      1  0.5501780000000  0.4453900000000  0.4962830000000 1.0
C      1  0.4640690000000  0.4477000000000  0.5805470000000 1.0
C      1  0.4747370000000  0.4690680000000  0.4907600000000 1.0
C      1  0.5832670000000  0.5435090000000  0.5048060000000 1.0
C      1  0.4764470000000  0.5067680000000  0.5424590000000 1.0
C      1  0.4660580000000  0.5188490000000  0.4963550000000 1.0
C      1  0.4674820000000  0.5197300000000  0.4101090000000 1.0
C      1  0.4366100000000  0.4931260000000  0.4402320000000 1.0
C      1  0.4899300000000  0.5325740000000  0.5348410000000 1.0
C      1  0.4883550000000  0.5818400000000  0.5492350000000 1.0
C      1  0.4429930000000  0.4574190000000  0.5779600000000 1.0
C      1  0.5252200000000  0.5450750000000  0.4811960000000 1.0
C      1  0.4421950000000  0.4328220000000  0.4512270000000 1.0
C      1  0.5232850000000  0.5091300000000  0.4014380000000 1.0
C      1  0.5139910000000  0.5225760000000  0.4687200000000 1.0
C      1  0.4276800000000  0.5202700000000  0.4404390000000 1.0
C      1  0.5236740000000  0.4781740000000  0.4897680000000 1.0
C      1  0.5594200000000  0.4952950000000  0.5830380000000 1.0
C      1  0.5730800000000  0.4808230000000  0.5618290000000 1.0
C      1  0.4056380000000  0.4881120000000  0.4738720000000 1.0
C      1  0.4368290000000  0.4604110000000  0.5373370000000 1.0
C      1  0.5846620000000  0.4649400000000  0.5086790000000 1.0
C      1  0.5378880000000  0.4786850000000  0.5936710000000 1.0
C      1  0.5894680000000  0.4701510000000  0.4609610000000 1.0
C      1  0.4828570000000  0.4939350000000  0.4808100000000 1.0
C      1  0.5986300000000  0.4954100000000  0.4661190000000 1.0
C      1  0.5353870000000  0.5802230000000  0.5331640000000 1.0
C      1  0.5081300000000  0.5026750000000  0.4904710000000 1.0
C      1  0.5086920000000  0.4522230000000  0.4501030000000 1.0
C      1  0.5008040000000  0.4899730000000  0.3958170000000 1.0
C      1  0.4594460000000  0.4197640000000  0.5201990000000 1.0
C      1  0.4466800000000  0.4457830000000  0.4751040000000 1.0
C      1  0.4052160000000  0.5165140000000  0.4659460000000 1.0
C      1  0.4153510000000  0.4399110000000  0.4992860000000 1.0
C      1  0.4357080000000  0.5365010000000  0.5291870000000 1.0
C      1  0.5553000000000  0.4333610000000  0.5384480000000 1.0
C      1  0.4759890000000  0.5598510000000  0.4545110000000 1.0
C      1  0.4798980000000  0.4934110000000  0.4505660000000 1.0
C      1  0.4449080000000  0.5218730000000  0.4777790000000 1.0
C      1  0.6007790000000  0.5219780000000  0.5122900000000 1.0
C      1  0.4836840000000  0.4502140000000  0.4375300000000 1.0
C      1  0.4691150000000  0.5574960000000  0.4259640000000 1.0
C      1  0.4765080000000  0.4223200000000  0.4980440000000 1.0
C      1  0.5320940000000  0.4059510000000  0.4999170000000 1.0
C      1  0.5671780000000  0.5630380000000  0.4979280000000 1.0
C      1  0.4444080000000  0.5492560000000  0.5633910000000 1.0
C      1  0.4776250000000  0.5869590000000  0.4656630000000 1.0
C      1  0.5555650000000  0.5246610000000  0.5828750000000 1.0
C      1  0.4892200000000  0.4372050000000  0.5785780000000 1.0
C      1  0.5474230000000  0.4958280000000  0.4111730000000 1.0
C      1  0.5098300000000  0.4568840000000  0.5687020000000 1.0
C      1  0.5747600000000  0.5597230000000  0.5482330000000 1.0
C      1  0.5004810000000  0.5882520000000  0.5011260000000 1.0
C      1  0.4789700000000  0.4097310000000  0.5388600000000 1.0
C      1  0.5206360000000  0.5674350000000  0.5809820000000 1.0
C      1  0.5620180000000  0.4844680000000  0.5049670000000 1.0
C      1  0.5203590000000  0.5738050000000  0.4318980000000 1.0
C      1  0.5469850000000  0.5612760000000  0.4705620000000 1.0
C      1  0.4471510000000  0.5358450000000  0.4236890000000 1.0
C      1  0.5386280000000  0.4531490000000  0.5792890000000 1.0
C      1  0.5283570000000  0.5023610000000  0.4474730000000 1.0
C      1  0.5082430000000  0.4088100000000  0.5413310000000 1.0
C      1  0.4920330000000  0.5051780000000  0.5894590000000 1.0
C      1  0.5188620000000  0.5376630000000  0.4099300000000 1.0
C      1  0.5063210000000  0.5563290000000  0.4994460000000 1.0
C      1  0.4472780000000  0.4711160000000  0.4876440000000 1.0
C      1  0.4739820000000  0.5648880000000  0.5666290000000 1.0
C      1  0.5220310000000  0.5556900000000  0.5250510000000 1.0
C      1  0.5312410000000  0.5404500000000  0.5889740000000 1.0
C      1  0.5550960000000  0.4400350000000  0.4679290000000 1.0
C      1  0.4715540000000  0.4919030000000  0.4024580000000 1.0
C      1  0.5265070000000  0.5827300000000  0.4584730000000 1.0
C      1  0.5177830000000  0.4539500000000  0.5079660000000 1.0
C      1  0.5023040000000  0.4897410000000  0.5355590000000 1.0
C      1  0.4240620000000  0.5647480000000  0.5707570000000 1.0
C      1  0.5504430000000  0.5002040000000  0.5247910000000 1.0
C      1  0.5097190000000  0.4629750000000  0.5365530000000 1.0
C      1  0.4620590000000  0.4823160000000  0.4299120000000 1.0
C      1  0.4042250000000  0.5314030000000  0.4905440000000 1.0
C      1  0.6086670000000  0.5006780000000  0.4941260000000 1.0
C      1  0.5330210000000  0.4164620000000  0.5281760000000 1.0
C      1  0.4289940000000  0.5478010000000  0.4839520000000 1.0
C      1  0.5105660000000  0.4681130000000  0.4117860000000 1.0
C      1  0.4848070000000  0.4553260000000  0.4124110000000 1.0
C      1  0.4928090000000  0.5583500000000  0.5874490000000 1.0
C      1  0.4910780000000  0.4139080000000  0.5634600000000 1.0
C      1  0.5689880000000  0.4583410000000  0.4472460000000 1.0
C      1  0.5484700000000  0.4874910000000  0.4798130000000 1.0
C      1  0.5139860000000  0.4237850000000  0.4536000000000 1.0
C      1  0.5634390000000  0.5751780000000  0.5246060000000 1.0
C      1  0.4421970000000  0.5173470000000  0.5722820000000 1.0
C      1  0.4538200000000  0.5097680000000  0.5225630000000 1.0
C      1  0.4982770000000  0.5574850000000  0.4176470000000 1.0
C      1  0.5234680000000  0.5077990000000  0.5235650000000 1.0
C      1  0.4908640000000  0.5354710000000  0.4555670000000 1.0
C      1  0.5722510000000  0.5346850000000  0.5618620000000 1.0
C      1  0.4101830000000  0.5245600000000  0.5189440000000 1.0
C      1  0.4346600000000  0.4357100000000  0.5216570000000 1.0
C      1  0.4678320000000  0.5050000000000  0.5724810000000 1.0
C      1  0.4824040000000  0.4003960000000  0.4790240000000 1.0
C      1  0.5718380000000  0.4393950000000  0.5151050000000 1.0
C      1  0.5974150000000  0.5009400000000  0.5343610000000 1.0
C      1  0.5534410000000  0.5139690000000  0.4567600000000 1.0
C      1  0.5042560000000  0.5315540000000  0.5954210000000 1.0
C      1  0.5180260000000  0.5316830000000  0.5387130000000 1.0
C      1  0.6061050000000  0.4816910000000  0.5151860000000 1.0
C      1  0.5671410000000  0.4852180000000  0.4295770000000 1.0
C      1  0.5700180000000  0.5052160000000  0.5452510000000 1.0
C      1  0.5048230000000  0.5955250000000  0.4734380000000 1.0
C      1  0.5558350000000  0.5420120000000  0.4485700000000 1.0
C      1  0.4798940000000  0.5900150000000  0.5211660000000 1.0
C      1  0.4880710000000  0.4107790000000  0.4522880000000 1.0
C      1  0.4364950000000  0.4840660000000  0.5190920000000 1.0
C      1  0.4014780000000  0.4655910000000  0.4917960000000 1.0
C      1  0.4831310000000  0.5165570000000  0.4367990000000 1.0
C      1  0.4133310000000  0.4990900000000  0.5327080000000 1.0
C      1  0.4683440000000  0.4276070000000  0.4379710000000 1.0
C      1  0.4905590000000  0.4468160000000  0.4965170000000 1.0
C      1  0.5097160000000  0.4825070000000  0.5872510000000 1.0
C      1  0.4374790000000  0.4928690000000  0.4711720000000 1.0
END
