TITL C-4164232-771-149 10.7835400005282 125000 -12112.4483143934 0 0 82 (C1) n - 1
REM
REM in /home/nfs/bkarasulu/CARBON/AIRSS/Generating-Clusters/ReaxFF-fromJPCA2015/Units_Real/with-SteepDescent/Only-C1/SD-CG/Try1-3A/FIRE-CG
REM
REM
REM
REM
REM
REM ./C.cell (11c1c37f851c82e70ff6c80c92926a4b)
REM
REM compiler GCC version 9.2.1 20190827 (Red Hat 9.2.1-1)
REM options -cpp -mtune=generic -march=x86-64 -g -O0 -fpre-include=/usr/include/finclude/math-vector-fortran.h
REM seed -2021362575 973850196 -197191449 1719792513 93346431 -1919656984 1568522013 1522527564 -232917679 -463896333 -11210712 331139291 -1941698687 1173907317 814164591 1604311091 -1068593479 467042462 -194219900 -115898820 -1215864619 957799579 -647068255 -786540666 337640733 -1013915632 533012383 -1045711532 -852840143 -2090326568 1864786265 -703824567 -540955369
REM
CELL 1.54180   50.00000   50.00000   50.00000   90.00000   90.00000   90.00000
LATT -1
SFAC C  
C      1  0.4841700000000  0.5575910000000  0.4527470000000 1.0
C      1  0.5819880000000  0.5211220000000  0.5144780000000 1.0
C      1  0.5160950000000  0.4252040000000  0.5586360000000 1.0
C      1  0.5731000000000  0.5352790000000  0.4758680000000 1.0
C      1  0.4976910000000  0.4585960000000  0.5240260000000 1.0
C      1  0.5137830000000  0.4738250000000  0.4233800000000 1.0
C      1  0.5229510000000  0.4948430000000  0.4843390000000 1.0
C      1  0.4335530000000  0.4513170000000  0.4733420000000 1.0
C      1  0.5223690000000  0.4380830000000  0.4565000000000 1.0
C      1  0.5366150000000  0.5564430000000  0.4477900000000 1.0
C      1  0.4942350000000  0.5337760000000  0.4681440000000 1.0
C      1  0.5016560000000  0.5665870000000  0.5362770000000 1.0
C      1  0.5715740000000  0.4973650000000  0.5285040000000 1.0
C      1  0.5378160000000  0.4514100000000  0.4938360000000 1.0
C      1  0.4796570000000  0.5657980000000  0.5167270000000 1.0
C      1  0.4861970000000  0.5128860000000  0.5881450000000 1.0
C      1  0.4512310000000  0.5388800000000  0.5613510000000 1.0
C      1  0.4376890000000  0.5368850000000  0.5007010000000 1.0
C      1  0.4656840000000  0.5504130000000  0.4306470000000 1.0
C      1  0.5234340000000  0.5512540000000  0.5269320000000 1.0
C      1  0.5436630000000  0.4993280000000  0.5370200000000 1.0
C      1  0.4530300000000  0.5113390000000  0.4353420000000 1.0
C      1  0.4590690000000  0.5007730000000  0.5796900000000 1.0
C      1  0.4267230000000  0.5113510000000  0.5110180000000 1.0
C      1  0.5313770000000  0.5801350000000  0.4651460000000 1.0
C      1  0.4833180000000  0.5799050000000  0.4921280000000 1.0
C      1  0.5141830000000  0.4177790000000  0.4769180000000 1.0
C      1  0.5064310000000  0.5241000000000  0.5689700000000 1.0
C      1  0.5680510000000  0.5451890000000  0.5034650000000 1.0
C      1  0.4991720000000  0.4758870000000  0.4794010000000 1.0
C      1  0.5024690000000  0.4529000000000  0.4401280000000 1.0
C      1  0.4587460000000  0.5029160000000  0.4796870000000 1.0
C      1  0.5876070000000  0.5116670000000  0.4867750000000 1.0
C      1  0.4603450000000  0.4417050000000  0.4674280000000 1.0
C      1  0.4713200000000  0.5544000000000  0.5597720000000 1.0
C      1  0.5043800000000  0.5236130000000  0.4195150000000 1.0
C      1  0.4985110000000  0.4182030000000  0.5021720000000 1.0
C      1  0.5460000000000  0.5625270000000  0.5119750000000 1.0
C      1  0.5162720000000  0.5245470000000  0.4845380000000 1.0
C      1  0.5276220000000  0.5042190000000  0.5633570000000 1.0
C      1  0.4427030000000  0.5492360000000  0.4737130000000 1.0
C      1  0.5269640000000  0.4103220000000  0.5023220000000 1.0
C      1  0.5511620000000  0.4840770000000  0.4655990000000 1.0
C      1  0.5534720000000  0.5326900000000  0.4540450000000 1.0
C      1  0.4318760000000  0.4999370000000  0.4860510000000 1.0
C      1  0.5386650000000  0.4215060000000  0.5412510000000 1.0
C      1  0.4593230000000  0.4756700000000  0.5663810000000 1.0
C      1  0.5573680000000  0.4497370000000  0.5160070000000 1.0
C      1  0.5097720000000  0.4574440000000  0.4986340000000 1.0
C      1  0.5745130000000  0.4734470000000  0.5108580000000 1.0
C      1  0.4933210000000  0.4432390000000  0.5477110000000 1.0
C      1  0.4392370000000  0.5129340000000  0.5612430000000 1.0
C      1  0.5460550000000  0.5061710000000  0.4450030000000 1.0
C      1  0.4548140000000  0.4877430000000  0.4542350000000 1.0
C      1  0.5102720000000  0.5892570000000  0.4835750000000 1.0
C      1  0.4438120000000  0.5374790000000  0.4462670000000 1.0
C      1  0.5521630000000  0.4205240000000  0.5167470000000 1.0
C      1  0.4802510000000  0.4638660000000  0.4591450000000 1.0
C      1  0.5442080000000  0.4545280000000  0.4654390000000 1.0
C      1  0.4585650000000  0.4231700000000  0.4905890000000 1.0
C      1  0.5275370000000  0.4920400000000  0.5145560000000 1.0
C      1  0.5059410000000  0.4952370000000  0.5979250000000 1.0
C      1  0.4450760000000  0.4715000000000  0.5410100000000 1.0
C      1  0.4892980000000  0.4821190000000  0.5357040000000 1.0
C      1  0.4648430000000  0.5689610000000  0.4718070000000 1.0
C      1  0.4516140000000  0.4484270000000  0.5225760000000 1.0
C      1  0.4652060000000  0.5409070000000  0.5106470000000 1.0
C      1  0.5039990000000  0.5043580000000  0.5254020000000 1.0
C      1  0.5754380000000  0.4853130000000  0.4843630000000 1.0
C      1  0.4750280000000  0.5238540000000  0.4883600000000 1.0
C      1  0.4991510000000  0.5526800000000  0.5603490000000 1.0
C      1  0.5159680000000  0.4807080000000  0.5762110000000 1.0
C      1  0.4350770000000  0.4385320000000  0.5004960000000 1.0
C      1  0.5101280000000  0.5297190000000  0.5124290000000 1.0
C      1  0.4339930000000  0.4979290000000  0.5355920000000 1.0
C      1  0.4744340000000  0.5242930000000  0.4198260000000 1.0
C      1  0.4730380000000  0.4277330000000  0.5156160000000 1.0
C      1  0.4896530000000  0.4679630000000  0.5624130000000 1.0
C      1  0.5373310000000  0.5837370000000  0.4936230000000 1.0
C      1  0.4283630000000  0.4791080000000  0.4666330000000 1.0
C      1  0.5165560000000  0.5500290000000  0.4262870000000 1.0
C      1  0.5240310000000  0.5018380000000  0.4265390000000 1.0
END
