TITL C-4164243-3780-450 -2.46817392066438 125000 -9548.59816182123 0 0 65 (C1) n - 1
REM
REM in /home/nfs/bkarasulu/CARBON/AIRSS/Generating-Clusters/ReaxFF-fromJPCA2015/Units_Real/with-SteepDescent/Only-C1/SD-CG/Try1-3A/FIRE-CG
REM
REM
REM
REM
REM
REM ./C.cell (11c1c37f851c82e70ff6c80c92926a4b)
REM
REM compiler GCC version 9.2.1 20190827 (Red Hat 9.2.1-1)
REM options -cpp -mtune=generic -march=x86-64 -g -O0 -fpre-include=/usr/include/finclude/math-vector-fortran.h
REM seed 1571250691 -466204577 -1996996457 -1222224711 1885357470 -899168697 1845477178 338274398 1476129354 -746613674 -1107698199 -1908131317 959457400 450578226 410993419 -819555583 1587140001 1506627373 -442411929 -1538285199 1081179697 1252325766 -1929902573 1828587681 1833155128 -1608626926 -232303714 -185150409 -747952361 2035846662 -680783139 1461050877 -1632720680
REM
CELL 1.54180   50.00000   50.00000   50.00000   90.00000   90.00000   90.00000
LATT -1
SFAC C  
C      1  0.4697200000000  0.5624500000000  0.4976380000000 1.0
C      1  0.4684780000000  0.4820810000000  0.5440820000000 1.0
C      1  0.4317060000000  0.5416590000000  0.5125320000000 1.0
C      1  0.5287250000000  0.4489680000000  0.4883010000000 1.0
C      1  0.5064150000000  0.4533420000000  0.5593190000000 1.0
C      1  0.4828290000000  0.4280810000000  0.4690230000000 1.0
C      1  0.4291020000000  0.4831570000000  0.4787250000000 1.0
C      1  0.4868400000000  0.4744160000000  0.5649610000000 1.0
C      1  0.4945010000000  0.4793740000000  0.4260460000000 1.0
C      1  0.4798020000000  0.5054610000000  0.4230010000000 1.0
C      1  0.4278130000000  0.5467280000000  0.4844730000000 1.0
C      1  0.5286950000000  0.5188980000000  0.5667250000000 1.0
C      1  0.4995710000000  0.5183860000000  0.5563500000000 1.0
C      1  0.4885230000000  0.4219720000000  0.4968700000000 1.0
C      1  0.5576130000000  0.4508510000000  0.4914650000000 1.0
C      1  0.5802270000000  0.4872060000000  0.4982750000000 1.0
C      1  0.5614650000000  0.4540740000000  0.4611070000000 1.0
C      1  0.5433830000000  0.5425100000000  0.5547570000000 1.0
C      1  0.4555930000000  0.5086170000000  0.5432040000000 1.0
C      1  0.5638410000000  0.5361270000000  0.5332380000000 1.0
C      1  0.5531010000000  0.5049840000000  0.4945580000000 1.0
C      1  0.4881760000000  0.4943330000000  0.4697750000000 1.0
C      1  0.5455790000000  0.4623100000000  0.4382760000000 1.0
C      1  0.5111300000000  0.4280750000000  0.4788250000000 1.0
C      1  0.5417650000000  0.5118330000000  0.4653200000000 1.0
C      1  0.4744680000000  0.5519440000000  0.4477150000000 1.0
C      1  0.5386780000000  0.4925150000000  0.5616480000000 1.0
C      1  0.4849510000000  0.4400480000000  0.5198810000000 1.0
C      1  0.4396300000000  0.5031320000000  0.4587170000000 1.0
C      1  0.5009960000000  0.5464140000000  0.4553810000000 1.0
C      1  0.4716950000000  0.5299170000000  0.5565620000000 1.0
C      1  0.4585740000000  0.5442370000000  0.4737600000000 1.0
C      1  0.5096710000000  0.4488100000000  0.5310950000000 1.0
C      1  0.5989710000000  0.5041190000000  0.5148950000000 1.0
C      1  0.4222080000000  0.4922360000000  0.5066970000000 1.0
C      1  0.4924900000000  0.4865410000000  0.4976800000000 1.0
C      1  0.4724260000000  0.5559620000000  0.5435740000000 1.0
C      1  0.4707260000000  0.4670560000000  0.5176660000000 1.0
C      1  0.4541080000000  0.5603830000000  0.5216990000000 1.0
C      1  0.4354640000000  0.5136380000000  0.5227650000000 1.0
C      1  0.5221730000000  0.5567520000000  0.5449120000000 1.0
C      1  0.5166170000000  0.4779440000000  0.5725900000000 1.0
C      1  0.5775550000000  0.5103980000000  0.5350980000000 1.0
C      1  0.4192790000000  0.4658560000000  0.5212990000000 1.0
C      1  0.5229840000000  0.4817750000000  0.4331680000000 1.0
C      1  0.5104430000000  0.5430070000000  0.4857870000000 1.0
C      1  0.5028300000000  0.5140090000000  0.5028840000000 1.0
C      1  0.5559880000000  0.4864520000000  0.5349280000000 1.0
C      1  0.5356020000000  0.4921640000000  0.5146420000000 1.0
C      1  0.5408200000000  0.5492030000000  0.4862880000000 1.0
C      1  0.5175980000000  0.4992110000000  0.4551580000000 1.0
C      1  0.4652030000000  0.4499720000000  0.4608660000000 1.0
C      1  0.4634740000000  0.5143530000000  0.4714760000000 1.0
C      1  0.4437100000000  0.4547450000000  0.5076080000000 1.0
C      1  0.5687130000000  0.4661620000000  0.5136970000000 1.0
C      1  0.4540720000000  0.5006900000000  0.4341470000000 1.0
C      1  0.5012040000000  0.5161930000000  0.5295580000000 1.0
C      1  0.4990070000000  0.5666180000000  0.5332480000000 1.0
C      1  0.5571080000000  0.5340890000000  0.5053050000000 1.0
C      1  0.5170390000000  0.4699560000000  0.5084000000000 1.0
C      1  0.4424070000000  0.4575870000000  0.4781040000000 1.0
C      1  0.4798850000000  0.4729260000000  0.4506630000000 1.0
C      1  0.4972430000000  0.5637040000000  0.5030740000000 1.0
C      1  0.4898880000000  0.5331130000000  0.4318020000000 1.0
C      1  0.5495090000000  0.5402750000000  0.4587140000000 1.0
END
