TITL C-4164237-1827-317 38.9527930229219 125000 -21419.9101297563 0 0 144 (C1) n - 1
REM
REM in /home/nfs/bkarasulu/CARBON/AIRSS/Generating-Clusters/ReaxFF-fromJPCA2015/Units_Real/with-SteepDescent/Only-C1/SD-CG/Try1-3A/FIRE-CG
REM
REM
REM
REM
REM
REM ./C.cell (11c1c37f851c82e70ff6c80c92926a4b)
REM
REM compiler GCC version 9.2.1 20190827 (Red Hat 9.2.1-1)
REM options -cpp -mtune=generic -march=x86-64 -g -O0 -fpre-include=/usr/include/finclude/math-vector-fortran.h
REM seed -2078151029 -1310607012 1454530574 -1604848612 -99116723 -112786586 512324955 -1514419694 -158124321 -582468031 -209381790 -144905705 452473904 1271588935 1903172802 -1252900512 1091768909 -1927854935 -1818597021 804013215 -872657647 660217804 373790925 2055396468 -202894501 259242298 -80726610 -563042836 1858959387 1551113460 1931807466 2123770611 322667102
REM
CELL 1.54180   50.00000   50.00000   50.00000   90.00000   90.00000   90.00000
LATT -1
SFAC C  
C      1  0.5101240000000  0.3992350000000  0.4818130000000 1.0
C      1  0.4776520000000  0.4596950000000  0.5443460000000 1.0
C      1  0.4248520000000  0.5079840000000  0.4283050000000 1.0
C      1  0.4261710000000  0.5522400000000  0.4628390000000 1.0
C      1  0.6047120000000  0.4921690000000  0.4878290000000 1.0
C      1  0.4661990000000  0.4095710000000  0.5004890000000 1.0
C      1  0.4269250000000  0.4799460000000  0.5495090000000 1.0
C      1  0.5563150000000  0.5917090000000  0.4516070000000 1.0
C      1  0.4286300000000  0.5691090000000  0.4855710000000 1.0
C      1  0.4884650000000  0.6000010000000  0.5265610000000 1.0
C      1  0.4607010000000  0.5120180000000  0.4955810000000 1.0
C      1  0.4011090000000  0.5053630000000  0.5129340000000 1.0
C      1  0.4909510000000  0.4800830000000  0.5515390000000 1.0
C      1  0.5335840000000  0.5579410000000  0.5718520000000 1.0
C      1  0.5209390000000  0.4379510000000  0.4152320000000 1.0
C      1  0.4622460000000  0.4831020000000  0.4969000000000 1.0
C      1  0.4284470000000  0.5498830000000  0.5412220000000 1.0
C      1  0.4875390000000  0.5506560000000  0.4782920000000 1.0
C      1  0.4615120000000  0.5537590000000  0.5209820000000 1.0
C      1  0.4935800000000  0.4431620000000  0.5039730000000 1.0
C      1  0.4095370000000  0.5287070000000  0.4677540000000 1.0
C      1  0.5661480000000  0.4880170000000  0.4721460000000 1.0
C      1  0.4222720000000  0.4531900000000  0.4570230000000 1.0
C      1  0.4820540000000  0.5410010000000  0.4129470000000 1.0
C      1  0.5940470000000  0.4924740000000  0.5273310000000 1.0
C      1  0.4172810000000  0.5509430000000  0.5042240000000 1.0
C      1  0.5488250000000  0.5594770000000  0.5181700000000 1.0
C      1  0.5574540000000  0.4534540000000  0.5638010000000 1.0
C      1  0.4306430000000  0.4296050000000  0.4507020000000 1.0
C      1  0.4585550000000  0.4730600000000  0.5928650000000 1.0
C      1  0.4849620000000  0.5522420000000  0.5820210000000 1.0
C      1  0.4090750000000  0.5039170000000  0.5408390000000 1.0
C      1  0.4740750000000  0.4655110000000  0.4214730000000 1.0
C      1  0.5196760000000  0.4847090000000  0.5488280000000 1.0
C      1  0.4727450000000  0.4356910000000  0.4847320000000 1.0
C      1  0.5219370000000  0.4493010000000  0.4966240000000 1.0
C      1  0.4672570000000  0.5905440000000  0.4683630000000 1.0
C      1  0.5057450000000  0.4179330000000  0.5685240000000 1.0
C      1  0.5911150000000  0.4743540000000  0.4674280000000 1.0
C      1  0.4862860000000  0.5225720000000  0.5394940000000 1.0
C      1  0.5729660000000  0.5214330000000  0.5714340000000 1.0
C      1  0.5247640000000  0.5481170000000  0.5242170000000 1.0
C      1  0.4446340000000  0.4084770000000  0.4488020000000 1.0
C      1  0.4547590000000  0.5725770000000  0.5415550000000 1.0
C      1  0.5540820000000  0.5658280000000  0.4412840000000 1.0
C      1  0.4020770000000  0.5284980000000  0.4954790000000 1.0
C      1  0.4650800000000  0.4122260000000  0.5293180000000 1.0
C      1  0.4891920000000  0.4056640000000  0.5460220000000 1.0
C      1  0.5554530000000  0.4808650000000  0.4196760000000 1.0
C      1  0.4952360000000  0.4887700000000  0.4586990000000 1.0
C      1  0.4470270000000  0.5012090000000  0.5555270000000 1.0
C      1  0.4962800000000  0.5939910000000  0.4641720000000 1.0
C      1  0.5586130000000  0.5442670000000  0.5611350000000 1.0
C      1  0.5140600000000  0.3992740000000  0.5325490000000 1.0
C      1  0.5149200000000  0.5513000000000  0.4684970000000 1.0
C      1  0.5237030000000  0.5109710000000  0.5610860000000 1.0
C      1  0.5281990000000  0.4670480000000  0.4165940000000 1.0
C      1  0.5708490000000  0.4793710000000  0.5712880000000 1.0
C      1  0.4698570000000  0.5284030000000  0.4672660000000 1.0
C      1  0.5004890000000  0.5801040000000  0.4386460000000 1.0
C      1  0.4391320000000  0.4648260000000  0.5750930000000 1.0
C      1  0.4576470000000  0.4465380000000  0.5608440000000 1.0
C      1  0.4512200000000  0.5872450000000  0.4922840000000 1.0
C      1  0.4175220000000  0.4608350000000  0.5055330000000 1.0
C      1  0.5135690000000  0.5423960000000  0.5853290000000 1.0
C      1  0.5807890000000  0.5447440000000  0.4805440000000 1.0
C      1  0.4447160000000  0.4312830000000  0.5393510000000 1.0
C      1  0.4764090000000  0.5731390000000  0.5637910000000 1.0
C      1  0.4610180000000  0.5346690000000  0.5888640000000 1.0
C      1  0.5527670000000  0.4918500000000  0.4475440000000 1.0
C      1  0.5604120000000  0.5624590000000  0.4908390000000 1.0
C      1  0.5307080000000  0.4137430000000  0.5516970000000 1.0
C      1  0.5249750000000  0.4156240000000  0.4628580000000 1.0
C      1  0.4418400000000  0.5124160000000  0.4132800000000 1.0
C      1  0.5344950000000  0.5119110000000  0.4484150000000 1.0
C      1  0.5862580000000  0.4977080000000  0.5534250000000 1.0
C      1  0.5246130000000  0.5131000000000  0.4190830000000 1.0
C      1  0.4120560000000  0.4779240000000  0.4676910000000 1.0
C      1  0.4285780000000  0.4534680000000  0.5285750000000 1.0
C      1  0.5992750000000  0.4720060000000  0.5089560000000 1.0
C      1  0.5182740000000  0.5952180000000  0.4839430000000 1.0
C      1  0.4887860000000  0.5156090000000  0.4497260000000 1.0
C      1  0.4700600000000  0.3984200000000  0.4553990000000 1.0
C      1  0.4920910000000  0.4418680000000  0.4170740000000 1.0
C      1  0.5100710000000  0.4893920000000  0.4073910000000 1.0
C      1  0.4689530000000  0.4734920000000  0.4496350000000 1.0
C      1  0.4797690000000  0.4870460000000  0.6065990000000 1.0
C      1  0.5274050000000  0.5259750000000  0.4726290000000 1.0
C      1  0.5071040000000  0.4902410000000  0.4852680000000 1.0
C      1  0.5122750000000  0.5317110000000  0.5432050000000 1.0
C      1  0.4839540000000  0.5523410000000  0.5062270000000 1.0
C      1  0.5550940000000  0.4299360000000  0.5457840000000 1.0
C      1  0.5173970000000  0.4603450000000  0.5933700000000 1.0
C      1  0.4616090000000  0.5928620000000  0.5191790000000 1.0
C      1  0.5033390000000  0.5314860000000  0.4297780000000 1.0
C      1  0.5608000000000  0.4339060000000  0.4514920000000 1.0
C      1  0.4819680000000  0.4897460000000  0.4060650000000 1.0
C      1  0.5760970000000  0.5491520000000  0.4530020000000 1.0
C      1  0.4023970000000  0.4804590000000  0.4957370000000 1.0
C      1  0.5017280000000  0.4343950000000  0.5928770000000 1.0
C      1  0.4580680000000  0.4643620000000  0.4745170000000 1.0
C      1  0.5930500000000  0.5325320000000  0.4319040000000 1.0
C      1  0.4815950000000  0.4251140000000  0.4598880000000 1.0
C      1  0.5262810000000  0.4441400000000  0.4689240000000 1.0
C      1  0.4778250000000  0.5115610000000  0.5907370000000 1.0
C      1  0.4681630000000  0.5170440000000  0.4043300000000 1.0
C      1  0.5567270000000  0.5118640000000  0.5200650000000 1.0
C      1  0.5332430000000  0.4948540000000  0.5199190000000 1.0
C      1  0.5377850000000  0.4233480000000  0.4367270000000 1.0
C      1  0.4792080000000  0.4650610000000  0.5165290000000 1.0
C      1  0.5142900000000  0.5148320000000  0.4977330000000 1.0
C      1  0.5248440000000  0.5819500000000  0.5561880000000 1.0
C      1  0.5798230000000  0.4460870000000  0.4704650000000 1.0
C      1  0.5385840000000  0.4284670000000  0.5084040000000 1.0
C      1  0.4161440000000  0.5285340000000  0.5562140000000 1.0
C      1  0.5656350000000  0.4314300000000  0.5177610000000 1.0
C      1  0.5668160000000  0.5079270000000  0.4939900000000 1.0
C      1  0.5354310000000  0.5861710000000  0.5297500000000 1.0
C      1  0.4562770000000  0.5737940000000  0.4461320000000 1.0
C      1  0.5529770000000  0.5057190000000  0.4057480000000 1.0
C      1  0.4946060000000  0.4410350000000  0.4436160000000 1.0
C      1  0.4966690000000  0.5902630000000  0.5535540000000 1.0
C      1  0.5216110000000  0.5596010000000  0.4405020000000 1.0
C      1  0.4401200000000  0.5370730000000  0.5168300000000 1.0
C      1  0.5144640000000  0.5976200000000  0.5121550000000 1.0
C      1  0.5469070000000  0.5860410000000  0.4778900000000 1.0
C      1  0.5819370000000  0.4477430000000  0.4998970000000 1.0
C      1  0.5095020000000  0.4870290000000  0.6023880000000 1.0
C      1  0.5167380000000  0.4109180000000  0.5069560000000 1.0
C      1  0.5934710000000  0.5192690000000  0.4929040000000 1.0
C      1  0.4815020000000  0.3922550000000  0.4827080000000 1.0
C      1  0.4845550000000  0.5236460000000  0.5108970000000 1.0
C      1  0.4769940000000  0.5668360000000  0.4262880000000 1.0
C      1  0.5271440000000  0.4764750000000  0.4980570000000 1.0
C      1  0.4388450000000  0.5219810000000  0.5737520000000 1.0
C      1  0.5256890000000  0.5106340000000  0.5900710000000 1.0
C      1  0.5572530000000  0.5018100000000  0.5845020000000 1.0
C      1  0.5750720000000  0.5169570000000  0.4163770000000 1.0
C      1  0.5141260000000  0.4625770000000  0.4495910000000 1.0
C      1  0.4504870000000  0.5458010000000  0.4507590000000 1.0
C      1  0.5303970000000  0.4624520000000  0.5670280000000 1.0
C      1  0.5627310000000  0.5378720000000  0.5331610000000 1.0
C      1  0.4108420000000  0.5040660000000  0.4524700000000 1.0
C      1  0.4758160000000  0.5030960000000  0.5574360000000 1.0
END
