TITL C-4164242-3624-64 2.43225105577313 125000 -15045.7295480816 0 0 102 (C1) n - 1
REM
REM in /home/nfs/bkarasulu/CARBON/AIRSS/Generating-Clusters/ReaxFF-fromJPCA2015/Units_Real/with-SteepDescent/Only-C1/SD-CG/Try1-3A/FIRE-CG
REM
REM
REM
REM
REM
REM ./C.cell (11c1c37f851c82e70ff6c80c92926a4b)
REM
REM compiler GCC version 9.2.1 20190827 (Red Hat 9.2.1-1)
REM options -cpp -mtune=generic -march=x86-64 -g -O0 -fpre-include=/usr/include/finclude/math-vector-fortran.h
REM seed 1442640187 1007876048 1924020852 -126583626 -1220606735 2117816286 -699762714 -2030703994 -556093275 1755645781 1765438515 1165903273 624022898 -596009543 -976297160 -2015781470 1286249244 -600549543 1252716788 1790762432 2003682680 1734636666 -1545817247 -1143337719 1663556680 442054491 -1088581760 1999544877 -1946702957 -1967901087 -1322627595 -1441264616 -1692246946
REM
CELL 1.54180   50.00000   50.00000   50.00000   90.00000   90.00000   90.00000
LATT -1
SFAC C  
C      1  0.5126290000000  0.5796400000000  0.5034370000000 1.0
C      1  0.4508050000000  0.5048980000000  0.4284990000000 1.0
C      1  0.4338470000000  0.4605570000000  0.5153310000000 1.0
C      1  0.5322510000000  0.4743020000000  0.4177130000000 1.0
C      1  0.5122230000000  0.4328800000000  0.5520700000000 1.0
C      1  0.4696300000000  0.4947150000000  0.5680010000000 1.0
C      1  0.5418560000000  0.4579870000000  0.4404980000000 1.0
C      1  0.5628650000000  0.4889480000000  0.5614260000000 1.0
C      1  0.4380890000000  0.5479820000000  0.4547880000000 1.0
C      1  0.4575130000000  0.4244890000000  0.4880580000000 1.0
C      1  0.5689520000000  0.4488220000000  0.4705880000000 1.0
C      1  0.5704390000000  0.5426140000000  0.5184890000000 1.0
C      1  0.4513420000000  0.5510670000000  0.5130930000000 1.0
C      1  0.5108850000000  0.5464620000000  0.5882800000000 1.0
C      1  0.4941660000000  0.4315910000000  0.4559580000000 1.0
C      1  0.5809160000000  0.4995440000000  0.4320510000000 1.0
C      1  0.4952630000000  0.5012180000000  0.4527110000000 1.0
C      1  0.4724500000000  0.4632550000000  0.4222400000000 1.0
C      1  0.4244440000000  0.5088850000000  0.5557900000000 1.0
C      1  0.5404290000000  0.5245000000000  0.4249310000000 1.0
C      1  0.4832560000000  0.5281790000000  0.4432720000000 1.0
C      1  0.4552440000000  0.5325960000000  0.4355740000000 1.0
C      1  0.4543940000000  0.5420760000000  0.5388050000000 1.0
C      1  0.4577990000000  0.4614400000000  0.4478160000000 1.0
C      1  0.4102470000000  0.5063980000000  0.4817570000000 1.0
C      1  0.5221820000000  0.5166000000000  0.5253630000000 1.0
C      1  0.5331770000000  0.5707960000000  0.5189010000000 1.0
C      1  0.5755130000000  0.4795300000000  0.4581890000000 1.0
C      1  0.4761370000000  0.4396880000000  0.5752160000000 1.0
C      1  0.4616460000000  0.5883430000000  0.4840390000000 1.0
C      1  0.4658320000000  0.5355210000000  0.4913430000000 1.0
C      1  0.4936810000000  0.5276940000000  0.4976040000000 1.0
C      1  0.5916850000000  0.4863720000000  0.4839700000000 1.0
C      1  0.5144860000000  0.4691470000000  0.4379710000000 1.0
C      1  0.5076110000000  0.5110200000000  0.4772990000000 1.0
C      1  0.4737410000000  0.4287810000000  0.5349930000000 1.0
C      1  0.5709120000000  0.4651950000000  0.5218200000000 1.0
C      1  0.4186630000000  0.5320720000000  0.4698600000000 1.0
C      1  0.5700180000000  0.4941250000000  0.5327840000000 1.0
C      1  0.5504800000000  0.4869110000000  0.4708080000000 1.0
C      1  0.4338070000000  0.4572240000000  0.4637820000000 1.0
C      1  0.4887900000000  0.4579520000000  0.4749990000000 1.0
C      1  0.5883310000000  0.5134520000000  0.4932780000000 1.0
C      1  0.5180740000000  0.4264130000000  0.4743630000000 1.0
C      1  0.4957910000000  0.4489940000000  0.4314060000000 1.0
C      1  0.4737690000000  0.4918400000000  0.4149440000000 1.0
C      1  0.5152120000000  0.5675900000000  0.5702680000000 1.0
C      1  0.4225160000000  0.4812560000000  0.4683100000000 1.0
C      1  0.5506770000000  0.5310230000000  0.4999340000000 1.0
C      1  0.5242820000000  0.5474100000000  0.4309970000000 1.0
C      1  0.4365840000000  0.4480080000000  0.4892320000000 1.0
C      1  0.4930210000000  0.5659560000000  0.5506960000000 1.0
C      1  0.5537280000000  0.5619510000000  0.5343680000000 1.0
C      1  0.4803390000000  0.4206860000000  0.5080710000000 1.0
C      1  0.4541630000000  0.4371520000000  0.5546920000000 1.0
C      1  0.4905210000000  0.5787570000000  0.5240100000000 1.0
C      1  0.4104660000000  0.5172150000000  0.5321590000000 1.0
C      1  0.5090990000000  0.4215120000000  0.5010360000000 1.0
C      1  0.5261080000000  0.5021240000000  0.4114040000000 1.0
C      1  0.5425160000000  0.5075860000000  0.5130500000000 1.0
C      1  0.4892950000000  0.4671060000000  0.5004280000000 1.0
C      1  0.4177350000000  0.5026510000000  0.5098130000000 1.0
C      1  0.5673430000000  0.5317700000000  0.4734040000000 1.0
C      1  0.5189310000000  0.4724550000000  0.5756500000000 1.0
C      1  0.5647440000000  0.5202950000000  0.4419440000000 1.0
C      1  0.4643440000000  0.5774070000000  0.5111940000000 1.0
C      1  0.5438160000000  0.5578030000000  0.5638230000000 1.0
C      1  0.5019720000000  0.5042790000000  0.5371210000000 1.0
C      1  0.4766980000000  0.4793800000000  0.4605300000000 1.0
C      1  0.5082530000000  0.5752630000000  0.4734540000000 1.0
C      1  0.5236240000000  0.4973230000000  0.5908510000000 1.0
C      1  0.4945530000000  0.4831710000000  0.5559620000000 1.0
C      1  0.4397860000000  0.4864120000000  0.5137960000000 1.0
C      1  0.5036420000000  0.5192830000000  0.5930440000000 1.0
C      1  0.5567460000000  0.5591070000000  0.4665080000000 1.0
C      1  0.4827780000000  0.5111000000000  0.5197410000000 1.0
C      1  0.4996690000000  0.5360720000000  0.4202090000000 1.0
C      1  0.5857370000000  0.5176580000000  0.5214310000000 1.0
C      1  0.4926220000000  0.4514380000000  0.5418520000000 1.0
C      1  0.4787100000000  0.5214140000000  0.5763460000000 1.0
C      1  0.4533040000000  0.5734260000000  0.4608950000000 1.0
C      1  0.5465240000000  0.4660680000000  0.5601160000000 1.0
C      1  0.5297050000000  0.4940550000000  0.4869670000000 1.0
C      1  0.4433730000000  0.4868350000000  0.5581700000000 1.0
C      1  0.4422920000000  0.5008400000000  0.4576770000000 1.0
C      1  0.5504490000000  0.5067910000000  0.5826550000000 1.0
C      1  0.5083020000000  0.4574890000000  0.5199760000000 1.0
C      1  0.4819970000000  0.5818540000000  0.4633770000000 1.0
C      1  0.4284290000000  0.5361540000000  0.5435540000000 1.0
C      1  0.5265190000000  0.4344260000000  0.5265550000000 1.0
C      1  0.5479020000000  0.5327930000000  0.5731790000000 1.0
C      1  0.4671930000000  0.4910550000000  0.5046690000000 1.0
C      1  0.5051210000000  0.4438240000000  0.5779930000000 1.0
C      1  0.5426600000000  0.4394350000000  0.4630830000000 1.0
C      1  0.5812110000000  0.4604590000000  0.4949800000000 1.0
C      1  0.4979140000000  0.5084380000000  0.4081640000000 1.0
C      1  0.4753040000000  0.5443450000000  0.5580430000000 1.0
C      1  0.4669250000000  0.4151750000000  0.4630180000000 1.0
C      1  0.4390220000000  0.4602510000000  0.5441450000000 1.0
C      1  0.4582990000000  0.5098180000000  0.4806310000000 1.0
C      1  0.5515940000000  0.4502150000000  0.5366800000000 1.0
C      1  0.5294720000000  0.5639270000000  0.4560400000000 1.0
END
