TITL C-4164239-2837-606 0.916194349586188 125000 -12127.1652267004 0 0 81 (C1) n - 1
REM
REM in /home/nfs/bkarasulu/CARBON/AIRSS/Generating-Clusters/ReaxFF-fromJPCA2015/Units_Real/with-SteepDescent/Only-C1/SD-CG/Try1-3A/FIRE-CG
REM
REM
REM
REM
REM
REM ./C.cell (11c1c37f851c82e70ff6c80c92926a4b)
REM
REM compiler GCC version 9.2.1 20190827 (Red Hat 9.2.1-1)
REM options -cpp -mtune=generic -march=x86-64 -g -O0 -fpre-include=/usr/include/finclude/math-vector-fortran.h
REM seed -2125875199 1026283090 563924318 1444705622 1682557444 -618981811 831015218 1073910633 -1132156218 1408367204 -1623811849 1151387409 -509164107 -1298962346 -1133512318 699109934 -1584181695 1110497980 -674653722 -1194701855 1664833334 -1348596987 905047532 943317487 1630170453 568915080 1410684726 1582601679 -1520085114 851909569 634559611 -2072571279 553472646
REM
CELL 1.54180   50.00000   50.00000   50.00000   90.00000   90.00000   90.00000
LATT -1
SFAC C  
C      1  0.4930480000000  0.5625850000000  0.4401020000000 1.0
C      1  0.4767360000000  0.5736270000000  0.4811250000000 1.0
C      1  0.5847350000000  0.4886650000000  0.5078000000000 1.0
C      1  0.4190690000000  0.4751910000000  0.4981150000000 1.0
C      1  0.5574640000000  0.4844010000000  0.5394950000000 1.0
C      1  0.5081990000000  0.4772550000000  0.4192890000000 1.0
C      1  0.5335070000000  0.4773920000000  0.4394740000000 1.0
C      1  0.5796560000000  0.5023070000000  0.5322570000000 1.0
C      1  0.5016770000000  0.4414000000000  0.5376500000000 1.0
C      1  0.5012340000000  0.5206050000000  0.5801750000000 1.0
C      1  0.5758310000000  0.5056930000000  0.4454870000000 1.0
C      1  0.4385110000000  0.5008700000000  0.5331800000000 1.0
C      1  0.5186730000000  0.4836850000000  0.4632780000000 1.0
C      1  0.5058380000000  0.4900020000000  0.5319750000000 1.0
C      1  0.5063230000000  0.5293640000000  0.4984300000000 1.0
C      1  0.5519760000000  0.4559100000000  0.5445910000000 1.0
C      1  0.4726630000000  0.4954870000000  0.4974020000000 1.0
C      1  0.5494780000000  0.5688970000000  0.5011780000000 1.0
C      1  0.5425550000000  0.5240670000000  0.5540630000000 1.0
C      1  0.5152560000000  0.5734670000000  0.4551320000000 1.0
C      1  0.5214450000000  0.5731210000000  0.5039020000000 1.0
C      1  0.4319950000000  0.4514160000000  0.5028060000000 1.0
C      1  0.5279140000000  0.4881130000000  0.4892160000000 1.0
C      1  0.4162090000000  0.5020190000000  0.4909240000000 1.0
C      1  0.4759280000000  0.5601280000000  0.5512600000000 1.0
C      1  0.4288180000000  0.4995580000000  0.4639000000000 1.0
C      1  0.4266350000000  0.5194560000000  0.5133830000000 1.0
C      1  0.4579720000000  0.5210860000000  0.4314980000000 1.0
C      1  0.4466170000000  0.5504050000000  0.4641170000000 1.0
C      1  0.5451280000000  0.4544990000000  0.5728950000000 1.0
C      1  0.4836900000000  0.5157820000000  0.4481080000000 1.0
C      1  0.5160320000000  0.4726430000000  0.5108910000000 1.0
C      1  0.5177430000000  0.4987310000000  0.5768300000000 1.0
C      1  0.5279250000000  0.4262790000000  0.4554420000000 1.0
C      1  0.5296500000000  0.4460390000000  0.5246760000000 1.0
C      1  0.4361070000000  0.5259960000000  0.4510430000000 1.0
C      1  0.5534430000000  0.5541530000000  0.4765580000000 1.0
C      1  0.5452200000000  0.5056660000000  0.4416180000000 1.0
C      1  0.5051210000000  0.5801620000000  0.4817040000000 1.0
C      1  0.5571400000000  0.5301650000000  0.4913650000000 1.0
C      1  0.4514760000000  0.5526190000000  0.5396070000000 1.0
C      1  0.5642610000000  0.5459320000000  0.5150750000000 1.0
C      1  0.4754540000000  0.4699670000000  0.4844160000000 1.0
C      1  0.5311670000000  0.5311860000000  0.4394950000000 1.0
C      1  0.4959760000000  0.4558790000000  0.5624760000000 1.0
C      1  0.4876090000000  0.4257550000000  0.4918500000000 1.0
C      1  0.4488590000000  0.4488930000000  0.5545850000000 1.0
C      1  0.4316270000000  0.4979670000000  0.5631120000000 1.0
C      1  0.4552600000000  0.4531040000000  0.5237650000000 1.0
C      1  0.4827680000000  0.5210790000000  0.4834930000000 1.0
C      1  0.5382360000000  0.5558280000000  0.4534850000000 1.0
C      1  0.4595850000000  0.5425280000000  0.5654860000000 1.0
C      1  0.5564960000000  0.4493150000000  0.4800360000000 1.0
C      1  0.4842420000000  0.4877400000000  0.4298270000000 1.0
C      1  0.5081880000000  0.5526460000000  0.5158780000000 1.0
C      1  0.4963100000000  0.4655520000000  0.4659210000000 1.0
C      1  0.4437540000000  0.5424510000000  0.5137710000000 1.0
C      1  0.5795800000000  0.4696310000000  0.4873670000000 1.0
C      1  0.4405540000000  0.4742110000000  0.4557400000000 1.0
C      1  0.4683280000000  0.4638910000000  0.5694450000000 1.0
C      1  0.5023520000000  0.5534460000000  0.5439990000000 1.0
C      1  0.5182590000000  0.5380240000000  0.5630790000000 1.0
C      1  0.4675800000000  0.5685400000000  0.4542320000000 1.0
C      1  0.5455170000000  0.4499030000000  0.4533940000000 1.0
C      1  0.5385810000000  0.4345150000000  0.4977860000000 1.0
C      1  0.4681590000000  0.4307710000000  0.4702040000000 1.0
C      1  0.4812050000000  0.4362930000000  0.5181350000000 1.0
C      1  0.4624380000000  0.5466380000000  0.4897870000000 1.0
C      1  0.4470460000000  0.4518090000000  0.4765690000000 1.0
C      1  0.5163840000000  0.4226280000000  0.4837510000000 1.0
C      1  0.4714100000000  0.5185920000000  0.5768420000000 1.0
C      1  0.4621900000000  0.4684780000000  0.4377620000000 1.0
C      1  0.4574940000000  0.4932440000000  0.5762600000000 1.0
C      1  0.5326920000000  0.5140650000000  0.4995430000000 1.0
C      1  0.5185970000000  0.4704550000000  0.5761190000000 1.0
C      1  0.4797730000000  0.4472740000000  0.4489980000000 1.0
C      1  0.5343200000000  0.5034960000000  0.5333260000000 1.0
C      1  0.5669670000000  0.5297150000000  0.5387030000000 1.0
C      1  0.5840920000000  0.4891170000000  0.4677950000000 1.0
C      1  0.5023910000000  0.5353040000000  0.4356950000000 1.0
C      1  0.4596620000000  0.4852380000000  0.5208540000000 1.0
END
