TITL C-4164240-4114-603 -0.629069988471338 125000 -12223.6109467339 0 0 83 (C1) n - 1
REM
REM in /home/nfs/bkarasulu/CARBON/AIRSS/Generating-Clusters/ReaxFF-fromJPCA2015/Units_Real/with-SteepDescent/Only-C1/SD-CG/Try1-3A/FIRE-CG
REM
REM
REM
REM
REM
REM ./C.cell (11c1c37f851c82e70ff6c80c92926a4b)
REM
REM compiler GCC version 9.2.1 20190827 (Red Hat 9.2.1-1)
REM options -cpp -mtune=generic -march=x86-64 -g -O0 -fpre-include=/usr/include/finclude/math-vector-fortran.h
REM seed -1075120524 -612799630 -1098021516 1471543893 -1322065741 -539417442 -1356810739 -1155827558 107104954 180702321 259187198 -1083013403 -1236521029 -2076215191 -486646088 -1488920694 1051475245 -1546108759 -1574665 -1613176788 1035784264 -962581008 -1352747614 -24664644 -1934405700 -2023817977 -731416174 -659054480 -56534986 401792521 389033706 -1986877073 -307435232
REM
CELL 1.54180   50.00000   50.00000   50.00000   90.00000   90.00000   90.00000
LATT -1
SFAC C  
C      1  0.4371580000000  0.5212680000000  0.5760510000000 1.0
C      1  0.5264720000000  0.5195320000000  0.4956710000000 1.0
C      1  0.4504430000000  0.4864230000000  0.4285240000000 1.0
C      1  0.5743670000000  0.4844890000000  0.5467340000000 1.0
C      1  0.5599540000000  0.5667830000000  0.5249840000000 1.0
C      1  0.5484400000000  0.5576830000000  0.4375400000000 1.0
C      1  0.5019050000000  0.4670160000000  0.4326660000000 1.0
C      1  0.5505960000000  0.4431320000000  0.5400040000000 1.0
C      1  0.4829700000000  0.5722450000000  0.5235370000000 1.0
C      1  0.4599970000000  0.5559490000000  0.5165770000000 1.0
C      1  0.4133520000000  0.4797760000000  0.4808020000000 1.0
C      1  0.5257740000000  0.4036600000000  0.4661620000000 1.0
C      1  0.4792910000000  0.4866540000000  0.5196390000000 1.0
C      1  0.5606380000000  0.4683100000000  0.4832400000000 1.0
C      1  0.5420540000000  0.5137270000000  0.5780830000000 1.0
C      1  0.4075990000000  0.5004950000000  0.4942640000000 1.0
C      1  0.4568410000000  0.5351640000000  0.5896360000000 1.0
C      1  0.5104850000000  0.5148050000000  0.5478090000000 1.0
C      1  0.5159780000000  0.4992910000000  0.5756470000000 1.0
C      1  0.5421000000000  0.5589700000000  0.5487950000000 1.0
C      1  0.4687630000000  0.5564450000000  0.4679840000000 1.0
C      1  0.5325290000000  0.5737350000000  0.5258470000000 1.0
C      1  0.4920250000000  0.5733750000000  0.4593230000000 1.0
C      1  0.4764440000000  0.5169900000000  0.6001250000000 1.0
C      1  0.5588820000000  0.5005740000000  0.5265500000000 1.0
C      1  0.4956330000000  0.5058070000000  0.5931740000000 1.0
C      1  0.4725200000000  0.4303450000000  0.4507580000000 1.0
C      1  0.4973370000000  0.5550630000000  0.4381830000000 1.0
C      1  0.4352310000000  0.4620590000000  0.4379180000000 1.0
C      1  0.5090370000000  0.4892740000000  0.4594150000000 1.0
C      1  0.4226510000000  0.5049690000000  0.5588830000000 1.0
C      1  0.5281850000000  0.4617770000000  0.4161750000000 1.0
C      1  0.5093960000000  0.5672660000000  0.5057250000000 1.0
C      1  0.5336710000000  0.5059050000000  0.4703510000000 1.0
C      1  0.5131090000000  0.4110600000000  0.4927070000000 1.0
C      1  0.4655500000000  0.4339750000000  0.4792350000000 1.0
C      1  0.5049810000000  0.5381770000000  0.4947910000000 1.0
C      1  0.4818510000000  0.5672130000000  0.5523430000000 1.0
C      1  0.4498180000000  0.4595500000000  0.4865840000000 1.0
C      1  0.5284600000000  0.4326380000000  0.5060120000000 1.0
C      1  0.5253230000000  0.5022080000000  0.5213050000000 1.0
C      1  0.5624560000000  0.5316500000000  0.4351280000000 1.0
C      1  0.4548270000000  0.5099550000000  0.4803340000000 1.0
C      1  0.5055120000000  0.4861120000000  0.5095300000000 1.0
C      1  0.4502670000000  0.5039550000000  0.4516210000000 1.0
C      1  0.5233830000000  0.4224100000000  0.4435720000000 1.0
C      1  0.5615510000000  0.4968850000000  0.5671250000000 1.0
C      1  0.4735770000000  0.4680980000000  0.4219610000000 1.0
C      1  0.4837160000000  0.5303800000000  0.4738300000000 1.0
C      1  0.5165520000000  0.5747200000000  0.4764290000000 1.0
C      1  0.4485470000000  0.5567190000000  0.4890550000000 1.0
C      1  0.5366470000000  0.5357640000000  0.4222360000000 1.0
C      1  0.4493490000000  0.4596980000000  0.5608470000000 1.0
C      1  0.4713300000000  0.4428020000000  0.5555210000000 1.0
C      1  0.4777960000000  0.5406690000000  0.5667280000000 1.0
C      1  0.5721350000000  0.5494180000000  0.5046320000000 1.0
C      1  0.5756080000000  0.5219530000000  0.5167760000000 1.0
C      1  0.4274020000000  0.4607060000000  0.4666190000000 1.0
C      1  0.4579640000000  0.5290300000000  0.5293530000000 1.0
C      1  0.5755650000000  0.4552530000000  0.5353120000000 1.0
C      1  0.5242690000000  0.4347230000000  0.5361450000000 1.0
C      1  0.5715560000000  0.4595770000000  0.5073770000000 1.0
C      1  0.4574780000000  0.4449080000000  0.4298730000000 1.0
C      1  0.4603110000000  0.4842090000000  0.4975130000000 1.0
C      1  0.5306360000000  0.5348100000000  0.5597230000000 1.0
C      1  0.5419660000000  0.5651530000000  0.4657190000000 1.0
C      1  0.5073090000000  0.5306060000000  0.4286350000000 1.0
C      1  0.4330500000000  0.5322380000000  0.4884030000000 1.0
C      1  0.5103220000000  0.4739250000000  0.4852280000000 1.0
C      1  0.5333180000000  0.4566090000000  0.4887860000000 1.0
C      1  0.5602370000000  0.4955670000000  0.4688240000000 1.0
C      1  0.5434610000000  0.4393890000000  0.4261350000000 1.0
C      1  0.5628360000000  0.5472990000000  0.4771890000000 1.0
C      1  0.4994060000000  0.4382810000000  0.4429110000000 1.0
C      1  0.4838410000000  0.4176610000000  0.4951100000000 1.0
C      1  0.4305150000000  0.5210470000000  0.5344130000000 1.0
C      1  0.5001830000000  0.4471250000000  0.5494000000000 1.0
C      1  0.5709780000000  0.5223430000000  0.4619410000000 1.0
C      1  0.4353290000000  0.4781320000000  0.5616390000000 1.0
C      1  0.4800550000000  0.5191160000000  0.5458570000000 1.0
C      1  0.4802920000000  0.4590610000000  0.5325320000000 1.0
C      1  0.4146200000000  0.5233200000000  0.5092600000000 1.0
C      1  0.4960390000000  0.5149390000000  0.4510240000000 1.0
END
