TITL C-4164232-771-732 59.2556660512351 125000 -18990.0537437663 0 0 128 (C1) n - 1
REM
REM in /home/nfs/bkarasulu/CARBON/AIRSS/Generating-Clusters/ReaxFF-fromJPCA2015/Units_Real/with-SteepDescent/Only-C1/SD-CG/Try1-3A/FIRE-CG
REM
REM
REM
REM
REM
REM ./C.cell (11c1c37f851c82e70ff6c80c92926a4b)
REM
REM compiler GCC version 9.2.1 20190827 (Red Hat 9.2.1-1)
REM options -cpp -mtune=generic -march=x86-64 -g -O0 -fpre-include=/usr/include/finclude/math-vector-fortran.h
REM seed 1550655451 2136937887 1166994676 428378920 -1823693381 600770683 -607895631 -376203686 1515964650 -1539262521 909805172 940721894 1156805855 -192553067 550599424 844580012 1919539359 140899779 -467659221 1341023690 799843510 2119356956 151233502 -1332887059 615064952 274917704 644339359 -783773903 -63598844 -326882599 2122661196 2103797163 789423966
REM
CELL 1.54180   50.00000   50.00000   50.00000   90.00000   90.00000   90.00000
LATT -1
SFAC C  
C      1  0.4516930000000  0.4427450000000  0.4453280000000 1.0
C      1  0.4871780000000  0.4930880000000  0.4303260000000 1.0
C      1  0.5046920000000  0.4085310000000  0.5397370000000 1.0
C      1  0.4314650000000  0.4427080000000  0.4667750000000 1.0
C      1  0.5652210000000  0.4767730000000  0.5016810000000 1.0
C      1  0.5157340000000  0.5492460000000  0.5805750000000 1.0
C      1  0.4816560000000  0.4334590000000  0.4475170000000 1.0
C      1  0.5451930000000  0.5000130000000  0.4712930000000 1.0
C      1  0.4357580000000  0.5841710000000  0.5122630000000 1.0
C      1  0.6055800000000  0.4931200000000  0.5251750000000 1.0
C      1  0.4555390000000  0.4906750000000  0.3987710000000 1.0
C      1  0.4798720000000  0.5287430000000  0.5658400000000 1.0
C      1  0.5318860000000  0.4138790000000  0.5476690000000 1.0
C      1  0.4220480000000  0.4912110000000  0.5008480000000 1.0
C      1  0.4738310000000  0.5401760000000  0.4135910000000 1.0
C      1  0.4874470000000  0.5141030000000  0.4097670000000 1.0
C      1  0.4894430000000  0.5565760000000  0.4316800000000 1.0
C      1  0.4304440000000  0.5270950000000  0.5290500000000 1.0
C      1  0.5969660000000  0.5054030000000  0.4769330000000 1.0
C      1  0.4499760000000  0.4688530000000  0.5416910000000 1.0
C      1  0.4359470000000  0.5353540000000  0.5543960000000 1.0
C      1  0.4932000000000  0.4581950000000  0.3959330000000 1.0
C      1  0.5377860000000  0.5480770000000  0.5612560000000 1.0
C      1  0.4778470000000  0.4094230000000  0.4668180000000 1.0
C      1  0.5626380000000  0.5333240000000  0.5611980000000 1.0
C      1  0.4571690000000  0.4261490000000  0.5421340000000 1.0
C      1  0.5306290000000  0.5587250000000  0.5342500000000 1.0
C      1  0.5314290000000  0.4987160000000  0.4138900000000 1.0
C      1  0.5615050000000  0.5040580000000  0.5617790000000 1.0
C      1  0.5309380000000  0.4010400000000  0.5013390000000 1.0
C      1  0.5055910000000  0.4359270000000  0.4263200000000 1.0
C      1  0.4785380000000  0.5788900000000  0.4472340000000 1.0
C      1  0.6027010000000  0.4653800000000  0.5293370000000 1.0
C      1  0.5486540000000  0.4534790000000  0.5049620000000 1.0
C      1  0.4989350000000  0.4459840000000  0.5038610000000 1.0
C      1  0.4320820000000  0.4423270000000  0.4956150000000 1.0
C      1  0.4774500000000  0.4802250000000  0.5959630000000 1.0
C      1  0.4685420000000  0.4547490000000  0.5835000000000 1.0
C      1  0.4234250000000  0.4919510000000  0.4377910000000 1.0
C      1  0.4123270000000  0.5367500000000  0.4677400000000 1.0
C      1  0.4673160000000  0.4772560000000  0.4923330000000 1.0
C      1  0.5465930000000  0.5499710000000  0.4932400000000 1.0
C      1  0.4494660000000  0.5364250000000  0.4483700000000 1.0
C      1  0.4316120000000  0.4633260000000  0.4453000000000 1.0
C      1  0.6074190000000  0.5138990000000  0.5054050000000 1.0
C      1  0.5216550000000  0.6034010000000  0.5296050000000 1.0
C      1  0.4729660000000  0.4728870000000  0.3929050000000 1.0
C      1  0.5420370000000  0.5664980000000  0.4685290000000 1.0
C      1  0.4762630000000  0.5687830000000  0.4912110000000 1.0
C      1  0.5385880000000  0.4378870000000  0.5634920000000 1.0
C      1  0.5150740000000  0.4555440000000  0.5662520000000 1.0
C      1  0.4721160000000  0.4558900000000  0.5119160000000 1.0
C      1  0.4528700000000  0.4964990000000  0.5952580000000 1.0
C      1  0.4908230000000  0.4400700000000  0.5734020000000 1.0
C      1  0.4819570000000  0.4188090000000  0.5545400000000 1.0
C      1  0.5804080000000  0.5251040000000  0.4633620000000 1.0
C      1  0.5309200000000  0.4855640000000  0.5909170000000 1.0
C      1  0.6091070000000  0.4601850000000  0.4997420000000 1.0
C      1  0.5585900000000  0.5072010000000  0.4220750000000 1.0
C      1  0.5940580000000  0.5319250000000  0.5219270000000 1.0
C      1  0.4271620000000  0.4662900000000  0.5324010000000 1.0
C      1  0.4562510000000  0.5212970000000  0.5146840000000 1.0
C      1  0.5016210000000  0.5853570000000  0.4605130000000 1.0
C      1  0.4863680000000  0.5183040000000  0.5267730000000 1.0
C      1  0.4979830000000  0.5699380000000  0.5113380000000 1.0
C      1  0.5009720000000  0.5236150000000  0.5849440000000 1.0
C      1  0.4191090000000  0.5624840000000  0.5064070000000 1.0
C      1  0.5175640000000  0.5481800000000  0.5109290000000 1.0
C      1  0.5704850000000  0.4587870000000  0.4281690000000 1.0
C      1  0.4189550000000  0.4635770000000  0.5085150000000 1.0
C      1  0.4464440000000  0.5323100000000  0.4197280000000 1.0
C      1  0.5115600000000  0.5369610000000  0.4417390000000 1.0
C      1  0.4903050000000  0.4942420000000  0.5423090000000 1.0
C      1  0.5791600000000  0.4491990000000  0.5412850000000 1.0
C      1  0.4989560000000  0.4499690000000  0.4712540000000 1.0
C      1  0.4655070000000  0.5457380000000  0.5017550000000 1.0
C      1  0.5272990000000  0.4504360000000  0.4645930000000 1.0
C      1  0.4552680000000  0.4294770000000  0.5109520000000 1.0
C      1  0.5569480000000  0.4806170000000  0.5795600000000 1.0
C      1  0.4534640000000  0.5141740000000  0.5664900000000 1.0
C      1  0.4752160000000  0.4096490000000  0.4952010000000 1.0
C      1  0.4752050000000  0.5573890000000  0.5708490000000 1.0
C      1  0.4951320000000  0.5252840000000  0.4713350000000 1.0
C      1  0.4493790000000  0.5612270000000  0.5565490000000 1.0
C      1  0.5254280000000  0.5909010000000  0.4740220000000 1.0
C      1  0.5483530000000  0.4969120000000  0.5150150000000 1.0
C      1  0.5296030000000  0.4308790000000  0.4427340000000 1.0
C      1  0.5322870000000  0.4790370000000  0.4599900000000 1.0
C      1  0.5135560000000  0.5206340000000  0.4176080000000 1.0
C      1  0.5802410000000  0.4853050000000  0.4213520000000 1.0
C      1  0.4368590000000  0.5049120000000  0.4141210000000 1.0
C      1  0.5150130000000  0.4831560000000  0.4327420000000 1.0
C      1  0.5760610000000  0.5466120000000  0.5372960000000 1.0
C      1  0.5024560000000  0.4114920000000  0.5096250000000 1.0
C      1  0.4109030000000  0.5144340000000  0.5151930000000 1.0
C      1  0.5484530000000  0.4093390000000  0.5231910000000 1.0
C      1  0.4730270000000  0.4906890000000  0.4544220000000 1.0
C      1  0.5026970000000  0.5935410000000  0.5517680000000 1.0
C      1  0.4060110000000  0.5390480000000  0.4992610000000 1.0
C      1  0.4316390000000  0.5573680000000  0.4569010000000 1.0
C      1  0.5155600000000  0.4814520000000  0.5513210000000 1.0
C      1  0.5267880000000  0.6036100000000  0.5013650000000 1.0
C      1  0.5214390000000  0.4648420000000  0.5084980000000 1.0
C      1  0.4494980000000  0.4997280000000  0.4930660000000 1.0
C      1  0.5410590000000  0.4942470000000  0.5431650000000 1.0
C      1  0.5587170000000  0.5214030000000  0.4829450000000 1.0
C      1  0.4540340000000  0.5807910000000  0.5360630000000 1.0
C      1  0.4999050000000  0.5729260000000  0.5725760000000 1.0
C      1  0.5043810000000  0.4957870000000  0.5946290000000 1.0
C      1  0.5215160000000  0.4933950000000  0.5058670000000 1.0
C      1  0.5157360000000  0.4600590000000  0.4124540000000 1.0
C      1  0.5645550000000  0.4344410000000  0.5205820000000 1.0
C      1  0.5623810000000  0.4544720000000  0.5640730000000 1.0
C      1  0.4368070000000  0.4756210000000  0.6014750000000 1.0
C      1  0.5045430000000  0.5185470000000  0.5030380000000 1.0
C      1  0.5555530000000  0.5600770000000  0.5201100000000 1.0
C      1  0.4626060000000  0.4921180000000  0.5507680000000 1.0
C      1  0.4498450000000  0.5801400000000  0.4615140000000 1.0
C      1  0.5548750000000  0.4409340000000  0.4357740000000 1.0
C      1  0.4658860000000  0.5171880000000  0.4672470000000 1.0
C      1  0.4830980000000  0.5859250000000  0.5317720000000 1.0
C      1  0.4534360000000  0.5886370000000  0.4884250000000 1.0
C      1  0.5619280000000  0.5295510000000  0.4400350000000 1.0
C      1  0.4147260000000  0.5122590000000  0.4548430000000 1.0
C      1  0.5398060000000  0.5478020000000  0.4466020000000 1.0
C      1  0.4500110000000  0.4472310000000  0.5600460000000 1.0
C      1  0.4841140000000  0.4737080000000  0.4720710000000 1.0
C      1  0.5894990000000  0.4779360000000  0.4845550000000 1.0
END
