TITL C-4164244-2836-186 39.20833374926 125000 -18647.1721417798 0 0 125 (C1) n - 1
REM
REM in /home/nfs/bkarasulu/CARBON/AIRSS/Generating-Clusters/ReaxFF-fromJPCA2015/Units_Real/with-SteepDescent/Only-C1/SD-CG/Try1-3A/FIRE-CG
REM
REM
REM
REM
REM
REM ./C.cell (11c1c37f851c82e70ff6c80c92926a4b)
REM
REM compiler GCC version 9.2.1 20190827 (Red Hat 9.2.1-1)
REM options -cpp -mtune=generic -march=x86-64 -g -O0 -fpre-include=/usr/include/finclude/math-vector-fortran.h
REM seed 514004236 -1513009430 -2141479167 494985957 -1191746814 -1677762210 1645646331 -1979629427 -1649734480 259953657 -1652884916 1675142163 719594671 747402817 -1593779484 -839908366 373419037 881111548 -1893621547 -743132876 -360475848 749556538 -1371341399 1499484079 -1167591070 1660743133 -379283164 1189048660 -894102483 705504720 -234823116 341204251 1311147230
REM
CELL 1.54180   50.00000   50.00000   50.00000   90.00000   90.00000   90.00000
LATT -1
SFAC C  
C      1  0.4877020000000  0.4252820000000  0.5583760000000 1.0
C      1  0.5515630000000  0.5849100000000  0.4933230000000 1.0
C      1  0.5664740000000  0.5372400000000  0.4925100000000 1.0
C      1  0.5262850000000  0.5966470000000  0.4861950000000 1.0
C      1  0.4083430000000  0.5257520000000  0.4974980000000 1.0
C      1  0.4886280000000  0.5006800000000  0.5461860000000 1.0
C      1  0.5599720000000  0.5622570000000  0.4798890000000 1.0
C      1  0.4423770000000  0.4350600000000  0.4553820000000 1.0
C      1  0.4669020000000  0.5675690000000  0.5566250000000 1.0
C      1  0.5217340000000  0.6019540000000  0.5151540000000 1.0
C      1  0.4597570000000  0.4342460000000  0.4337360000000 1.0
C      1  0.5731470000000  0.5508390000000  0.5403120000000 1.0
C      1  0.4730100000000  0.4135280000000  0.5364820000000 1.0
C      1  0.4474500000000  0.4426530000000  0.5602060000000 1.0
C      1  0.5529150000000  0.4475370000000  0.5582220000000 1.0
C      1  0.4824730000000  0.5094720000000  0.4657820000000 1.0
C      1  0.4285490000000  0.5677110000000  0.4819230000000 1.0
C      1  0.5054210000000  0.5520720000000  0.5658560000000 1.0
C      1  0.4902100000000  0.5636410000000  0.4681530000000 1.0
C      1  0.4224480000000  0.5131510000000  0.4324990000000 1.0
C      1  0.5279640000000  0.5315790000000  0.4137170000000 1.0
C      1  0.4477060000000  0.5729310000000  0.5044520000000 1.0
C      1  0.4157630000000  0.5420400000000  0.4745110000000 1.0
C      1  0.5434500000000  0.5031770000000  0.4793250000000 1.0
C      1  0.4494180000000  0.4703780000000  0.5491520000000 1.0
C      1  0.4655200000000  0.4929640000000  0.5119260000000 1.0
C      1  0.5134110000000  0.5828300000000  0.4639340000000 1.0
C      1  0.5848310000000  0.5384120000000  0.5159870000000 1.0
C      1  0.5880310000000  0.4910510000000  0.4744890000000 1.0
C      1  0.5270670000000  0.5687700000000  0.4429640000000 1.0
C      1  0.4998000000000  0.5317780000000  0.4690270000000 1.0
C      1  0.5354030000000  0.4671640000000  0.5725530000000 1.0
C      1  0.5548200000000  0.4185060000000  0.5167730000000 1.0
C      1  0.4074730000000  0.4812490000000  0.5228370000000 1.0
C      1  0.4496050000000  0.5759290000000  0.4620610000000 1.0
C      1  0.5271150000000  0.5143440000000  0.5807050000000 1.0
C      1  0.4657820000000  0.4511370000000  0.4980590000000 1.0
C      1  0.4999870000000  0.5126660000000  0.5934990000000 1.0
C      1  0.4258180000000  0.5470040000000  0.5404170000000 1.0
C      1  0.5390140000000  0.5178170000000  0.5049000000000 1.0
C      1  0.4909010000000  0.4975490000000  0.4056160000000 1.0
C      1  0.4996790000000  0.5679000000000  0.5124360000000 1.0
C      1  0.4821120000000  0.5464390000000  0.4236610000000 1.0
C      1  0.4676320000000  0.5806380000000  0.4845590000000 1.0
C      1  0.4767930000000  0.4716420000000  0.4116830000000 1.0
C      1  0.5138140000000  0.5285970000000  0.4940330000000 1.0
C      1  0.5746090000000  0.4902760000000  0.5602230000000 1.0
C      1  0.5714690000000  0.5166410000000  0.4692380000000 1.0
C      1  0.4917530000000  0.5453710000000  0.5049190000000 1.0
C      1  0.4234370000000  0.5235510000000  0.5586420000000 1.0
C      1  0.4641950000000  0.5484390000000  0.5794400000000 1.0
C      1  0.4309500000000  0.5322240000000  0.5155640000000 1.0
C      1  0.4820570000000  0.4428190000000  0.4179890000000 1.0
C      1  0.4938330000000  0.4865390000000  0.5083850000000 1.0
C      1  0.5283100000000  0.4833930000000  0.4673040000000 1.0
C      1  0.5382670000000  0.4670650000000  0.4440510000000 1.0
C      1  0.4866580000000  0.4591800000000  0.5948960000000 1.0
C      1  0.5135580000000  0.5070000000000  0.4175330000000 1.0
C      1  0.5428630000000  0.4372830000000  0.4378480000000 1.0
C      1  0.5593250000000  0.4675380000000  0.5029050000000 1.0
C      1  0.4730090000000  0.5204250000000  0.4123610000000 1.0
C      1  0.5008490000000  0.4322710000000  0.4379410000000 1.0
C      1  0.5587540000000  0.4932850000000  0.4131260000000 1.0
C      1  0.4148100000000  0.4764630000000  0.4816240000000 1.0
C      1  0.4506560000000  0.4793580000000  0.4192870000000 1.0
C      1  0.5112970000000  0.5526160000000  0.4241110000000 1.0
C      1  0.5499110000000  0.4245680000000  0.4872740000000 1.0
C      1  0.4393570000000  0.5306830000000  0.5818850000000 1.0
C      1  0.5652880000000  0.4727390000000  0.4337070000000 1.0
C      1  0.4414640000000  0.4820370000000  0.4709960000000 1.0
C      1  0.5442240000000  0.5374710000000  0.5748860000000 1.0
C      1  0.4534690000000  0.5086540000000  0.4673360000000 1.0
C      1  0.4574040000000  0.4673220000000  0.5196830000000 1.0
C      1  0.5651950000000  0.5331870000000  0.4443840000000 1.0
C      1  0.5467780000000  0.5890050000000  0.5212120000000 1.0
C      1  0.4341520000000  0.4657200000000  0.4440350000000 1.0
C      1  0.5396180000000  0.4291810000000  0.5402220000000 1.0
C      1  0.5098950000000  0.4349570000000  0.5361170000000 1.0
C      1  0.4154430000000  0.4576710000000  0.5070650000000 1.0
C      1  0.5772790000000  0.4629690000000  0.5520670000000 1.0
C      1  0.5097900000000  0.4657940000000  0.5213280000000 1.0
C      1  0.4455610000000  0.5087130000000  0.5264640000000 1.0
C      1  0.5555340000000  0.5221340000000  0.4196130000000 1.0
C      1  0.4833560000000  0.5319600000000  0.5232140000000 1.0
C      1  0.4703640000000  0.5621580000000  0.4455760000000 1.0
C      1  0.5122550000000  0.4608190000000  0.5853070000000 1.0
C      1  0.5338180000000  0.4955290000000  0.5591190000000 1.0
C      1  0.4720270000000  0.4866540000000  0.5640590000000 1.0
C      1  0.4259320000000  0.4942100000000  0.5435310000000 1.0
C      1  0.5954340000000  0.4887940000000  0.5023300000000 1.0
C      1  0.4471930000000  0.5661660000000  0.5347430000000 1.0
C      1  0.5317660000000  0.4913760000000  0.4045120000000 1.0
C      1  0.5780490000000  0.4675070000000  0.4602270000000 1.0
C      1  0.4712800000000  0.4395010000000  0.5770700000000 1.0
C      1  0.4145900000000  0.4871140000000  0.4416430000000 1.0
C      1  0.4843000000000  0.4587800000000  0.4788590000000 1.0
C      1  0.5341150000000  0.4666500000000  0.5122810000000 1.0
C      1  0.4819130000000  0.4885480000000  0.5916220000000 1.0
C      1  0.5947740000000  0.5118070000000  0.5189160000000 1.0
C      1  0.5532320000000  0.5579980000000  0.4523270000000 1.0
C      1  0.4491140000000  0.4273160000000  0.4844100000000 1.0
C      1  0.5866730000000  0.4614940000000  0.5226960000000 1.0
C      1  0.5636150000000  0.4498140000000  0.4796420000000 1.0
C      1  0.5240460000000  0.4160730000000  0.4462260000000 1.0
C      1  0.4946490000000  0.5766160000000  0.5557390000000 1.0
C      1  0.5005780000000  0.4074720000000  0.4906730000000 1.0
C      1  0.5695830000000  0.5312990000000  0.5615560000000 1.0
C      1  0.5725510000000  0.5085130000000  0.5435100000000 1.0
C      1  0.4455280000000  0.4262480000000  0.5358290000000 1.0
C      1  0.5325300000000  0.5616010000000  0.5638340000000 1.0
C      1  0.5461540000000  0.5052420000000  0.5344730000000 1.0
C      1  0.4983960000000  0.4848330000000  0.4778260000000 1.0
C      1  0.4874910000000  0.4354650000000  0.4638220000000 1.0
C      1  0.4016970000000  0.4971470000000  0.4986970000000 1.0
C      1  0.4894180000000  0.5389570000000  0.5896780000000 1.0
C      1  0.5778760000000  0.4341600000000  0.5215770000000 1.0
C      1  0.4331470000000  0.5275270000000  0.4560100000000 1.0
C      1  0.4988510000000  0.5264400000000  0.5451390000000 1.0
C      1  0.4309530000000  0.4332720000000  0.5114110000000 1.0
C      1  0.4750100000000  0.4126390000000  0.4773670000000 1.0
C      1  0.5260870000000  0.4126120000000  0.4757710000000 1.0
C      1  0.5509630000000  0.5691420000000  0.5421170000000 1.0
C      1  0.4470000000000  0.5077070000000  0.4151730000000 1.0
C      1  0.5015780000000  0.5880350000000  0.5293320000000 1.0
C      1  0.4968200000000  0.4135660000000  0.5189100000000 1.0
END
