TITL C-4164238-4211-69 7.39503143655566 125000 -18884.8579605169 0 0 127 (C1) n - 1
REM
REM in /home/nfs/bkarasulu/CARBON/AIRSS/Generating-Clusters/ReaxFF-fromJPCA2015/Units_Real/with-SteepDescent/Only-C1/SD-CG/Try1-3A/FIRE-CG
REM
REM
REM
REM
REM
REM ./C.cell (11c1c37f851c82e70ff6c80c92926a4b)
REM
REM compiler GCC version 9.2.1 20190827 (Red Hat 9.2.1-1)
REM options -cpp -mtune=generic -march=x86-64 -g -O0 -fpre-include=/usr/include/finclude/math-vector-fortran.h
REM seed 1982428712 800405035 -1944003007 1248296095 11263456 -2123623918 522864702 2001248887 1063256514 248678878 1336196606 525955121 171637072 1714326214 731160203 2024490943 -1985991171 -484984511 -290080141 -506898808 -1035999722 792104280 816698518 -241622101 400920231 -310983304 1175140783 1035750114 -1896985698 -2054373939 -115863774 -1429409623 -368215447
REM
CELL 1.54180   50.00000   50.00000   50.00000   90.00000   90.00000   90.00000
LATT -1
SFAC C  
C      1  0.5162330000000  0.4352930000000  0.4342260000000 1.0
C      1  0.5998030000000  0.5246920000000  0.5250670000000 1.0
C      1  0.4050770000000  0.4699740000000  0.5135250000000 1.0
C      1  0.4999990000000  0.5127970000000  0.4566730000000 1.0
C      1  0.5632080000000  0.5398640000000  0.4444620000000 1.0
C      1  0.4687550000000  0.4291350000000  0.5204930000000 1.0
C      1  0.4928370000000  0.4763970000000  0.4767080000000 1.0
C      1  0.4688490000000  0.5136630000000  0.5018850000000 1.0
C      1  0.5438130000000  0.4267040000000  0.5343570000000 1.0
C      1  0.5024790000000  0.4126170000000  0.5481700000000 1.0
C      1  0.5212090000000  0.5176500000000  0.5321640000000 1.0
C      1  0.5506090000000  0.5704880000000  0.4803390000000 1.0
C      1  0.4559210000000  0.5014370000000  0.5694780000000 1.0
C      1  0.5169620000000  0.4775290000000  0.5951210000000 1.0
C      1  0.5075670000000  0.4743610000000  0.4025430000000 1.0
C      1  0.4286250000000  0.4378960000000  0.4510290000000 1.0
C      1  0.4833280000000  0.5012720000000  0.5614970000000 1.0
C      1  0.5469840000000  0.5048570000000  0.4157090000000 1.0
C      1  0.4272830000000  0.4937190000000  0.4568120000000 1.0
C      1  0.4409550000000  0.5262020000000  0.5651380000000 1.0
C      1  0.5096530000000  0.4297740000000  0.5692760000000 1.0
C      1  0.4823800000000  0.5940700000000  0.4630800000000 1.0
C      1  0.4280900000000  0.5005780000000  0.5283920000000 1.0
C      1  0.5684110000000  0.4414380000000  0.5312080000000 1.0
C      1  0.5410470000000  0.5211890000000  0.4776240000000 1.0
C      1  0.4736010000000  0.5742180000000  0.4423650000000 1.0
C      1  0.5022780000000  0.4018980000000  0.5224520000000 1.0
C      1  0.5639690000000  0.5732450000000  0.5018360000000 1.0
C      1  0.5131290000000  0.4192780000000  0.4643740000000 1.0
C      1  0.4625210000000  0.5464680000000  0.4432200000000 1.0
C      1  0.4566860000000  0.5330040000000  0.4824750000000 1.0
C      1  0.5313840000000  0.4805660000000  0.5012960000000 1.0
C      1  0.4473070000000  0.4743020000000  0.5769720000000 1.0
C      1  0.4539190000000  0.4327060000000  0.4370160000000 1.0
C      1  0.5729370000000  0.4641700000000  0.5504910000000 1.0
C      1  0.4877100000000  0.4105850000000  0.4733650000000 1.0
C      1  0.4841940000000  0.4514790000000  0.5078240000000 1.0
C      1  0.4838640000000  0.5885030000000  0.5171470000000 1.0
C      1  0.4489000000000  0.4989240000000  0.4374430000000 1.0
C      1  0.4897570000000  0.5374800000000  0.4446170000000 1.0
C      1  0.4342730000000  0.4149770000000  0.4700170000000 1.0
C      1  0.5588480000000  0.4733970000000  0.5724930000000 1.0
C      1  0.5674720000000  0.5113180000000  0.4372570000000 1.0
C      1  0.4308330000000  0.5478270000000  0.5189520000000 1.0
C      1  0.4434880000000  0.4373910000000  0.5255290000000 1.0
C      1  0.5088840000000  0.4635540000000  0.4976850000000 1.0
C      1  0.5298820000000  0.5488930000000  0.5284870000000 1.0
C      1  0.4938670000000  0.4991150000000  0.3922900000000 1.0
C      1  0.5205730000000  0.4723610000000  0.5468530000000 1.0
C      1  0.4255150000000  0.4620900000000  0.5598440000000 1.0
C      1  0.5278130000000  0.4126410000000  0.5136290000000 1.0
C      1  0.5287040000000  0.5934150000000  0.5274410000000 1.0
C      1  0.4734040000000  0.4318370000000  0.4591750000000 1.0
C      1  0.5810280000000  0.5157880000000  0.5426540000000 1.0
C      1  0.4631670000000  0.5683980000000  0.5535450000000 1.0
C      1  0.6165860000000  0.5326510000000  0.5093450000000 1.0
C      1  0.5565660000000  0.5819200000000  0.5275110000000 1.0
C      1  0.4783960000000  0.5339380000000  0.5241990000000 1.0
C      1  0.4570480000000  0.5243810000000  0.4246120000000 1.0
C      1  0.5453660000000  0.5214820000000  0.5784850000000 1.0
C      1  0.4992830000000  0.5627400000000  0.4338470000000 1.0
C      1  0.5158770000000  0.5735100000000  0.5439530000000 1.0
C      1  0.4239190000000  0.4651590000000  0.4613780000000 1.0
C      1  0.4921560000000  0.5713260000000  0.5601610000000 1.0
C      1  0.5581070000000  0.4372050000000  0.4380140000000 1.0
C      1  0.4278380000000  0.5282710000000  0.5394840000000 1.0
C      1  0.4412210000000  0.4602170000000  0.4819680000000 1.0
C      1  0.4944070000000  0.4938440000000  0.5994660000000 1.0
C      1  0.4979200000000  0.4845560000000  0.4482820000000 1.0
C      1  0.4781340000000  0.4756510000000  0.5223510000000 1.0
C      1  0.4765710000000  0.5205240000000  0.4027380000000 1.0
C      1  0.5428100000000  0.5504960000000  0.4271690000000 1.0
C      1  0.5658410000000  0.4895420000000  0.5344810000000 1.0
C      1  0.5697720000000  0.4490930000000  0.5032560000000 1.0
C      1  0.5369920000000  0.4943440000000  0.5416640000000 1.0
C      1  0.4298150000000  0.5362380000000  0.4907760000000 1.0
C      1  0.5054520000000  0.5253380000000  0.3968460000000 1.0
C      1  0.5577420000000  0.5544990000000  0.5388180000000 1.0
C      1  0.5762390000000  0.4923270000000  0.4776580000000 1.0
C      1  0.4766080000000  0.4056580000000  0.5029950000000 1.0
C      1  0.4997720000000  0.4533540000000  0.5879820000000 1.0
C      1  0.5018030000000  0.5552310000000  0.5841400000000 1.0
C      1  0.5328610000000  0.4795510000000  0.4161640000000 1.0
C      1  0.4312210000000  0.4573670000000  0.5075580000000 1.0
C      1  0.4103920000000  0.4784900000000  0.5408350000000 1.0
C      1  0.5293640000000  0.4440110000000  0.5535880000000 1.0
C      1  0.5529030000000  0.4581580000000  0.4568370000000 1.0
C      1  0.4851580000000  0.5186500000000  0.5984960000000 1.0
C      1  0.5089140000000  0.5996020000000  0.5060400000000 1.0
C      1  0.4602110000000  0.5878160000000  0.4788440000000 1.0
C      1  0.5554560000000  0.4389470000000  0.4798180000000 1.0
C      1  0.5095190000000  0.5975880000000  0.4767330000000 1.0
C      1  0.4785910000000  0.5523090000000  0.4827820000000 1.0
C      1  0.5267640000000  0.5555710000000  0.4980710000000 1.0
C      1  0.5070290000000  0.5438610000000  0.4811970000000 1.0
C      1  0.5265230000000  0.5725710000000  0.4375830000000 1.0
C      1  0.5332010000000  0.4201280000000  0.4849000000000 1.0
C      1  0.5242490000000  0.5378440000000  0.5812270000000 1.0
C      1  0.4941770000000  0.5214880000000  0.5442710000000 1.0
C      1  0.5229750000000  0.5087760000000  0.4985190000000 1.0
C      1  0.5616380000000  0.4776790000000  0.5035710000000 1.0
C      1  0.4560560000000  0.5902890000000  0.5070080000000 1.0
C      1  0.4496330000000  0.3985800000000  0.4880480000000 1.0
C      1  0.5522770000000  0.4996430000000  0.4614250000000 1.0
C      1  0.4716680000000  0.4591440000000  0.5856820000000 1.0
C      1  0.4681510000000  0.4536930000000  0.4210490000000 1.0
C      1  0.4689050000000  0.4550220000000  0.4782760000000 1.0
C      1  0.5272770000000  0.4653960000000  0.4421590000000 1.0
C      1  0.4960690000000  0.4503390000000  0.4143650000000 1.0
C      1  0.5312990000000  0.5862530000000  0.4625920000000 1.0
C      1  0.5412050000000  0.4248250000000  0.4224850000000 1.0
C      1  0.4540520000000  0.4903440000000  0.5145360000000 1.0
C      1  0.4430790000000  0.4451250000000  0.5477480000000 1.0
C      1  0.4714830000000  0.4800880000000  0.4332920000000 1.0
C      1  0.4950460000000  0.5044050000000  0.4846030000000 1.0
C      1  0.5591800000000  0.5440380000000  0.4733620000000 1.0
C      1  0.4919540000000  0.4785610000000  0.5470750000000 1.0
C      1  0.4761290000000  0.5443260000000  0.5948610000000 1.0
C      1  0.5317260000000  0.5286510000000  0.4102940000000 1.0
C      1  0.4075510000000  0.4973460000000  0.5036890000000 1.0
C      1  0.5928980000000  0.4925260000000  0.4558170000000 1.0
C      1  0.4185190000000  0.5103940000000  0.4802820000000 1.0
C      1  0.4470750000000  0.5706470000000  0.5281240000000 1.0
C      1  0.4551160000000  0.5500230000000  0.5743740000000 1.0
C      1  0.5644170000000  0.5338660000000  0.5587250000000 1.0
C      1  0.5422960000000  0.4902210000000  0.5864040000000 1.0
C      1  0.4835700000000  0.5589300000000  0.5113910000000 1.0
END
