TITL C-4164236-1577-308 0.802681334406209 125000 -7507.31242005017 0 0 52 (C1) n - 1
REM
REM in /home/nfs/bkarasulu/CARBON/AIRSS/Generating-Clusters/ReaxFF-fromJPCA2015/Units_Real/with-SteepDescent/Only-C1/SD-CG/Try1-3A/FIRE-CG
REM
REM
REM
REM
REM
REM ./C.cell (11c1c37f851c82e70ff6c80c92926a4b)
REM
REM compiler GCC version 9.2.1 20190827 (Red Hat 9.2.1-1)
REM options -cpp -mtune=generic -march=x86-64 -g -O0 -fpre-include=/usr/include/finclude/math-vector-fortran.h
REM seed 962243523 387425535 1378253312 -2013958005 1110585553 822746292 -260869815 1150032753 1919707264 674203366 -399440418 -2146289599 1978904847 1355102221 74202350 -1966983267 622881871 -1987634105 -1038225574 1627723856 125679212 -2049742726 1958681881 -1639090136 255469401 1308271965 265588617 -1077903478 654834038 -46131284 -1522023443 -1817844505 -951744465
REM
CELL 1.54180   50.00000   50.00000   50.00000   90.00000   90.00000   90.00000
LATT -1
SFAC C  
C      1  0.5670030000000  0.5155470000000  0.4862870000000 1.0
C      1  0.4704880000000  0.5232620000000  0.4947320000000 1.0
C      1  0.4488870000000  0.4668160000000  0.4612860000000 1.0
C      1  0.5200120000000  0.4931100000000  0.4746720000000 1.0
C      1  0.4903290000000  0.4501090000000  0.5465740000000 1.0
C      1  0.5238960000000  0.4848440000000  0.5415400000000 1.0
C      1  0.5280520000000  0.5687160000000  0.5062780000000 1.0
C      1  0.5084250000000  0.4277720000000  0.4835880000000 1.0
C      1  0.4644950000000  0.4951340000000  0.5512110000000 1.0
C      1  0.5488430000000  0.4337830000000  0.4773120000000 1.0
C      1  0.5521860000000  0.5548140000000  0.4942730000000 1.0
C      1  0.5141260000000  0.5392370000000  0.4617350000000 1.0
C      1  0.5265980000000  0.4466680000000  0.4987370000000 1.0
C      1  0.5110040000000  0.5482300000000  0.5186100000000 1.0
C      1  0.5363280000000  0.4962160000000  0.4498180000000 1.0
C      1  0.4283260000000  0.4739170000000  0.5111940000000 1.0
C      1  0.5295600000000  0.4145640000000  0.4657530000000 1.0
C      1  0.4769220000000  0.4736810000000  0.5323850000000 1.0
C      1  0.4795280000000  0.5157190000000  0.5621990000000 1.0
C      1  0.4597900000000  0.5565660000000  0.5147580000000 1.0
C      1  0.4581720000000  0.5436600000000  0.5399730000000 1.0
C      1  0.5099320000000  0.5523210000000  0.5472700000000 1.0
C      1  0.4619650000000  0.5095870000000  0.4740130000000 1.0
C      1  0.4977850000000  0.4257770000000  0.5319380000000 1.0
C      1  0.4828420000000  0.5426810000000  0.5572440000000 1.0
C      1  0.4684140000000  0.4581690000000  0.4399490000000 1.0
C      1  0.5501400000000  0.4982250000000  0.5438420000000 1.0
C      1  0.5045560000000  0.4902650000000  0.5187330000000 1.0
C      1  0.5197710000000  0.5175130000000  0.4387520000000 1.0
C      1  0.4680200000000  0.3993110000000  0.4973840000000 1.0
C      1  0.5645320000000  0.5006760000000  0.4617230000000 1.0
C      1  0.4882680000000  0.4146980000000  0.5030260000000 1.0
C      1  0.4446070000000  0.5146190000000  0.5403310000000 1.0
C      1  0.4433170000000  0.4591090000000  0.4894630000000 1.0
C      1  0.5381470000000  0.5437610000000  0.5520850000000 1.0
C      1  0.5380150000000  0.5580510000000  0.4681150000000 1.0
C      1  0.5013510000000  0.5210030000000  0.5068860000000 1.0
C      1  0.4952610000000  0.5861070000000  0.4656270000000 1.0
C      1  0.5245310000000  0.4360880000000  0.5287920000000 1.0
C      1  0.4989640000000  0.5011560000000  0.4328290000000 1.0
C      1  0.4257630000000  0.5020680000000  0.5214920000000 1.0
C      1  0.5232790000000  0.5809770000000  0.4787660000000 1.0
C      1  0.5171490000000  0.4756850000000  0.4966730000000 1.0
C      1  0.5127390000000  0.5188690000000  0.4817660000000 1.0
C      1  0.4532460000000  0.4956000000000  0.4528210000000 1.0
C      1  0.5571970000000  0.5264230000000  0.5370130000000 1.0
C      1  0.5193140000000  0.4566200000000  0.5494720000000 1.0
C      1  0.4543030000000  0.4616400000000  0.5159130000000 1.0
C      1  0.5654230000000  0.5323000000000  0.5078090000000 1.0
C      1  0.4750020000000  0.4873000000000  0.4318930000000 1.0
C      1  0.4874700000000  0.5581870000000  0.4676430000000 1.0
C      1  0.4657270000000  0.5528500000000  0.4878210000000 1.0
END
