TITL C-4164239-2837-650 7.28580794063831 125000 -24107.6071003075 0 0 162 (C1) n - 1
REM
REM in /home/nfs/bkarasulu/CARBON/AIRSS/Generating-Clusters/ReaxFF-fromJPCA2015/Units_Real/with-SteepDescent/Only-C1/SD-CG/Try1-3A/FIRE-CG
REM
REM
REM
REM
REM
REM ./C.cell (11c1c37f851c82e70ff6c80c92926a4b)
REM
REM compiler GCC version 9.2.1 20190827 (Red Hat 9.2.1-1)
REM options -cpp -mtune=generic -march=x86-64 -g -O0 -fpre-include=/usr/include/finclude/math-vector-fortran.h
REM seed 1665602219 1028078159 1418415821 -346255699 -94599477 679747354 1673948271 1963814491 809559867 547269436 794432092 998495874 1406262919 1719634326 -1769719450 -305417039 -1917089585 -797200867 976524564 -886279967 1185580165 1375475201 -2002492093 -225512132 -1304801261 1903931010 1906042771 1713002114 19974463 1649525711 -1857762468 -781556971 -1006261146
REM
CELL 1.54180   50.00000   50.00000   50.00000   90.00000   90.00000   90.00000
LATT -1
SFAC C  
C      1  0.4147140000000  0.4268180000000  0.4808810000000 1.0
C      1  0.4240960000000  0.4233530000000  0.5294010000000 1.0
C      1  0.4474570000000  0.5282260000000  0.5629820000000 1.0
C      1  0.3954580000000  0.5038700000000  0.4909970000000 1.0
C      1  0.5510830000000  0.4717100000000  0.5272880000000 1.0
C      1  0.5954230000000  0.5066950000000  0.5390530000000 1.0
C      1  0.4920460000000  0.4882710000000  0.3811380000000 1.0
C      1  0.5593790000000  0.5678830000000  0.5686180000000 1.0
C      1  0.5605740000000  0.4984670000000  0.4132720000000 1.0
C      1  0.4577800000000  0.5122290000000  0.4045170000000 1.0
C      1  0.5391200000000  0.3996300000000  0.5420150000000 1.0
C      1  0.5193570000000  0.4705980000000  0.6188480000000 1.0
C      1  0.5843360000000  0.4548840000000  0.5480340000000 1.0
C      1  0.4690990000000  0.4270820000000  0.5598210000000 1.0
C      1  0.5111410000000  0.5088690000000  0.4317070000000 1.0
C      1  0.5065920000000  0.5324150000000  0.4482370000000 1.0
C      1  0.5057680000000  0.6042190000000  0.5171480000000 1.0
C      1  0.4206800000000  0.5665370000000  0.4516970000000 1.0
C      1  0.4846330000000  0.4655500000000  0.4912560000000 1.0
C      1  0.4940920000000  0.4888670000000  0.4441240000000 1.0
C      1  0.5351670000000  0.4621980000000  0.4513140000000 1.0
C      1  0.5238620000000  0.4792880000000  0.5740630000000 1.0
C      1  0.4229390000000  0.4203170000000  0.5641560000000 1.0
C      1  0.5134860000000  0.5616100000000  0.4108620000000 1.0
C      1  0.4294800000000  0.5738720000000  0.5553330000000 1.0
C      1  0.4850180000000  0.5991330000000  0.4284100000000 1.0
C      1  0.6076580000000  0.4952260000000  0.5146740000000 1.0
C      1  0.4848250000000  0.4381860000000  0.4825980000000 1.0
C      1  0.5269590000000  0.5237130000000  0.3894090000000 1.0
C      1  0.4128430000000  0.5222580000000  0.4808430000000 1.0
C      1  0.4674030000000  0.5105920000000  0.6050480000000 1.0
C      1  0.5633880000000  0.5543340000000  0.4931950000000 1.0
C      1  0.5480990000000  0.4555430000000  0.5044850000000 1.0
C      1  0.5740560000000  0.4828540000000  0.4344770000000 1.0
C      1  0.4596270000000  0.5504380000000  0.4538780000000 1.0
C      1  0.5864410000000  0.4405220000000  0.5216890000000 1.0
C      1  0.4839270000000  0.5884780000000  0.4751180000000 1.0
C      1  0.4572930000000  0.5796500000000  0.5491590000000 1.0
C      1  0.5295190000000  0.4844910000000  0.4689400000000 1.0
C      1  0.5977690000000  0.4772630000000  0.4950150000000 1.0
C      1  0.4913990000000  0.4653650000000  0.4322430000000 1.0
C      1  0.5387750000000  0.4231180000000  0.5854070000000 1.0
C      1  0.5078670000000  0.4604140000000  0.5945810000000 1.0
C      1  0.4110470000000  0.5315930000000  0.5284320000000 1.0
C      1  0.5275190000000  0.5134860000000  0.5258410000000 1.0
C      1  0.5108880000000  0.4680300000000  0.3881350000000 1.0
C      1  0.4735770000000  0.5349940000000  0.5188190000000 1.0
C      1  0.5375960000000  0.5484790000000  0.4014600000000 1.0
C      1  0.5360230000000  0.5735290000000  0.5305040000000 1.0
C      1  0.5505720000000  0.4075100000000  0.4718640000000 1.0
C      1  0.4905150000000  0.4452420000000  0.5617180000000 1.0
C      1  0.4361580000000  0.5447230000000  0.4379270000000 1.0
C      1  0.4767830000000  0.5319070000000  0.3924680000000 1.0
C      1  0.4378760000000  0.4508420000000  0.4345960000000 1.0
C      1  0.4777290000000  0.5358650000000  0.5707640000000 1.0
C      1  0.4636790000000  0.5323350000000  0.4769080000000 1.0
C      1  0.4860550000000  0.5837740000000  0.5042860000000 1.0
C      1  0.5932090000000  0.5223800000000  0.4678550000000 1.0
C      1  0.4759440000000  0.5113270000000  0.5288720000000 1.0
C      1  0.5015150000000  0.4608160000000  0.5141610000000 1.0
C      1  0.6067020000000  0.5025060000000  0.4848790000000 1.0
C      1  0.5409760000000  0.5295570000000  0.4907320000000 1.0
C      1  0.4946210000000  0.5222800000000  0.4754550000000 1.0
C      1  0.4715220000000  0.4616350000000  0.4134230000000 1.0
C      1  0.5257800000000  0.5386220000000  0.5815580000000 1.0
C      1  0.5497040000000  0.4838160000000  0.5936860000000 1.0
C      1  0.4568500000000  0.4750970000000  0.5004610000000 1.0
C      1  0.5535740000000  0.5003400000000  0.5229500000000 1.0
C      1  0.4868750000000  0.4920880000000  0.5436130000000 1.0
C      1  0.4209020000000  0.4688240000000  0.4466200000000 1.0
C      1  0.4862580000000  0.5590390000000  0.3990940000000 1.0
C      1  0.5086870000000  0.5590320000000  0.4398050000000 1.0
C      1  0.5497430000000  0.5212300000000  0.5417360000000 1.0
C      1  0.5233180000000  0.4439250000000  0.5055410000000 1.0
C      1  0.4759860000000  0.4191760000000  0.4415440000000 1.0
C      1  0.5766790000000  0.5444970000000  0.5668940000000 1.0
C      1  0.5051030000000  0.4196310000000  0.4431200000000 1.0
C      1  0.5545470000000  0.5240210000000  0.5713630000000 1.0
C      1  0.5030660000000  0.5872460000000  0.4524220000000 1.0
C      1  0.4050670000000  0.4339710000000  0.5080660000000 1.0
C      1  0.4532200000000  0.5338690000000  0.6120900000000 1.0
C      1  0.4653040000000  0.4222970000000  0.4686220000000 1.0
C      1  0.4187100000000  0.5674900000000  0.4821610000000 1.0
C      1  0.4894770000000  0.5293240000000  0.5951170000000 1.0
C      1  0.4699310000000  0.4035070000000  0.5130760000000 1.0
C      1  0.4992580000000  0.5172120000000  0.3813120000000 1.0
C      1  0.5731060000000  0.4228550000000  0.4850400000000 1.0
C      1  0.5462880000000  0.3858740000000  0.4922390000000 1.0
C      1  0.5784800000000  0.4142910000000  0.5119970000000 1.0
C      1  0.4406240000000  0.4470180000000  0.5388990000000 1.0
C      1  0.4538680000000  0.4871050000000  0.5878090000000 1.0
C      1  0.5563310000000  0.3947750000000  0.5193270000000 1.0
C      1  0.4263200000000  0.5431340000000  0.5506050000000 1.0
C      1  0.4087320000000  0.4545150000000  0.4717560000000 1.0
C      1  0.5815100000000  0.5487570000000  0.4701890000000 1.0
C      1  0.3877970000000  0.4877640000000  0.5114500000000 1.0
C      1  0.4407840000000  0.4125790000000  0.4828130000000 1.0
C      1  0.4965060000000  0.4022020000000  0.5141940000000 1.0
C      1  0.4997730000000  0.4895450000000  0.4726960000000 1.0
C      1  0.4670180000000  0.4858800000000  0.3968410000000 1.0
C      1  0.4379710000000  0.5096170000000  0.4706230000000 1.0
C      1  0.3977150000000  0.4610940000000  0.4980990000000 1.0
C      1  0.4563900000000  0.5994600000000  0.4257670000000 1.0
C      1  0.4024090000000  0.5044900000000  0.5317090000000 1.0
C      1  0.5462430000000  0.5823410000000  0.4868920000000 1.0
C      1  0.5726950000000  0.5614420000000  0.4442320000000 1.0
C      1  0.5721070000000  0.5226820000000  0.4230120000000 1.0
C      1  0.4574970000000  0.5771000000000  0.5161750000000 1.0
C      1  0.4974710000000  0.5526600000000  0.5141710000000 1.0
C      1  0.5052810000000  0.5816840000000  0.5639870000000 1.0
C      1  0.5694780000000  0.4359280000000  0.5602780000000 1.0
C      1  0.5545040000000  0.4121300000000  0.5650960000000 1.0
C      1  0.5344260000000  0.5914220000000  0.4621290000000 1.0
C      1  0.5104060000000  0.4026940000000  0.5400900000000 1.0
C      1  0.5468160000000  0.5073070000000  0.4727850000000 1.0
C      1  0.5854590000000  0.4862730000000  0.5565860000000 1.0
C      1  0.4587960000000  0.5785410000000  0.4647060000000 1.0
C      1  0.5254640000000  0.4487500000000  0.4017040000000 1.0
C      1  0.5331850000000  0.5937580000000  0.5095840000000 1.0
C      1  0.4430080000000  0.4054430000000  0.5110550000000 1.0
C      1  0.5770410000000  0.5542890000000  0.5214100000000 1.0
C      1  0.5411400000000  0.4856320000000  0.6200880000000 1.0
C      1  0.4444060000000  0.4914080000000  0.4889020000000 1.0
C      1  0.5064640000000  0.5341360000000  0.5588950000000 1.0
C      1  0.5313420000000  0.5038850000000  0.4103690000000 1.0
C      1  0.4244520000000  0.4608890000000  0.5597530000000 1.0
C      1  0.4403410000000  0.4617620000000  0.5841540000000 1.0
C      1  0.5592630000000  0.4578910000000  0.4363490000000 1.0
C      1  0.5522900000000  0.5786580000000  0.4461200000000 1.0
C      1  0.4530670000000  0.5452720000000  0.5025290000000 1.0
C      1  0.4220870000000  0.5415790000000  0.5004020000000 1.0
C      1  0.5313320000000  0.5660510000000  0.5775010000000 1.0
C      1  0.5100930000000  0.5069190000000  0.5492450000000 1.0
C      1  0.4742730000000  0.5849380000000  0.4058030000000 1.0
C      1  0.5886270000000  0.5364070000000  0.5409180000000 1.0
C      1  0.5535680000000  0.4450790000000  0.4087160000000 1.0
C      1  0.4382740000000  0.5901490000000  0.4471120000000 1.0
C      1  0.5747280000000  0.4516850000000  0.4948150000000 1.0
C      1  0.4366780000000  0.5174890000000  0.4251970000000 1.0
C      1  0.5139530000000  0.4481930000000  0.4335700000000 1.0
C      1  0.4257090000000  0.4866960000000  0.5440490000000 1.0
C      1  0.5639380000000  0.5734550000000  0.5394740000000 1.0
C      1  0.5716850000000  0.5068910000000  0.4534740000000 1.0
C      1  0.4752530000000  0.5551320000000  0.5929050000000 1.0
C      1  0.5228650000000  0.4369240000000  0.5994520000000 1.0
C      1  0.4954350000000  0.4171000000000  0.5604470000000 1.0
C      1  0.5130430000000  0.5363600000000  0.4937150000000 1.0
C      1  0.5121770000000  0.5579580000000  0.5393120000000 1.0
C      1  0.5218510000000  0.4116630000000  0.4652400000000 1.0
C      1  0.4902890000000  0.4638970000000  0.5398980000000 1.0
C      1  0.4330550000000  0.5854920000000  0.5001480000000 1.0
C      1  0.4298110000000  0.4970340000000  0.4440860000000 1.0
C      1  0.5698060000000  0.4973940000000  0.5776390000000 1.0
C      1  0.5079850000000  0.4227610000000  0.4909860000000 1.0
C      1  0.4457500000000  0.4312570000000  0.5785130000000 1.0
C      1  0.5058360000000  0.6068980000000  0.5457550000000 1.0
C      1  0.4587130000000  0.4364810000000  0.4232590000000 1.0
C      1  0.4420270000000  0.5010390000000  0.5667130000000 1.0
C      1  0.4411450000000  0.4706330000000  0.5234540000000 1.0
C      1  0.5628330000000  0.5490130000000  0.4178880000000 1.0
C      1  0.4769290000000  0.5759070000000  0.5708290000000 1.0
C      1  0.5368170000000  0.4744960000000  0.5504950000000 1.0
END
