TITL C-4164246-3563-64 3.44182346619332 125000 -15883.0870063584 0 0 106 (C1) n - 1
REM
REM in /home/nfs/bkarasulu/CARBON/AIRSS/Generating-Clusters/ReaxFF-fromJPCA2015/Units_Real/with-SteepDescent/Only-C1/SD-CG/Try1-3A/FIRE-CG
REM
REM
REM
REM
REM
REM ./C.cell (11c1c37f851c82e70ff6c80c92926a4b)
REM
REM compiler GCC version 9.2.1 20190827 (Red Hat 9.2.1-1)
REM options -cpp -mtune=generic -march=x86-64 -g -O0 -fpre-include=/usr/include/finclude/math-vector-fortran.h
REM seed 1217134174 -2039450065 1978406700 577125859 -1170893786 1265664726 608240630 -1621916968 -100235421 -1317902196 1603234080 143715458 584268409 -406674421 -1291780978 401560625 1882314645 520157470 273226073 -1500810167 -1984084412 421797232 -1501075899 -567122128 -318636679 -839174787 1227174971 1234962191 -1380445558 -375004945 1545039296 -1011562443 -942451159
REM
CELL 1.54180   50.00000   50.00000   50.00000   90.00000   90.00000   90.00000
LATT -1
SFAC C  
C      1  0.4223810000000  0.4687540000000  0.5042260000000 1.0
C      1  0.4076470000000  0.4878220000000  0.5210290000000 1.0
C      1  0.4551220000000  0.5543940000000  0.4323930000000 1.0
C      1  0.5566090000000  0.5464310000000  0.5425680000000 1.0
C      1  0.4123300000000  0.5159980000000  0.5149700000000 1.0
C      1  0.5705050000000  0.4966480000000  0.5695400000000 1.0
C      1  0.5837290000000  0.4768080000000  0.5530750000000 1.0
C      1  0.4791950000000  0.4553940000000  0.4397740000000 1.0
C      1  0.5316770000000  0.4275410000000  0.5746420000000 1.0
C      1  0.5019030000000  0.5860560000000  0.4898740000000 1.0
C      1  0.4505970000000  0.5132260000000  0.5442180000000 1.0
C      1  0.4597610000000  0.4344700000000  0.4752490000000 1.0
C      1  0.4260240000000  0.4809210000000  0.5716200000000 1.0
C      1  0.4481850000000  0.4850670000000  0.5870980000000 1.0
C      1  0.4895400000000  0.5524340000000  0.5097130000000 1.0
C      1  0.4690580000000  0.4760810000000  0.4910940000000 1.0
C      1  0.4286900000000  0.5286870000000  0.5357910000000 1.0
C      1  0.4321640000000  0.5574150000000  0.5386360000000 1.0
C      1  0.4774900000000  0.5760900000000  0.4746790000000 1.0
C      1  0.4961790000000  0.5351700000000  0.4526870000000 1.0
C      1  0.4677920000000  0.5061660000000  0.5231780000000 1.0
C      1  0.5287880000000  0.5768700000000  0.4904120000000 1.0
C      1  0.5411620000000  0.5558790000000  0.4487360000000 1.0
C      1  0.5549660000000  0.5669500000000  0.4916400000000 1.0
C      1  0.4499230000000  0.4601880000000  0.4367660000000 1.0
C      1  0.4351330000000  0.5473280000000  0.4506830000000 1.0
C      1  0.4062800000000  0.4809130000000  0.5506150000000 1.0
C      1  0.5352080000000  0.5237670000000  0.3952000000000 1.0
C      1  0.4697780000000  0.4647600000000  0.5553730000000 1.0
C      1  0.4674640000000  0.5437260000000  0.4958960000000 1.0
C      1  0.4695100000000  0.4184560000000  0.4973650000000 1.0
C      1  0.5544270000000  0.4747130000000  0.5849850000000 1.0
C      1  0.5286550000000  0.5123080000000  0.4795310000000 1.0
C      1  0.5170560000000  0.5108590000000  0.5087020000000 1.0
C      1  0.5261610000000  0.4743220000000  0.4200910000000 1.0
C      1  0.4443840000000  0.4876550000000  0.4281620000000 1.0
C      1  0.5530690000000  0.4454710000000  0.5797870000000 1.0
C      1  0.5369580000000  0.4409610000000  0.4793680000000 1.0
C      1  0.5063470000000  0.5573820000000  0.5555600000000 1.0
C      1  0.5774230000000  0.4756220000000  0.5073930000000 1.0
C      1  0.5806320000000  0.4575640000000  0.5298770000000 1.0
C      1  0.5515470000000  0.4713820000000  0.4377730000000 1.0
C      1  0.5601510000000  0.4365290000000  0.5306030000000 1.0
C      1  0.4872480000000  0.4485090000000  0.5905570000000 1.0
C      1  0.5652750000000  0.5603200000000  0.4647420000000 1.0
C      1  0.5022510000000  0.4293290000000  0.5718140000000 1.0
C      1  0.4497520000000  0.4661010000000  0.5087140000000 1.0
C      1  0.4859640000000  0.5099830000000  0.5700550000000 1.0
C      1  0.4678100000000  0.4252840000000  0.5262060000000 1.0
C      1  0.4195970000000  0.4694900000000  0.4752140000000 1.0
C      1  0.4261150000000  0.5474110000000  0.4764170000000 1.0
C      1  0.5565430000000  0.4560930000000  0.4619680000000 1.0
C      1  0.4899050000000  0.5015640000000  0.4062730000000 1.0
C      1  0.5577080000000  0.5228910000000  0.5614410000000 1.0
C      1  0.5784360000000  0.5181780000000  0.4407200000000 1.0
C      1  0.5123140000000  0.4364110000000  0.5176730000000 1.0
C      1  0.4875020000000  0.5818050000000  0.5158330000000 1.0
C      1  0.4560330000000  0.5753410000000  0.5441680000000 1.0
C      1  0.5539360000000  0.4285540000000  0.5578340000000 1.0
C      1  0.5779790000000  0.5246610000000  0.5068430000000 1.0
C      1  0.5071860000000  0.4646180000000  0.5107190000000 1.0
C      1  0.4418130000000  0.5752350000000  0.5184760000000 1.0
C      1  0.5655620000000  0.4953970000000  0.4370170000000 1.0
C      1  0.5309410000000  0.5129200000000  0.5557320000000 1.0
C      1  0.5163570000000  0.4985940000000  0.4044730000000 1.0
C      1  0.4566680000000  0.5092340000000  0.5717070000000 1.0
C      1  0.5170000000000  0.4165100000000  0.4736180000000 1.0
C      1  0.4152990000000  0.4984490000000  0.4687100000000 1.0
C      1  0.5784060000000  0.4684040000000  0.4776610000000 1.0
C      1  0.5062720000000  0.5290800000000  0.5632980000000 1.0
C      1  0.4383050000000  0.4506060000000  0.4619040000000 1.0
C      1  0.4927670000000  0.4815610000000  0.5645200000000 1.0
C      1  0.5306640000000  0.4813540000000  0.6009850000000 1.0
C      1  0.4995060000000  0.4167480000000  0.4963980000000 1.0
C      1  0.4393900000000  0.5009100000000  0.4533650000000 1.0
C      1  0.4584500000000  0.4523100000000  0.5311770000000 1.0
C      1  0.4796640000000  0.5600520000000  0.4509490000000 1.0
C      1  0.4908060000000  0.5077300000000  0.4603910000000 1.0
C      1  0.5132870000000  0.5397970000000  0.5164440000000 1.0
C      1  0.5235870000000  0.5355630000000  0.4623510000000 1.0
C      1  0.5032390000000  0.4732840000000  0.5909070000000 1.0
C      1  0.5649540000000  0.5008840000000  0.5168800000000 1.0
C      1  0.4524950000000  0.5293350000000  0.4192110000000 1.0
C      1  0.5658870000000  0.5494670000000  0.5152690000000 1.0
C      1  0.5260090000000  0.5558540000000  0.3949470000000 1.0
C      1  0.5012990000000  0.4657700000000  0.4262370000000 1.0
C      1  0.5895230000000  0.4935020000000  0.4709090000000 1.0
C      1  0.5378350000000  0.5027100000000  0.5290530000000 1.0
C      1  0.4890930000000  0.4199290000000  0.5471640000000 1.0
C      1  0.5922820000000  0.5203890000000  0.4804430000000 1.0
C      1  0.5291420000000  0.5552860000000  0.5364720000000 1.0
C      1  0.5580000000000  0.5190590000000  0.3865080000000 1.0
C      1  0.5403160000000  0.4346390000000  0.5100640000000 1.0
C      1  0.4637360000000  0.5009990000000  0.4751110000000 1.0
C      1  0.4603460000000  0.5181590000000  0.4980740000000 1.0
C      1  0.4856750000000  0.5754110000000  0.5445050000000 1.0
C      1  0.4611790000000  0.5047870000000  0.4082300000000 1.0
C      1  0.4903740000000  0.4884650000000  0.5137290000000 1.0
C      1  0.5348860000000  0.5566960000000  0.4211580000000 1.0
C      1  0.4141440000000  0.5222390000000  0.4865700000000 1.0
C      1  0.5134080000000  0.4910050000000  0.4680750000000 1.0
C      1  0.5848020000000  0.5395370000000  0.4585900000000 1.0
C      1  0.4495180000000  0.5648820000000  0.4907240000000 1.0
C      1  0.4602230000000  0.4581010000000  0.5824330000000 1.0
C      1  0.4818920000000  0.4538840000000  0.4703930000000 1.0
C      1  0.5118420000000  0.4635500000000  0.4814060000000 1.0
END
