TITL C-4164246-3563-325 15.1130865177448 125000 -4004.97623882627 0 0 29 (C1) n - 1
REM
REM in /home/nfs/bkarasulu/CARBON/AIRSS/Generating-Clusters/ReaxFF-fromJPCA2015/Units_Real/with-SteepDescent/Only-C1/SD-CG/Try1-3A/FIRE-CG
REM
REM
REM
REM
REM
REM ./C.cell (11c1c37f851c82e70ff6c80c92926a4b)
REM
REM compiler GCC version 9.2.1 20190827 (Red Hat 9.2.1-1)
REM options -cpp -mtune=generic -march=x86-64 -g -O0 -fpre-include=/usr/include/finclude/math-vector-fortran.h
REM seed -663187350 -1991050942 -2034673681 -319662250 -634142779 -1580007290 544790210 -1496581954 -1847034217 39133382 -28383726 -1074399538 -58716648 1329869735 1868752418 -877355592 -2139600729 -258257820 799219579 1574373653 -11363497 -1725975317 -115642925 414873751 -1610108505 -422587160 2019196184 -1645962152 -605325015 1031567934 -1891933106 -2126489720 1041501132
REM
CELL 1.54180   50.00000   50.00000   50.00000   90.00000   90.00000   90.00000
LATT -1
SFAC C  
C      1  0.4632580000000  0.4956230000000  0.5225210000000 1.0
C      1  0.5462510000000  0.4679710000000  0.4660930000000 1.0
C      1  0.4799400000000  0.5156990000000  0.5179610000000 1.0
C      1  0.4398600000000  0.5038820000000  0.5058020000000 1.0
C      1  0.4733850000000  0.4559320000000  0.4988650000000 1.0
C      1  0.5681950000000  0.4782620000000  0.4653690000000 1.0
C      1  0.4841020000000  0.4513060000000  0.5473650000000 1.0
C      1  0.4385930000000  0.5244610000000  0.4863710000000 1.0
C      1  0.5420660000000  0.5191620000000  0.5256930000000 1.0
C      1  0.5075690000000  0.5475210000000  0.4869200000000 1.0
C      1  0.4977710000000  0.5210250000000  0.4414280000000 1.0
C      1  0.5236220000000  0.5338900000000  0.4510550000000 1.0
C      1  0.5186620000000  0.5375010000000  0.5346410000000 1.0
C      1  0.4974720000000  0.5367980000000  0.5131670000000 1.0
C      1  0.5013340000000  0.4640940000000  0.5545420000000 1.0
C      1  0.4799830000000  0.5027400000000  0.4506860000000 1.0
C      1  0.4719730000000  0.4576860000000  0.4714050000000 1.0
C      1  0.4985280000000  0.5460800000000  0.4588950000000 1.0
C      1  0.4996970000000  0.4514770000000  0.4689200000000 1.0
C      1  0.4622720000000  0.4853660000000  0.4600140000000 1.0
C      1  0.5421220000000  0.4926100000000  0.5399420000000 1.0
C      1  0.5346850000000  0.5385790000000  0.4785430000000 1.0
C      1  0.5516640000000  0.5228240000000  0.4980340000000 1.0
C      1  0.4399050000000  0.4990270000000  0.4753110000000 1.0
C      1  0.5092330000000  0.5329790000000  0.5608140000000 1.0
C      1  0.5228400000000  0.4839980000000  0.5610560000000 1.0
C      1  0.5219600000000  0.4584900000000  0.4671920000000 1.0
C      1  0.5135630000000  0.5109580000000  0.5664250000000 1.0
C      1  0.4694950000000  0.4640580000000  0.5249700000000 1.0
END
