TITL C-4164246-3563-186 30.0218436124309 125000 -23087.7501010377 0 0 153 (C1) n - 1
REM
REM in /home/nfs/bkarasulu/CARBON/AIRSS/Generating-Clusters/ReaxFF-fromJPCA2015/Units_Real/with-SteepDescent/Only-C1/SD-CG/Try1-3A/FIRE-CG
REM
REM
REM
REM
REM
REM ./C.cell (11c1c37f851c82e70ff6c80c92926a4b)
REM
REM compiler GCC version 9.2.1 20190827 (Red Hat 9.2.1-1)
REM options -cpp -mtune=generic -march=x86-64 -g -O0 -fpre-include=/usr/include/finclude/math-vector-fortran.h
REM seed 2082412391 -101071038 1549049041 1874360970 -195638215 -623808876 -52216742 -979931568 927332151 1098228479 1951882555 -1385765575 605683843 626897193 -1940616736 -335886552 -2094449437 -1877815516 -1973925361 -2023271534 -1558354402 2106950810 356082344 526645801 -1165221576 -128245199 1157574170 -206782535 1765774778 -868838389 1272306985 405665243 -83705595
REM
CELL 1.54180   50.00000   50.00000   50.00000   90.00000   90.00000   90.00000
LATT -1
SFAC C  
C      1  0.4695500000000  0.5355870000000  0.4784100000000 1.0
C      1  0.5169620000000  0.5610700000000  0.4855940000000 1.0
C      1  0.5588540000000  0.5724520000000  0.5187380000000 1.0
C      1  0.4817970000000  0.5052250000000  0.3963850000000 1.0
C      1  0.4772140000000  0.4436610000000  0.4892560000000 1.0
C      1  0.4986860000000  0.5807300000000  0.4438070000000 1.0
C      1  0.4584000000000  0.5589420000000  0.4912720000000 1.0
C      1  0.4923460000000  0.4042290000000  0.5185770000000 1.0
C      1  0.4882900000000  0.4752290000000  0.3956100000000 1.0
C      1  0.5662430000000  0.5784520000000  0.4701480000000 1.0
C      1  0.4451310000000  0.5031120000000  0.5217730000000 1.0
C      1  0.5539730000000  0.5109320000000  0.4833790000000 1.0
C      1  0.5431490000000  0.5071530000000  0.4094350000000 1.0
C      1  0.4121180000000  0.4997730000000  0.4536920000000 1.0
C      1  0.4505660000000  0.4909860000000  0.4966160000000 1.0
C      1  0.4916990000000  0.5114880000000  0.6123840000000 1.0
C      1  0.5235280000000  0.5731390000000  0.4306250000000 1.0
C      1  0.6111950000000  0.4743720000000  0.5344920000000 1.0
C      1  0.4420630000000  0.4185170000000  0.5102830000000 1.0
C      1  0.4244330000000  0.4364990000000  0.5270540000000 1.0
C      1  0.5846620000000  0.5341960000000  0.4537030000000 1.0
C      1  0.5010270000000  0.5292220000000  0.5585340000000 1.0
C      1  0.5137190000000  0.4858360000000  0.5503170000000 1.0
C      1  0.5545040000000  0.5291410000000  0.4593810000000 1.0
C      1  0.4306520000000  0.4414110000000  0.4426750000000 1.0
C      1  0.4547520000000  0.5226140000000  0.4592800000000 1.0
C      1  0.5175140000000  0.4866880000000  0.4980720000000 1.0
C      1  0.5065360000000  0.5218980000000  0.4697270000000 1.0
C      1  0.5116010000000  0.4075580000000  0.5409470000000 1.0
C      1  0.4149440000000  0.4605870000000  0.5143590000000 1.0
C      1  0.5949550000000  0.4585010000000  0.5527570000000 1.0
C      1  0.4551440000000  0.5839890000000  0.5570320000000 1.0
C      1  0.4534820000000  0.5866530000000  0.5273580000000 1.0
C      1  0.4427050000000  0.4201490000000  0.4808010000000 1.0
C      1  0.5656920000000  0.4585660000000  0.4381080000000 1.0
C      1  0.4680950000000  0.4420690000000  0.4135790000000 1.0
C      1  0.5877460000000  0.4740910000000  0.4865720000000 1.0
C      1  0.4227710000000  0.4873580000000  0.5277090000000 1.0
C      1  0.5012970000000  0.5096180000000  0.5388250000000 1.0
C      1  0.5478390000000  0.5720490000000  0.4478440000000 1.0
C      1  0.4337700000000  0.5436800000000  0.5338900000000 1.0
C      1  0.5047510000000  0.5954710000000  0.5471720000000 1.0
C      1  0.4644860000000  0.4078140000000  0.5259890000000 1.0
C      1  0.4507820000000  0.4609730000000  0.4007620000000 1.0
C      1  0.4493990000000  0.5625250000000  0.4352450000000 1.0
C      1  0.5920070000000  0.5064400000000  0.4539610000000 1.0
C      1  0.4922370000000  0.4110980000000  0.4652600000000 1.0
C      1  0.4637420000000  0.4662940000000  0.5847160000000 1.0
C      1  0.4504140000000  0.5623570000000  0.5753890000000 1.0
C      1  0.5149780000000  0.4821480000000  0.3843250000000 1.0
C      1  0.4957050000000  0.4558430000000  0.4186150000000 1.0
C      1  0.5336360000000  0.4155910000000  0.4712530000000 1.0
C      1  0.5383280000000  0.4796570000000  0.4017860000000 1.0
C      1  0.3891830000000  0.5102250000000  0.4890010000000 1.0
C      1  0.5352670000000  0.5518730000000  0.4647050000000 1.0
C      1  0.5158680000000  0.5527860000000  0.4105770000000 1.0
C      1  0.4536530000000  0.5196580000000  0.5722670000000 1.0
C      1  0.6067230000000  0.5164870000000  0.5007400000000 1.0
C      1  0.5866600000000  0.5563160000000  0.4725340000000 1.0
C      1  0.3973960000000  0.5252630000000  0.4635730000000 1.0
C      1  0.4737050000000  0.5825190000000  0.4872600000000 1.0
C      1  0.3979640000000  0.4845630000000  0.4751050000000 1.0
C      1  0.4251320000000  0.4372390000000  0.5565210000000 1.0
C      1  0.4518420000000  0.5336460000000  0.4325130000000 1.0
C      1  0.4547150000000  0.5282170000000  0.5427560000000 1.0
C      1  0.4420500000000  0.5632250000000  0.5151580000000 1.0
C      1  0.4202060000000  0.4876950000000  0.5727610000000 1.0
C      1  0.4257090000000  0.5722540000000  0.4528130000000 1.0
C      1  0.5446240000000  0.5074120000000  0.4379310000000 1.0
C      1  0.5727480000000  0.4277540000000  0.4833180000000 1.0
C      1  0.4093990000000  0.5493540000000  0.4599620000000 1.0
C      1  0.5026360000000  0.4199510000000  0.5672500000000 1.0
C      1  0.5801430000000  0.5091990000000  0.5405540000000 1.0
C      1  0.5602990000000  0.4826000000000  0.4779090000000 1.0
C      1  0.4637610000000  0.4144390000000  0.4596070000000 1.0
C      1  0.4706570000000  0.4603720000000  0.5310490000000 1.0
C      1  0.4542340000000  0.4261690000000  0.4346310000000 1.0
C      1  0.5143810000000  0.5065650000000  0.4462730000000 1.0
C      1  0.5703640000000  0.5345760000000  0.5396930000000 1.0
C      1  0.5172970000000  0.4188800000000  0.4487680000000 1.0
C      1  0.4908620000000  0.4894990000000  0.4978010000000 1.0
C      1  0.5816010000000  0.5748070000000  0.5826820000000 1.0
C      1  0.6044480000000  0.4970370000000  0.4785990000000 1.0
C      1  0.4224640000000  0.4378360000000  0.4704290000000 1.0
C      1  0.5076790000000  0.5108710000000  0.3836970000000 1.0
C      1  0.5951640000000  0.5434140000000  0.4975540000000 1.0
C      1  0.4100510000000  0.4938650000000  0.4227640000000 1.0
C      1  0.4896600000000  0.5392340000000  0.6042300000000 1.0
C      1  0.5046630000000  0.4800810000000  0.4417860000000 1.0
C      1  0.4611110000000  0.4769190000000  0.4548430000000 1.0
C      1  0.5091450000000  0.4616770000000  0.4626150000000 1.0
C      1  0.5408860000000  0.4452720000000  0.5772410000000 1.0
C      1  0.4802490000000  0.4574340000000  0.4652230000000 1.0
C      1  0.4976060000000  0.5786390000000  0.4727240000000 1.0
C      1  0.3975620000000  0.5197390000000  0.5134400000000 1.0
C      1  0.5481650000000  0.4334760000000  0.5500750000000 1.0
C      1  0.5622850000000  0.4910510000000  0.5502210000000 1.0
C      1  0.5721420000000  0.4715710000000  0.5679360000000 1.0
C      1  0.4082040000000  0.5011260000000  0.5495320000000 1.0
C      1  0.5478990000000  0.4722920000000  0.5840860000000 1.0
C      1  0.4090500000000  0.4598200000000  0.4861480000000 1.0
C      1  0.5786230000000  0.5524480000000  0.5196710000000 1.0
C      1  0.5127050000000  0.4401270000000  0.5854820000000 1.0
C      1  0.6004040000000  0.4481860000000  0.5259080000000 1.0
C      1  0.5198700000000  0.4392860000000  0.4256200000000 1.0
C      1  0.5396660000000  0.4821840000000  0.5375220000000 1.0
C      1  0.4644420000000  0.4334820000000  0.5401810000000 1.0
C      1  0.4866600000000  0.5532670000000  0.4098690000000 1.0
C      1  0.4807800000000  0.5470990000000  0.5492510000000 1.0
C      1  0.5277870000000  0.5832730000000  0.5586880000000 1.0
C      1  0.5383430000000  0.4132820000000  0.5325710000000 1.0
C      1  0.5273070000000  0.5272610000000  0.5744130000000 1.0
C      1  0.4751870000000  0.5735930000000  0.4274460000000 1.0
C      1  0.4173410000000  0.4582650000000  0.5750220000000 1.0
C      1  0.5167280000000  0.5511710000000  0.5135640000000 1.0
C      1  0.4839360000000  0.5756750000000  0.5554660000000 1.0
C      1  0.5264410000000  0.5119860000000  0.4889500000000 1.0
C      1  0.5680690000000  0.4880880000000  0.4465050000000 1.0
C      1  0.4921220000000  0.4619430000000  0.5923770000000 1.0
C      1  0.5588920000000  0.5631120000000  0.5805480000000 1.0
C      1  0.5272480000000  0.6022750000000  0.5020220000000 1.0
C      1  0.5310220000000  0.4647960000000  0.4844580000000 1.0
C      1  0.5266970000000  0.4934330000000  0.5810090000000 1.0
C      1  0.4481710000000  0.4918290000000  0.5799560000000 1.0
C      1  0.5022960000000  0.5282110000000  0.5171160000000 1.0
C      1  0.4612860000000  0.5410650000000  0.5908840000000 1.0
C      1  0.4812050000000  0.4389570000000  0.5621510000000 1.0
C      1  0.5162830000000  0.5473820000000  0.5932330000000 1.0
C      1  0.6043130000000  0.5018340000000  0.5258870000000 1.0
C      1  0.5902950000000  0.4473140000000  0.4978490000000 1.0
C      1  0.4388880000000  0.4695230000000  0.4388540000000 1.0
C      1  0.5694240000000  0.4416430000000  0.4598420000000 1.0
C      1  0.5440940000000  0.4543310000000  0.5292060000000 1.0
C      1  0.4710920000000  0.5282520000000  0.4107640000000 1.0
C      1  0.5372670000000  0.5627620000000  0.5361560000000 1.0
C      1  0.5528000000000  0.5888600000000  0.4959700000000 1.0
C      1  0.5266240000000  0.5280900000000  0.3985210000000 1.0
C      1  0.4930620000000  0.4203430000000  0.4936210000000 1.0
C      1  0.4707280000000  0.4693170000000  0.5028690000000 1.0
C      1  0.4865720000000  0.5179940000000  0.4926740000000 1.0
C      1  0.5030670000000  0.6038650000000  0.5186540000000 1.0
C      1  0.5297930000000  0.5720300000000  0.5853090000000 1.0
C      1  0.4334320000000  0.4820970000000  0.4097500000000 1.0
C      1  0.4907290000000  0.4643330000000  0.5495440000000 1.0
C      1  0.5425130000000  0.4558130000000  0.4192780000000 1.0
C      1  0.4458190000000  0.4968480000000  0.4679870000000 1.0
C      1  0.4435540000000  0.4460050000000  0.5789230000000 1.0
C      1  0.5048060000000  0.4871170000000  0.6000140000000 1.0
C      1  0.5359670000000  0.4451030000000  0.5040570000000 1.0
C      1  0.4749470000000  0.5969690000000  0.5110240000000 1.0
C      1  0.5487070000000  0.5426340000000  0.5554450000000 1.0
C      1  0.5456690000000  0.4176630000000  0.4983350000000 1.0
C      1  0.4087500000000  0.5290590000000  0.5372540000000 1.0
END
