TITL C-4164245-3996-266 30.0307163302208 125000 -13995.2666933393 0 0 96 (C1) n - 1
REM
REM in /home/nfs/bkarasulu/CARBON/AIRSS/Generating-Clusters/ReaxFF-fromJPCA2015/Units_Real/with-SteepDescent/Only-C1/SD-CG/Try1-3A/FIRE-CG
REM
REM
REM
REM
REM
REM ./C.cell (11c1c37f851c82e70ff6c80c92926a4b)
REM
REM compiler GCC version 9.2.1 20190827 (Red Hat 9.2.1-1)
REM options -cpp -mtune=generic -march=x86-64 -g -O0 -fpre-include=/usr/include/finclude/math-vector-fortran.h
REM seed -184244656 1524253860 -315071382 -433345292 -74498737 498682560 -115027981 2072906867 -1239691603 1036384978 777864370 -744933312 -2038392897 -1438672792 277581010 2141631228 646148296 -1600323580 -874240058 275241066 -602788731 448418407 -1014257393 -1758193804 1068069968 67115526 -1633721741 -301825258 -1040251257 1265976888 -2099743979 605523126 35619427
REM
CELL 1.54180   50.00000   50.00000   50.00000   90.00000   90.00000   90.00000
LATT -1
SFAC C  
C      1  0.5818040000000  0.4807680000000  0.5315260000000 1.0
C      1  0.4230860000000  0.4228930000000  0.4650470000000 1.0
C      1  0.4713610000000  0.5653200000000  0.5233580000000 1.0
C      1  0.4579580000000  0.5062070000000  0.5013400000000 1.0
C      1  0.5329040000000  0.5681520000000  0.5282980000000 1.0
C      1  0.5066480000000  0.4716690000000  0.5628140000000 1.0
C      1  0.4186220000000  0.5500380000000  0.4750620000000 1.0
C      1  0.5505530000000  0.4926000000000  0.5694850000000 1.0
C      1  0.4739780000000  0.4358640000000  0.4696740000000 1.0
C      1  0.4870740000000  0.4717770000000  0.4261820000000 1.0
C      1  0.4214150000000  0.4512800000000  0.4577600000000 1.0
C      1  0.5129910000000  0.4579160000000  0.4284680000000 1.0
C      1  0.5113600000000  0.5909510000000  0.5002770000000 1.0
C      1  0.5785240000000  0.5279150000000  0.5466420000000 1.0
C      1  0.5181090000000  0.5504390000000  0.4699100000000 1.0
C      1  0.4575280000000  0.5645770000000  0.5436750000000 1.0
C      1  0.4661200000000  0.4219310000000  0.5304900000000 1.0
C      1  0.4653460000000  0.4520630000000  0.5574050000000 1.0
C      1  0.4730880000000  0.5097150000000  0.4516910000000 1.0
C      1  0.5598420000000  0.5198900000000  0.5682180000000 1.0
C      1  0.5716700000000  0.4791410000000  0.5037310000000 1.0
C      1  0.5039070000000  0.5287270000000  0.4805530000000 1.0
C      1  0.5252240000000  0.4795730000000  0.4691760000000 1.0
C      1  0.5513850000000  0.4600530000000  0.4588260000000 1.0
C      1  0.4714210000000  0.4666390000000  0.5186350000000 1.0
C      1  0.5762690000000  0.5170930000000  0.4579630000000 1.0
C      1  0.5757250000000  0.4980710000000  0.4357270000000 1.0
C      1  0.5171870000000  0.5732220000000  0.5521220000000 1.0
C      1  0.4497920000000  0.5135320000000  0.5297210000000 1.0
C      1  0.5500760000000  0.5212300000000  0.4767090000000 1.0
C      1  0.5030590000000  0.5080950000000  0.5852100000000 1.0
C      1  0.4966530000000  0.5360440000000  0.5067260000000 1.0
C      1  0.4642200000000  0.5235120000000  0.4778320000000 1.0
C      1  0.5231630000000  0.5091830000000  0.4706920000000 1.0
C      1  0.5431720000000  0.5402600000000  0.5816020000000 1.0
C      1  0.4610800000000  0.4779870000000  0.4958310000000 1.0
C      1  0.5130750000000  0.5356120000000  0.5840130000000 1.0
C      1  0.4702950000000  0.5462290000000  0.5618520000000 1.0
C      1  0.5079960000000  0.5168120000000  0.5270480000000 1.0
C      1  0.4558990000000  0.4486020000000  0.5346970000000 1.0
C      1  0.4003740000000  0.4957240000000  0.5132700000000 1.0
C      1  0.5255270000000  0.6103720000000  0.4921630000000 1.0
C      1  0.5560560000000  0.4232470000000  0.5281000000000 1.0
C      1  0.4306400000000  0.4756890000000  0.4494940000000 1.0
C      1  0.4780580000000  0.4696290000000  0.5732680000000 1.0
C      1  0.5149680000000  0.4299940000000  0.4707910000000 1.0
C      1  0.5435700000000  0.5491840000000  0.4823740000000 1.0
C      1  0.5000830000000  0.4678790000000  0.5150090000000 1.0
C      1  0.5515140000000  0.5570050000000  0.5099510000000 1.0
C      1  0.5764730000000  0.5444140000000  0.5221840000000 1.0
C      1  0.4944490000000  0.4197150000000  0.5182530000000 1.0
C      1  0.5673980000000  0.4563800000000  0.4854620000000 1.0
C      1  0.4637450000000  0.5178020000000  0.5569500000000 1.0
C      1  0.4063990000000  0.4698050000000  0.5224660000000 1.0
C      1  0.4219520000000  0.4511160000000  0.5309380000000 1.0
C      1  0.4129710000000  0.4917140000000  0.4640090000000 1.0
C      1  0.5242470000000  0.5568270000000  0.4194690000000 1.0
C      1  0.4649010000000  0.4803410000000  0.4465950000000 1.0
C      1  0.5387880000000  0.5651220000000  0.5686940000000 1.0
C      1  0.3965230000000  0.5034620000000  0.4829940000000 1.0
C      1  0.5002660000000  0.4962070000000  0.4165890000000 1.0
C      1  0.5496160000000  0.4459030000000  0.5502190000000 1.0
C      1  0.4983800000000  0.5541070000000  0.5677960000000 1.0
C      1  0.4766620000000  0.4994130000000  0.5748040000000 1.0
C      1  0.4924820000000  0.5181710000000  0.4345310000000 1.0
C      1  0.5668700000000  0.4723070000000  0.4375910000000 1.0
C      1  0.5324980000000  0.5072740000000  0.5190140000000 1.0
C      1  0.5909960000000  0.5210840000000  0.4803950000000 1.0
C      1  0.4784970000000  0.5660460000000  0.4437020000000 1.0
C      1  0.4509770000000  0.4229170000000  0.4588040000000 1.0
C      1  0.5620150000000  0.4383800000000  0.5042500000000 1.0
C      1  0.5265310000000  0.4808620000000  0.4161230000000 1.0
C      1  0.4469570000000  0.4151980000000  0.5114260000000 1.0
C      1  0.5284520000000  0.4418170000000  0.4493750000000 1.0
C      1  0.4417330000000  0.5414530000000  0.4759400000000 1.0
C      1  0.5935680000000  0.5075910000000  0.5318980000000 1.0
C      1  0.4697460000000  0.4654290000000  0.4718500000000 1.0
C      1  0.5068850000000  0.5478200000000  0.4398180000000 1.0
C      1  0.5233040000000  0.4888060000000  0.5792370000000 1.0
C      1  0.5547320000000  0.4880130000000  0.4181980000000 1.0
C      1  0.4752400000000  0.5753100000000  0.4721350000000 1.0
C      1  0.5957880000000  0.5270140000000  0.5077080000000 1.0
C      1  0.4636890000000  0.5967390000000  0.4660340000000 1.0
C      1  0.5132340000000  0.4739960000000  0.4910340000000 1.0
C      1  0.4892490000000  0.5647560000000  0.5017640000000 1.0
C      1  0.5218360000000  0.4445530000000  0.5559750000000 1.0
C      1  0.5543330000000  0.5035920000000  0.5032540000000 1.0
C      1  0.5149560000000  0.4285830000000  0.5346540000000 1.0
C      1  0.4577050000000  0.5571990000000  0.4297470000000 1.0
C      1  0.4386080000000  0.5490730000000  0.4169290000000 1.0
C      1  0.4023450000000  0.5308200000000  0.4768630000000 1.0
C      1  0.5001800000000  0.4890200000000  0.5353850000000 1.0
C      1  0.4230860000000  0.5067560000000  0.5260370000000 1.0
C      1  0.5631160000000  0.4717960000000  0.5527000000000 1.0
C      1  0.4310430000000  0.4130730000000  0.4918610000000 1.0
C      1  0.4962150000000  0.4219190000000  0.4879370000000 1.0
END
