TITL C-4164247-2821-732 -7.57733114386968 125000 -19437.8654621317 0 0 130 (C1) n - 1
REM
REM in /home/nfs/bkarasulu/CARBON/AIRSS/Generating-Clusters/ReaxFF-fromJPCA2015/Units_Real/with-SteepDescent/Only-C1/SD-CG/Try1-3A/FIRE-CG
REM
REM
REM
REM
REM
REM ./C.cell (11c1c37f851c82e70ff6c80c92926a4b)
REM
REM compiler GCC version 9.2.1 20190827 (Red Hat 9.2.1-1)
REM options -cpp -mtune=generic -march=x86-64 -g -O0 -fpre-include=/usr/include/finclude/math-vector-fortran.h
REM seed 866108509 -1035837933 810430781 2079526361 -1794480615 1321583030 2100034736 999287028 1316430463 -1221385912 1380782157 988185389 -1450791908 1267229580 926845390 1785684583 1506562671 -59774294 -1425962949 381939386 -2072363706 -536528436 1721595176 -1212226394 -1424539811 902094674 -151501165 -112443903 1121351783 1746115483 -924499948 -1257935967 -567772448
REM
CELL 1.54180   50.00000   50.00000   50.00000   90.00000   90.00000   90.00000
LATT -1
SFAC C  
C      1  0.5742920000000  0.4352010000000  0.5091420000000 1.0
C      1  0.4208770000000  0.5456880000000  0.4697720000000 1.0
C      1  0.4645190000000  0.4798460000000  0.5032280000000 1.0
C      1  0.4193350000000  0.5610580000000  0.4952800000000 1.0
C      1  0.5756570000000  0.4464340000000  0.4823610000000 1.0
C      1  0.3998720000000  0.5045840000000  0.4973800000000 1.0
C      1  0.4392860000000  0.4542270000000  0.4453430000000 1.0
C      1  0.5394780000000  0.5095340000000  0.5294890000000 1.0
C      1  0.4496800000000  0.4355560000000  0.4661190000000 1.0
C      1  0.4250740000000  0.4870660000000  0.5472120000000 1.0
C      1  0.4638210000000  0.5163520000000  0.5717370000000 1.0
C      1  0.5456710000000  0.4213170000000  0.5553190000000 1.0
C      1  0.5391230000000  0.5557120000000  0.4429000000000 1.0
C      1  0.5006360000000  0.4966300000000  0.5459360000000 1.0
C      1  0.4516080000000  0.4941290000000  0.4820420000000 1.0
C      1  0.5053800000000  0.6003720000000  0.4929560000000 1.0
C      1  0.5405310000000  0.5700770000000  0.4939270000000 1.0
C      1  0.5414190000000  0.4681730000000  0.5224210000000 1.0
C      1  0.5874080000000  0.5265690000000  0.5185200000000 1.0
C      1  0.5267060000000  0.4860550000000  0.5395950000000 1.0
C      1  0.4882570000000  0.4640180000000  0.5019170000000 1.0
C      1  0.4080230000000  0.5186200000000  0.4723040000000 1.0
C      1  0.5721550000000  0.5088660000000  0.4389430000000 1.0
C      1  0.5652830000000  0.4246510000000  0.5336300000000 1.0
C      1  0.5364380000000  0.4739340000000  0.4908710000000 1.0
C      1  0.5469770000000  0.4887560000000  0.5987500000000 1.0
C      1  0.4743910000000  0.4859220000000  0.5426970000000 1.0
C      1  0.5453680000000  0.5228730000000  0.4340060000000 1.0
C      1  0.5011970000000  0.4113100000000  0.5666410000000 1.0
C      1  0.4706570000000  0.4173970000000  0.4524570000000 1.0
C      1  0.4946910000000  0.4796940000000  0.4612240000000 1.0
C      1  0.5179220000000  0.5721160000000  0.4545850000000 1.0
C      1  0.4676310000000  0.4589020000000  0.5542800000000 1.0
C      1  0.5294550000000  0.4266730000000  0.4758210000000 1.0
C      1  0.5341720000000  0.5431120000000  0.4966020000000 1.0
C      1  0.4258900000000  0.5574440000000  0.5484160000000 1.0
C      1  0.5222540000000  0.5267430000000  0.5162090000000 1.0
C      1  0.4599230000000  0.4993920000000  0.5222940000000 1.0
C      1  0.5075540000000  0.4373820000000  0.5789280000000 1.0
C      1  0.4608860000000  0.4652210000000  0.4256080000000 1.0
C      1  0.5828620000000  0.4712540000000  0.4668430000000 1.0
C      1  0.4885280000000  0.5755430000000  0.4558150000000 1.0
C      1  0.5197350000000  0.4856820000000  0.5988950000000 1.0
C      1  0.5785130000000  0.5715910000000  0.5184530000000 1.0
C      1  0.4142160000000  0.5051510000000  0.4476280000000 1.0
C      1  0.4450020000000  0.5123340000000  0.4097200000000 1.0
C      1  0.4949180000000  0.5548210000000  0.5803140000000 1.0
C      1  0.5655260000000  0.5690430000000  0.5445400000000 1.0
C      1  0.5550980000000  0.5877040000000  0.5092260000000 1.0
C      1  0.5100650000000  0.5592320000000  0.5487410000000 1.0
C      1  0.4863660000000  0.4569400000000  0.5799750000000 1.0
C      1  0.5258460000000  0.4499310000000  0.4274430000000 1.0
C      1  0.5075830000000  0.4725800000000  0.4840880000000 1.0
C      1  0.5542440000000  0.4642950000000  0.5826780000000 1.0
C      1  0.5953690000000  0.4951960000000  0.4776180000000 1.0
C      1  0.5004870000000  0.4409570000000  0.4133530000000 1.0
C      1  0.4803740000000  0.5278020000000  0.4944730000000 1.0
C      1  0.4787330000000  0.5154520000000  0.4440890000000 1.0
C      1  0.5450290000000  0.4980070000000  0.4785400000000 1.0
C      1  0.4476780000000  0.4284890000000  0.4950590000000 1.0
C      1  0.4613240000000  0.5016800000000  0.3904670000000 1.0
C      1  0.5278090000000  0.5873890000000  0.4785640000000 1.0
C      1  0.4277390000000  0.4782510000000  0.4765730000000 1.0
C      1  0.4698020000000  0.5896580000000  0.5234250000000 1.0
C      1  0.4771580000000  0.4351980000000  0.5366410000000 1.0
C      1  0.4774740000000  0.5598650000000  0.4163060000000 1.0
C      1  0.5594770000000  0.5433720000000  0.5582860000000 1.0
C      1  0.5688330000000  0.4720880000000  0.5373570000000 1.0
C      1  0.4011450000000  0.4757140000000  0.4929920000000 1.0
C      1  0.5618180000000  0.5078980000000  0.5778040000000 1.0
C      1  0.5653690000000  0.5590610000000  0.4545440000000 1.0
C      1  0.5896260000000  0.4861360000000  0.5271970000000 1.0
C      1  0.5320910000000  0.5406430000000  0.5596240000000 1.0
C      1  0.5857610000000  0.5454230000000  0.4719510000000 1.0
C      1  0.4667370000000  0.5177570000000  0.4721690000000 1.0
C      1  0.4293510000000  0.5470460000000  0.5213340000000 1.0
C      1  0.4891700000000  0.5145990000000  0.3953450000000 1.0
C      1  0.4951670000000  0.4220930000000  0.4354810000000 1.0
C      1  0.4194360000000  0.4757100000000  0.4488560000000 1.0
C      1  0.4660300000000  0.5622900000000  0.5280030000000 1.0
C      1  0.4729000000000  0.4024350000000  0.4751200000000 1.0
C      1  0.4560360000000  0.5444090000000  0.5749850000000 1.0
C      1  0.4826490000000  0.4863440000000  0.4398690000000 1.0
C      1  0.5320770000000  0.5132000000000  0.4586530000000 1.0
C      1  0.5638070000000  0.5247340000000  0.5379100000000 1.0
C      1  0.4300860000000  0.5240190000000  0.4303650000000 1.0
C      1  0.4363950000000  0.5182390000000  0.5200230000000 1.0
C      1  0.4755600000000  0.4510150000000  0.4020800000000 1.0
C      1  0.4633830000000  0.5643300000000  0.4418900000000 1.0
C      1  0.4640030000000  0.4043490000000  0.5008290000000 1.0
C      1  0.4119190000000  0.5030640000000  0.5241270000000 1.0
C      1  0.5716500000000  0.4813650000000  0.5655590000000 1.0
C      1  0.4778490000000  0.4087270000000  0.5489290000000 1.0
C      1  0.5170440000000  0.5873390000000  0.5405580000000 1.0
C      1  0.5204300000000  0.4290090000000  0.4484220000000 1.0
C      1  0.4381190000000  0.5786630000000  0.4894380000000 1.0
C      1  0.5371190000000  0.4990500000000  0.4144830000000 1.0
C      1  0.4827390000000  0.5950710000000  0.4763400000000 1.0
C      1  0.5458230000000  0.4388040000000  0.5186970000000 1.0
C      1  0.5370630000000  0.4418570000000  0.5740390000000 1.0
C      1  0.4945680000000  0.5239360000000  0.5186190000000 1.0
C      1  0.5179360000000  0.4233180000000  0.5045900000000 1.0
C      1  0.4387980000000  0.5477110000000  0.4471030000000 1.0
C      1  0.5998040000000  0.5019850000000  0.5067530000000 1.0
C      1  0.4370660000000  0.5085390000000  0.5652540000000 1.0
C      1  0.5129260000000  0.5038090000000  0.4021520000000 1.0
C      1  0.4134360000000  0.4582750000000  0.5109160000000 1.0
C      1  0.4328240000000  0.4424800000000  0.5196740000000 1.0
C      1  0.4874460000000  0.5308330000000  0.4207360000000 1.0
C      1  0.4575810000000  0.4727830000000  0.3960840000000 1.0
C      1  0.4919150000000  0.5072750000000  0.5738440000000 1.0
C      1  0.4941590000000  0.4406130000000  0.5142370000000 1.0
C      1  0.5894740000000  0.5183060000000  0.4609080000000 1.0
C      1  0.4277620000000  0.5371510000000  0.5694240000000 1.0
C      1  0.5120380000000  0.5319550000000  0.5803270000000 1.0
C      1  0.5686300000000  0.4800690000000  0.4415750000000 1.0
C      1  0.4832780000000  0.3952480000000  0.5236460000000 1.0
C      1  0.5457880000000  0.5895940000000  0.5379450000000 1.0
C      1  0.4931530000000  0.4816960000000  0.5932020000000 1.0
C      1  0.4591580000000  0.5948950000000  0.4953840000000 1.0
C      1  0.4900560000000  0.5487020000000  0.5272220000000 1.0
C      1  0.4979880000000  0.5976560000000  0.5212240000000 1.0
C      1  0.5447920000000  0.5248720000000  0.4794370000000 1.0
C      1  0.5881620000000  0.5497230000000  0.5013680000000 1.0
C      1  0.5119980000000  0.3992830000000  0.5216060000000 1.0
C      1  0.5229460000000  0.4037940000000  0.5486840000000 1.0
C      1  0.4368460000000  0.4604940000000  0.5439420000000 1.0
C      1  0.4533720000000  0.5664280000000  0.5537600000000 1.0
C      1  0.5479170000000  0.4487020000000  0.4747020000000 1.0
C      1  0.5445520000000  0.4723650000000  0.4260980000000 1.0
END
