TITL C-4164243-3780-132 16.0497955218815 125000 -23212.322547235 0 0 154 (C1) n - 1
REM
REM in /home/nfs/bkarasulu/CARBON/AIRSS/Generating-Clusters/ReaxFF-fromJPCA2015/Units_Real/with-SteepDescent/Only-C1/SD-CG/Try1-3A/FIRE-CG
REM
REM
REM
REM
REM
REM ./C.cell (11c1c37f851c82e70ff6c80c92926a4b)
REM
REM compiler GCC version 9.2.1 20190827 (Red Hat 9.2.1-1)
REM options -cpp -mtune=generic -march=x86-64 -g -O0 -fpre-include=/usr/include/finclude/math-vector-fortran.h
REM seed 1624152115 -793083544 1220261756 337398948 1590323141 401506421 -498049350 1605542512 -192558900 -385886584 -1172472226 -1072094249 1158803759 -2014073189 -1928829902 1171462652 873873854 1663413882 594171451 770142168 -1360826397 -146288312 1858664609 -1032519879 -1679009852 -1272709531 -126061657 -2146998408 -1418905192 1586236410 -830181062 -802293128 -1275644432
REM
CELL 1.54180   50.00000   50.00000   50.00000   90.00000   90.00000   90.00000
LATT -1
SFAC C  
C      1  0.4880650000000  0.4525080000000  0.5978940000000 1.0
C      1  0.4225880000000  0.4601330000000  0.4650840000000 1.0
C      1  0.4019670000000  0.5029010000000  0.4607090000000 1.0
C      1  0.4677640000000  0.5888420000000  0.5367220000000 1.0
C      1  0.4139810000000  0.5115770000000  0.4352930000000 1.0
C      1  0.5578060000000  0.5382960000000  0.4795440000000 1.0
C      1  0.4922290000000  0.5919300000000  0.4741460000000 1.0
C      1  0.4111740000000  0.5172910000000  0.5920580000000 1.0
C      1  0.5947280000000  0.5577420000000  0.5314100000000 1.0
C      1  0.4794800000000  0.4811730000000  0.4454180000000 1.0
C      1  0.4217780000000  0.5390350000000  0.4424450000000 1.0
C      1  0.4448360000000  0.4195540000000  0.5186740000000 1.0
C      1  0.5434750000000  0.5322930000000  0.4121750000000 1.0
C      1  0.3926970000000  0.5333770000000  0.5260810000000 1.0
C      1  0.4943640000000  0.4101000000000  0.5395740000000 1.0
C      1  0.5629550000000  0.5155240000000  0.5614010000000 1.0
C      1  0.5181990000000  0.5249280000000  0.3987060000000 1.0
C      1  0.4922880000000  0.4066490000000  0.4619000000000 1.0
C      1  0.4644770000000  0.5878740000000  0.4844970000000 1.0
C      1  0.4987590000000  0.4357500000000  0.4505660000000 1.0
C      1  0.5084740000000  0.4935070000000  0.6029730000000 1.0
C      1  0.5082590000000  0.4538280000000  0.5214920000000 1.0
C      1  0.5330270000000  0.4730220000000  0.5229950000000 1.0
C      1  0.5206680000000  0.5070250000000  0.4465550000000 1.0
C      1  0.5419380000000  0.5030430000000  0.4238320000000 1.0
C      1  0.4721260000000  0.5274200000000  0.5182910000000 1.0
C      1  0.4944330000000  0.4809300000000  0.5499280000000 1.0
C      1  0.4117010000000  0.4659110000000  0.5261560000000 1.0
C      1  0.5232460000000  0.5652870000000  0.4929950000000 1.0
C      1  0.5019860000000  0.5237320000000  0.5573980000000 1.0
C      1  0.4702080000000  0.5436220000000  0.4192920000000 1.0
C      1  0.5144980000000  0.4644080000000  0.5978690000000 1.0
C      1  0.4549670000000  0.5802720000000  0.4576890000000 1.0
C      1  0.4379530000000  0.4265340000000  0.4312010000000 1.0
C      1  0.4774050000000  0.5543000000000  0.5803750000000 1.0
C      1  0.5506740000000  0.5825980000000  0.4574660000000 1.0
C      1  0.5128720000000  0.6064180000000  0.4893430000000 1.0
C      1  0.4309110000000  0.5414430000000  0.4704520000000 1.0
C      1  0.4221740000000  0.5372420000000  0.5718170000000 1.0
C      1  0.5242320000000  0.4936530000000  0.4698290000000 1.0
C      1  0.5092360000000  0.5627030000000  0.5395570000000 1.0
C      1  0.5178180000000  0.3921900000000  0.4604030000000 1.0
C      1  0.5269550000000  0.4208280000000  0.5741200000000 1.0
C      1  0.5771360000000  0.4321480000000  0.5219630000000 1.0
C      1  0.5220570000000  0.5371580000000  0.5441090000000 1.0
C      1  0.5531990000000  0.4673820000000  0.4969000000000 1.0
C      1  0.4654240000000  0.4925030000000  0.4708180000000 1.0
C      1  0.6079590000000  0.5076830000000  0.4755190000000 1.0
C      1  0.4636320000000  0.4464010000000  0.4888840000000 1.0
C      1  0.5262750000000  0.4966430000000  0.3979380000000 1.0
C      1  0.4646000000000  0.4005980000000  0.4704450000000 1.0
C      1  0.4985340000000  0.5375430000000  0.4171390000000 1.0
C      1  0.5365550000000  0.4190180000000  0.5019830000000 1.0
C      1  0.4863290000000  0.4557100000000  0.5407410000000 1.0
C      1  0.5584770000000  0.5448180000000  0.5592310000000 1.0
C      1  0.4809170000000  0.4994970000000  0.5970870000000 1.0
C      1  0.5662380000000  0.4193510000000  0.4974200000000 1.0
C      1  0.4354580000000  0.4989560000000  0.4199170000000 1.0
C      1  0.4076700000000  0.5586910000000  0.5264350000000 1.0
C      1  0.5146420000000  0.4701130000000  0.4003870000000 1.0
C      1  0.4743480000000  0.5261160000000  0.5489740000000 1.0
C      1  0.4531950000000  0.4187030000000  0.4905790000000 1.0
C      1  0.5365190000000  0.5408700000000  0.4978130000000 1.0
C      1  0.5548090000000  0.4761750000000  0.5467590000000 1.0
C      1  0.5485920000000  0.5482260000000  0.4355260000000 1.0
C      1  0.5437300000000  0.4933470000000  0.5656510000000 1.0
C      1  0.4023560000000  0.5449680000000  0.5517810000000 1.0
C      1  0.5992660000000  0.5516120000000  0.5055510000000 1.0
C      1  0.5782000000000  0.4999330000000  0.5434590000000 1.0
C      1  0.6027280000000  0.5223520000000  0.5007930000000 1.0
C      1  0.5316410000000  0.5803730000000  0.5509330000000 1.0
C      1  0.4249210000000  0.4751410000000  0.5645640000000 1.0
C      1  0.5198100000000  0.4279420000000  0.4287180000000 1.0
C      1  0.5796440000000  0.5725640000000  0.4952780000000 1.0
C      1  0.4982780000000  0.5240500000000  0.4442680000000 1.0
C      1  0.5506470000000  0.4892400000000  0.4767370000000 1.0
C      1  0.4271730000000  0.5789070000000  0.4514090000000 1.0
C      1  0.5316000000000  0.4497890000000  0.4142200000000 1.0
C      1  0.5645890000000  0.5136530000000  0.4701710000000 1.0
C      1  0.5745280000000  0.5203450000000  0.4444680000000 1.0
C      1  0.4002690000000  0.4828900000000  0.5045140000000 1.0
C      1  0.5320650000000  0.5441070000000  0.5923920000000 1.0
C      1  0.4682860000000  0.4731770000000  0.5928410000000 1.0
C      1  0.4174180000000  0.4881150000000  0.5409020000000 1.0
C      1  0.4730620000000  0.5203990000000  0.4603840000000 1.0
C      1  0.4056040000000  0.5665970000000  0.4375150000000 1.0
C      1  0.5213170000000  0.4110360000000  0.5267190000000 1.0
C      1  0.5797140000000  0.4588410000000  0.5105440000000 1.0
C      1  0.5153170000000  0.6094650000000  0.5185780000000 1.0
C      1  0.4240590000000  0.4523080000000  0.4363610000000 1.0
C      1  0.4827080000000  0.5709660000000  0.5569390000000 1.0
C      1  0.5423080000000  0.5645230000000  0.5734240000000 1.0
C      1  0.4850780000000  0.4719880000000  0.4007200000000 1.0
C      1  0.5337650000000  0.4478790000000  0.5831810000000 1.0
C      1  0.4580930000000  0.4332320000000  0.5658080000000 1.0
C      1  0.5136590000000  0.4976660000000  0.5607460000000 1.0
C      1  0.4085370000000  0.5234340000000  0.4804170000000 1.0
C      1  0.4752160000000  0.5654900000000  0.4399460000000 1.0
C      1  0.5602620000000  0.5908070000000  0.5075680000000 1.0
C      1  0.4506850000000  0.5229860000000  0.5683890000000 1.0
C      1  0.4537090000000  0.5807120000000  0.5112920000000 1.0
C      1  0.4791220000000  0.4944750000000  0.4191890000000 1.0
C      1  0.4441710000000  0.5305460000000  0.5190310000000 1.0
C      1  0.4481900000000  0.4668790000000  0.4773720000000 1.0
C      1  0.4348390000000  0.4462130000000  0.5270530000000 1.0
C      1  0.4997140000000  0.5626840000000  0.5087720000000 1.0
C      1  0.5223130000000  0.4966630000000  0.5145970000000 1.0
C      1  0.4636550000000  0.4887380000000  0.5242460000000 1.0
C      1  0.5248470000000  0.5182130000000  0.6036880000000 1.0
C      1  0.5713820000000  0.4968210000000  0.4301650000000 1.0
C      1  0.4590490000000  0.4611220000000  0.5300840000000 1.0
C      1  0.4491900000000  0.4603630000000  0.5738710000000 1.0
C      1  0.4383950000000  0.5039300000000  0.5275290000000 1.0
C      1  0.4590800000000  0.5159080000000  0.4157400000000 1.0
C      1  0.4605990000000  0.5410630000000  0.4763070000000 1.0
C      1  0.4911140000000  0.6018140000000  0.5302440000000 1.0
C      1  0.4799340000000  0.4277760000000  0.5835750000000 1.0
C      1  0.4769710000000  0.5483430000000  0.5001340000000 1.0
C      1  0.5300210000000  0.5228060000000  0.5203570000000 1.0
C      1  0.5069480000000  0.4906560000000  0.4923580000000 1.0
C      1  0.6026060000000  0.4764190000000  0.5089450000000 1.0
C      1  0.5402110000000  0.4132400000000  0.5492130000000 1.0
C      1  0.5633150000000  0.4308390000000  0.5478000000000 1.0
C      1  0.5576780000000  0.4483850000000  0.4287140000000 1.0
C      1  0.4996690000000  0.4124670000000  0.5682190000000 1.0
C      1  0.4696820000000  0.5270220000000  0.5909380000000 1.0
C      1  0.4653230000000  0.4193850000000  0.5396750000000 1.0
C      1  0.4765500000000  0.4529780000000  0.4392520000000 1.0
C      1  0.5607680000000  0.4255220000000  0.4475870000000 1.0
C      1  0.5871960000000  0.5600630000000  0.5582050000000 1.0
C      1  0.4350110000000  0.5579490000000  0.5165290000000 1.0
C      1  0.4790100000000  0.4982120000000  0.4997430000000 1.0
C      1  0.4928970000000  0.4493660000000  0.4974260000000 1.0
C      1  0.6034160000000  0.4782370000000  0.4800460000000 1.0
C      1  0.4639950000000  0.4545700000000  0.4124950000000 1.0
C      1  0.5872810000000  0.4589370000000  0.4641990000000 1.0
C      1  0.5557960000000  0.4537110000000  0.5647390000000 1.0
C      1  0.3991050000000  0.5128900000000  0.5061390000000 1.0
C      1  0.5296930000000  0.5689790000000  0.4432410000000 1.0
C      1  0.5396310000000  0.5930080000000  0.4847770000000 1.0
C      1  0.5753880000000  0.4324230000000  0.4716330000000 1.0
C      1  0.4997150000000  0.5751940000000  0.4505940000000 1.0
C      1  0.4315160000000  0.4979420000000  0.5820520000000 1.0
C      1  0.4015990000000  0.4775580000000  0.4756890000000 1.0
C      1  0.5988900000000  0.5164800000000  0.4504730000000 1.0
C      1  0.5696570000000  0.5633360000000  0.4687790000000 1.0
C      1  0.5753230000000  0.4689030000000  0.4394030000000 1.0
C      1  0.5100510000000  0.4542700000000  0.4749430000000 1.0
C      1  0.4381280000000  0.4692680000000  0.4176000000000 1.0
C      1  0.5417980000000  0.5965780000000  0.5293440000000 1.0
C      1  0.5976580000000  0.5029340000000  0.5220590000000 1.0
C      1  0.5343750000000  0.4438790000000  0.4866860000000 1.0
C      1  0.4487140000000  0.4025870000000  0.4456440000000 1.0
C      1  0.5366450000000  0.4089240000000  0.4428380000000 1.0
END
