TITL C-4164240-4114-294 8.69351236245247 125000 -23888.9698029568 0 0 160 (C1) n - 1
REM
REM in /home/nfs/bkarasulu/CARBON/AIRSS/Generating-Clusters/ReaxFF-fromJPCA2015/Units_Real/with-SteepDescent/Only-C1/SD-CG/Try1-3A/FIRE-CG
REM
REM
REM
REM
REM
REM ./C.cell (11c1c37f851c82e70ff6c80c92926a4b)
REM
REM compiler GCC version 9.2.1 20190827 (Red Hat 9.2.1-1)
REM options -cpp -mtune=generic -march=x86-64 -g -O0 -fpre-include=/usr/include/finclude/math-vector-fortran.h
REM seed 1149764134 1764946632 1597165674 -1933471727 -373812707 146991444 1928156983 435079708 190057458 570190474 -1351942248 -1431622240 561305103 177461005 -263940115 -880291676 1593566280 422917554 134258189 -1479990759 471568460 97983360 1118396652 -922464363 249247333 -731153140 510977184 963314968 -2108887545 -162126101 -1320740902 -55940622 1662560094
REM
CELL 1.54180   50.00000   50.00000   50.00000   90.00000   90.00000   90.00000
LATT -1
SFAC C  
C      1  0.5955020000000  0.4824560000000  0.4817220000000 1.0
C      1  0.4894980000000  0.4360970000000  0.4797060000000 1.0
C      1  0.5195540000000  0.5417160000000  0.5929200000000 1.0
C      1  0.4834090000000  0.4749020000000  0.5053450000000 1.0
C      1  0.5067200000000  0.4393600000000  0.5017260000000 1.0
C      1  0.4724780000000  0.5185370000000  0.5232830000000 1.0
C      1  0.4669430000000  0.4975110000000  0.5864700000000 1.0
C      1  0.5869460000000  0.4963660000000  0.4573860000000 1.0
C      1  0.4437670000000  0.4189450000000  0.4547900000000 1.0
C      1  0.4837450000000  0.5988870000000  0.4694060000000 1.0
C      1  0.4614100000000  0.4504400000000  0.5668430000000 1.0
C      1  0.4923510000000  0.4154520000000  0.4334150000000 1.0
C      1  0.4730570000000  0.5875980000000  0.4447960000000 1.0
C      1  0.4409970000000  0.5375660000000  0.5072210000000 1.0
C      1  0.5634640000000  0.5207070000000  0.5888810000000 1.0
C      1  0.4882240000000  0.5232550000000  0.5463830000000 1.0
C      1  0.5060860000000  0.4164150000000  0.5614870000000 1.0
C      1  0.5238890000000  0.6014950000000  0.5147390000000 1.0
C      1  0.5542100000000  0.4716190000000  0.5270070000000 1.0
C      1  0.6080770000000  0.5242670000000  0.5055780000000 1.0
C      1  0.5582740000000  0.4970100000000  0.5426660000000 1.0
C      1  0.4317150000000  0.5741880000000  0.4741320000000 1.0
C      1  0.4267120000000  0.5175470000000  0.5169310000000 1.0
C      1  0.4778310000000  0.4721250000000  0.4051330000000 1.0
C      1  0.5493100000000  0.4230520000000  0.5128940000000 1.0
C      1  0.5906110000000  0.4659170000000  0.5519070000000 1.0
C      1  0.4581710000000  0.4605950000000  0.4288940000000 1.0
C      1  0.4158930000000  0.4772160000000  0.5383180000000 1.0
C      1  0.4282120000000  0.5676950000000  0.5493850000000 1.0
C      1  0.4643660000000  0.4146300000000  0.4357470000000 1.0
C      1  0.5743260000000  0.5098880000000  0.5634140000000 1.0
C      1  0.4131880000000  0.5446490000000  0.5602270000000 1.0
C      1  0.5002290000000  0.5495460000000  0.5458320000000 1.0
C      1  0.4776890000000  0.4670860000000  0.4470520000000 1.0
C      1  0.5098250000000  0.5858410000000  0.5629040000000 1.0
C      1  0.5664140000000  0.4098060000000  0.4709120000000 1.0
C      1  0.4648170000000  0.5372110000000  0.4634460000000 1.0
C      1  0.5624660000000  0.4973390000000  0.5143310000000 1.0
C      1  0.3959180000000  0.5076520000000  0.4501220000000 1.0
C      1  0.4769000000000  0.5688190000000  0.5341930000000 1.0
C      1  0.5863710000000  0.4549290000000  0.4852490000000 1.0
C      1  0.5102820000000  0.5873470000000  0.4722220000000 1.0
C      1  0.5029960000000  0.4037010000000  0.5351720000000 1.0
C      1  0.4564930000000  0.4894270000000  0.4760850000000 1.0
C      1  0.5635990000000  0.4259840000000  0.5392600000000 1.0
C      1  0.4714080000000  0.5135880000000  0.4778620000000 1.0
C      1  0.4400030000000  0.4436930000000  0.4942600000000 1.0
C      1  0.3890840000000  0.5313870000000  0.5462920000000 1.0
C      1  0.4683510000000  0.4603970000000  0.4793580000000 1.0
C      1  0.4125110000000  0.5347390000000  0.4996040000000 1.0
C      1  0.5465810000000  0.4878070000000  0.4202370000000 1.0
C      1  0.4803980000000  0.4989790000000  0.4000670000000 1.0
C      1  0.6077820000000  0.5360900000000  0.4780550000000 1.0
C      1  0.4388930000000  0.5199690000000  0.4207030000000 1.0
C      1  0.4162520000000  0.4624020000000  0.4583480000000 1.0
C      1  0.5886750000000  0.4418130000000  0.5354420000000 1.0
C      1  0.5176790000000  0.5141590000000  0.5994240000000 1.0
C      1  0.5548860000000  0.3997760000000  0.4964180000000 1.0
C      1  0.5403610000000  0.4113950000000  0.4579570000000 1.0
C      1  0.5930730000000  0.5249800000000  0.4549250000000 1.0
C      1  0.5186830000000  0.4668370000000  0.5857260000000 1.0
C      1  0.4813150000000  0.3909960000000  0.5186470000000 1.0
C      1  0.5245430000000  0.4906040000000  0.4544980000000 1.0
C      1  0.4554690000000  0.4023350000000  0.5091950000000 1.0
C      1  0.4356980000000  0.4915510000000  0.5222940000000 1.0
C      1  0.4321130000000  0.5797430000000  0.5236640000000 1.0
C      1  0.5456740000000  0.4741460000000  0.5880160000000 1.0
C      1  0.5712780000000  0.4844610000000  0.4352160000000 1.0
C      1  0.5518560000000  0.5878460000000  0.4655000000000 1.0
C      1  0.4740050000000  0.5669790000000  0.5039140000000 1.0
C      1  0.4532090000000  0.4215160000000  0.5617650000000 1.0
C      1  0.4644510000000  0.4907990000000  0.5222920000000 1.0
C      1  0.5357070000000  0.4400710000000  0.4650940000000 1.0
C      1  0.6045740000000  0.4950100000000  0.5072090000000 1.0
C      1  0.5084160000000  0.4885940000000  0.4989590000000 1.0
C      1  0.4998910000000  0.5593160000000  0.5778380000000 1.0
C      1  0.5219070000000  0.4446880000000  0.5655420000000 1.0
C      1  0.5199830000000  0.5715760000000  0.4232130000000 1.0
C      1  0.5328900000000  0.5476890000000  0.4091530000000 1.0
C      1  0.4449360000000  0.5781920000000  0.4457530000000 1.0
C      1  0.5739610000000  0.5561490000000  0.5282360000000 1.0
C      1  0.4697410000000  0.5504250000000  0.5782600000000 1.0
C      1  0.5129950000000  0.5570150000000  0.4737770000000 1.0
C      1  0.4237470000000  0.5027870000000  0.4366010000000 1.0
C      1  0.5271240000000  0.5589420000000  0.5372790000000 1.0
C      1  0.5317370000000  0.4823990000000  0.4818530000000 1.0
C      1  0.6014440000000  0.4893830000000  0.5362620000000 1.0
C      1  0.5260940000000  0.5184980000000  0.4462350000000 1.0
C      1  0.4989310000000  0.5177760000000  0.4371600000000 1.0
C      1  0.4984840000000  0.5005480000000  0.5606550000000 1.0
C      1  0.5588750000000  0.5342430000000  0.4184900000000 1.0
C      1  0.4366660000000  0.4438560000000  0.4401340000000 1.0
C      1  0.4445910000000  0.4422640000000  0.5245190000000 1.0
C      1  0.3918110000000  0.4815090000000  0.5215700000000 1.0
C      1  0.3989970000000  0.5332990000000  0.4609830000000 1.0
C      1  0.5564310000000  0.4505370000000  0.4463680000000 1.0
C      1  0.5481360000000  0.5045490000000  0.4914600000000 1.0
C      1  0.4971820000000  0.4886510000000  0.4437730000000 1.0
C      1  0.4441460000000  0.4153830000000  0.5338970000000 1.0
C      1  0.4478910000000  0.5602740000000  0.4243780000000 1.0
C      1  0.5650880000000  0.5061690000000  0.4151340000000 1.0
C      1  0.5685510000000  0.4609360000000  0.5713400000000 1.0
C      1  0.5528430000000  0.4387370000000  0.5634380000000 1.0
C      1  0.3868620000000  0.5062530000000  0.5329830000000 1.0
C      1  0.4564610000000  0.5248850000000  0.5842900000000 1.0
C      1  0.5350900000000  0.4427860000000  0.4948390000000 1.0
C      1  0.5334170000000  0.4671440000000  0.4067430000000 1.0
C      1  0.5591950000000  0.5587470000000  0.4607740000000 1.0
C      1  0.4947520000000  0.4127040000000  0.4636200000000 1.0
C      1  0.4396560000000  0.5898600000000  0.4992400000000 1.0
C      1  0.4266700000000  0.5276170000000  0.5792140000000 1.0
C      1  0.5327740000000  0.5874390000000  0.5430230000000 1.0
C      1  0.4542370000000  0.5530110000000  0.4864580000000 1.0
C      1  0.4960550000000  0.6056360000000  0.5177650000000 1.0
C      1  0.3959150000000  0.4742000000000  0.4923690000000 1.0
C      1  0.4357390000000  0.4866940000000  0.4579930000000 1.0
C      1  0.5477780000000  0.5460160000000  0.5239470000000 1.0
C      1  0.5443860000000  0.5020320000000  0.5994640000000 1.0
C      1  0.5764820000000  0.4554970000000  0.5129650000000 1.0
C      1  0.4903020000000  0.5955810000000  0.5441620000000 1.0
C      1  0.5388200000000  0.5891860000000  0.4389170000000 1.0
C      1  0.4084940000000  0.5535140000000  0.4770440000000 1.0
C      1  0.5345780000000  0.5431080000000  0.4598720000000 1.0
C      1  0.4828070000000  0.5288120000000  0.4997770000000 1.0
C      1  0.5329430000000  0.5257950000000  0.5060630000000 1.0
C      1  0.5045540000000  0.4588290000000  0.4050370000000 1.0
C      1  0.5186390000000  0.3951480000000  0.4681400000000 1.0
C      1  0.5090880000000  0.3826070000000  0.5151040000000 1.0
C      1  0.5087120000000  0.5368070000000  0.4010520000000 1.0
C      1  0.4966470000000  0.4547550000000  0.5244810000000 1.0
C      1  0.4458770000000  0.4160520000000  0.4852570000000 1.0
C      1  0.5636320000000  0.5760230000000  0.5481650000000 1.0
C      1  0.5179740000000  0.4904930000000  0.5437280000000 1.0
C      1  0.4831690000000  0.5418200000000  0.4422820000000 1.0
C      1  0.5394300000000  0.4433170000000  0.4221960000000 1.0
C      1  0.4828820000000  0.5260490000000  0.3955790000000 1.0
C      1  0.4990930000000  0.4918100000000  0.5885930000000 1.0
C      1  0.5493730000000  0.5470460000000  0.5912840000000 1.0
C      1  0.5991860000000  0.5162720000000  0.5483450000000 1.0
C      1  0.5745680000000  0.5442220000000  0.4403290000000 1.0
C      1  0.5084650000000  0.5395010000000  0.4955470000000 1.0
C      1  0.5111150000000  0.4341380000000  0.4188290000000 1.0
C      1  0.4545410000000  0.5379550000000  0.4074200000000 1.0
C      1  0.5975750000000  0.5386010000000  0.5294410000000 1.0
C      1  0.3925050000000  0.4825700000000  0.4650830000000 1.0
C      1  0.4729260000000  0.5962390000000  0.4971870000000 1.0
C      1  0.4134410000000  0.4531240000000  0.4848320000000 1.0
C      1  0.4793830000000  0.4135080000000  0.5683630000000 1.0
C      1  0.4664560000000  0.4556630000000  0.5383640000000 1.0
C      1  0.4219240000000  0.4797490000000  0.5678820000000 1.0
C      1  0.5216830000000  0.4620670000000  0.5392280000000 1.0
C      1  0.4563620000000  0.5643490000000  0.5568930000000 1.0
C      1  0.4498750000000  0.4754990000000  0.5783570000000 1.0
C      1  0.5287660000000  0.3856760000000  0.4935320000000 1.0
C      1  0.5575760000000  0.5629470000000  0.5703840000000 1.0
C      1  0.5771730000000  0.4363740000000  0.4638080000000 1.0
C      1  0.5175650000000  0.5044890000000  0.5199330000000 1.0
C      1  0.4920710000000  0.5679100000000  0.4329820000000 1.0
C      1  0.4106950000000  0.5023600000000  0.5836170000000 1.0
C      1  0.5327320000000  0.5982680000000  0.4874440000000 1.0
END
