TITL C-4164233-775-622 10.3184525925638 125000 -26976.5954409466 0 0 179 (C1) n - 1
REM
REM in /home/nfs/bkarasulu/CARBON/AIRSS/Generating-Clusters/ReaxFF-fromJPCA2015/Units_Real/with-SteepDescent/Only-C1/SD-CG/Try1-3A/FIRE-CG
REM
REM
REM
REM
REM
REM ./C.cell (11c1c37f851c82e70ff6c80c92926a4b)
REM
REM compiler GCC version 9.2.1 20190827 (Red Hat 9.2.1-1)
REM options -cpp -mtune=generic -march=x86-64 -g -O0 -fpre-include=/usr/include/finclude/math-vector-fortran.h
REM seed -49302051 -1883417676 490160007 -1652644424 -1004795088 1378342375 908938577 1237218020 151942682 1321118099 -908170862 -1963526036 -489030918 -1389733183 1895530089 1790801182 -1006281295 421740136 1138409008 2062043841 692917918 1506565958 1601537534 -364627942 -1196146267 -166047130 -827513566 101415723 -1307664507 -26119646 1997541638 -1921591001 -772358327
REM
CELL 1.54180   50.00000   50.00000   50.00000   90.00000   90.00000   90.00000
LATT -1
SFAC C  
C      1  0.5461950000000  0.4094250000000  0.4930820000000 1.0
C      1  0.5751190000000  0.5264770000000  0.4765670000000 1.0
C      1  0.5446720000000  0.4914600000000  0.5728020000000 1.0
C      1  0.5334350000000  0.5500060000000  0.4601000000000 1.0
C      1  0.4486210000000  0.4631650000000  0.4795000000000 1.0
C      1  0.5153030000000  0.5891400000000  0.5171410000000 1.0
C      1  0.5548360000000  0.5170990000000  0.4056150000000 1.0
C      1  0.4822600000000  0.5388830000000  0.4589020000000 1.0
C      1  0.5733230000000  0.5482470000000  0.4373670000000 1.0
C      1  0.5919080000000  0.4723710000000  0.4590720000000 1.0
C      1  0.5945440000000  0.5549720000000  0.5316620000000 1.0
C      1  0.5119920000000  0.6067440000000  0.4673230000000 1.0
C      1  0.5767690000000  0.5766560000000  0.4870050000000 1.0
C      1  0.5534020000000  0.4119020000000  0.5473230000000 1.0
C      1  0.4837720000000  0.5240560000000  0.5121010000000 1.0
C      1  0.4322470000000  0.5176290000000  0.3950280000000 1.0
C      1  0.4648240000000  0.4374000000000  0.5515440000000 1.0
C      1  0.4481090000000  0.5719400000000  0.4418760000000 1.0
C      1  0.5257550000000  0.4286230000000  0.5826790000000 1.0
C      1  0.5299090000000  0.5053920000000  0.3949930000000 1.0
C      1  0.5589640000000  0.4279070000000  0.4467990000000 1.0
C      1  0.4345280000000  0.5270400000000  0.5488340000000 1.0
C      1  0.5634770000000  0.4937410000000  0.4218470000000 1.0
C      1  0.4713610000000  0.4948140000000  0.5749610000000 1.0
C      1  0.4681020000000  0.4960930000000  0.4408770000000 1.0
C      1  0.4510400000000  0.4124570000000  0.4557730000000 1.0
C      1  0.5146710000000  0.4541210000000  0.5920310000000 1.0
C      1  0.4980330000000  0.4361560000000  0.4481890000000 1.0
C      1  0.5392580000000  0.3854140000000  0.5092420000000 1.0
C      1  0.6138500000000  0.5113500000000  0.4858150000000 1.0
C      1  0.4482560000000  0.5794290000000  0.5604170000000 1.0
C      1  0.5152960000000  0.4173100000000  0.4324690000000 1.0
C      1  0.4369480000000  0.5915250000000  0.5078810000000 1.0
C      1  0.5199870000000  0.5297060000000  0.4441430000000 1.0
C      1  0.4038190000000  0.4648510000000  0.4946330000000 1.0
C      1  0.6016470000000  0.4831060000000  0.4875400000000 1.0
C      1  0.5080680000000  0.5592800000000  0.5233840000000 1.0
C      1  0.5840480000000  0.4441420000000  0.4567650000000 1.0
C      1  0.5545480000000  0.5921020000000  0.4982120000000 1.0
C      1  0.4640480000000  0.4100040000000  0.5418660000000 1.0
C      1  0.4703800000000  0.4053690000000  0.4740490000000 1.0
C      1  0.5042250000000  0.5894870000000  0.5647120000000 1.0
C      1  0.5088030000000  0.5769150000000  0.4289860000000 1.0
C      1  0.4844830000000  0.5572840000000  0.5394200000000 1.0
C      1  0.4117580000000  0.4783600000000  0.4233240000000 1.0
C      1  0.6011810000000  0.5262330000000  0.5267670000000 1.0
C      1  0.4912950000000  0.5146550000000  0.5808680000000 1.0
C      1  0.4404270000000  0.5053800000000  0.5025950000000 1.0
C      1  0.5237290000000  0.4541810000000  0.5433770000000 1.0
C      1  0.4893340000000  0.4881790000000  0.4168720000000 1.0
C      1  0.5835170000000  0.5226020000000  0.4488850000000 1.0
C      1  0.5396880000000  0.4844830000000  0.4363070000000 1.0
C      1  0.5709860000000  0.5196290000000  0.5966640000000 1.0
C      1  0.5333550000000  0.3956840000000  0.5362360000000 1.0
C      1  0.4944720000000  0.5583730000000  0.5918570000000 1.0
C      1  0.5180770000000  0.4887080000000  0.4172380000000 1.0
C      1  0.5352780000000  0.5327800000000  0.6092230000000 1.0
C      1  0.4683550000000  0.4550090000000  0.5007540000000 1.0
C      1  0.4871430000000  0.5250270000000  0.3967670000000 1.0
C      1  0.4082880000000  0.5604860000000  0.4715050000000 1.0
C      1  0.5072180000000  0.4718210000000  0.4801110000000 1.0
C      1  0.4604350000000  0.4694140000000  0.4534300000000 1.0
C      1  0.4136260000000  0.4378640000000  0.4852000000000 1.0
C      1  0.5729960000000  0.5197800000000  0.5289970000000 1.0
C      1  0.5107080000000  0.4923450000000  0.5244210000000 1.0
C      1  0.4174130000000  0.4882520000000  0.5745400000000 1.0
C      1  0.4789010000000  0.5115420000000  0.4636630000000 1.0
C      1  0.5418750000000  0.4280130000000  0.4242030000000 1.0
C      1  0.5947800000000  0.4942720000000  0.5607950000000 1.0
C      1  0.5420700000000  0.4443370000000  0.3977280000000 1.0
C      1  0.4156470000000  0.5266000000000  0.4959450000000 1.0
C      1  0.5532620000000  0.4285210000000  0.5690830000000 1.0
C      1  0.5180660000000  0.3703890000000  0.4977870000000 1.0
C      1  0.5190410000000  0.3969120000000  0.4525570000000 1.0
C      1  0.4669110000000  0.4912700000000  0.5453550000000 1.0
C      1  0.5034780000000  0.4162350000000  0.5678400000000 1.0
C      1  0.5858290000000  0.4939430000000  0.4404980000000 1.0
C      1  0.5420100000000  0.5936630000000  0.5250020000000 1.0
C      1  0.5933590000000  0.4287020000000  0.4799790000000 1.0
C      1  0.3898230000000  0.5124100000000  0.5081780000000 1.0
C      1  0.6133460000000  0.4769620000000  0.5186210000000 1.0
C      1  0.4644600000000  0.4733910000000  0.5937850000000 1.0
C      1  0.4186360000000  0.4295650000000  0.5271200000000 1.0
C      1  0.5183300000000  0.4286860000000  0.4987380000000 1.0
C      1  0.5322280000000  0.5020170000000  0.5086990000000 1.0
C      1  0.4930160000000  0.4168590000000  0.5149400000000 1.0
C      1  0.4196290000000  0.5266400000000  0.4397400000000 1.0
C      1  0.4734330000000  0.4485420000000  0.4381000000000 1.0
C      1  0.4620200000000  0.5458370000000  0.4395650000000 1.0
C      1  0.4496600000000  0.4383060000000  0.4221590000000 1.0
C      1  0.3897950000000  0.4787970000000  0.4727850000000 1.0
C      1  0.5274910000000  0.4916720000000  0.4818410000000 1.0
C      1  0.4951550000000  0.3866800000000  0.4672290000000 1.0
C      1  0.5344980000000  0.4477170000000  0.5167400000000 1.0
C      1  0.4930100000000  0.5933450000000  0.4469310000000 1.0
C      1  0.5629160000000  0.4926650000000  0.5248300000000 1.0
C      1  0.4796760000000  0.5708770000000  0.5661490000000 1.0
C      1  0.4272640000000  0.5641580000000  0.5717890000000 1.0
C      1  0.3845930000000  0.5064580000000  0.4805940000000 1.0
C      1  0.4840250000000  0.4768800000000  0.4921300000000 1.0
C      1  0.5263610000000  0.4684460000000  0.5693410000000 1.0
C      1  0.5487780000000  0.5385670000000  0.4825300000000 1.0
C      1  0.5297480000000  0.5761840000000  0.5704700000000 1.0
C      1  0.5720850000000  0.4478170000000  0.5558520000000 1.0
C      1  0.4934600000000  0.5096450000000  0.5358060000000 1.0
C      1  0.5958370000000  0.5611230000000  0.5029730000000 1.0
C      1  0.5459870000000  0.5766950000000  0.4531900000000 1.0
C      1  0.4651220000000  0.5906630000000  0.4557480000000 1.0
C      1  0.4854140000000  0.4523520000000  0.5954260000000 1.0
C      1  0.4589980000000  0.5936370000000  0.4867720000000 1.0
C      1  0.4892620000000  0.5326170000000  0.6049210000000 1.0
C      1  0.4773820000000  0.6138950000000  0.5023120000000 1.0
C      1  0.4153300000000  0.5454560000000  0.5375810000000 1.0
C      1  0.4708970000000  0.4615480000000  0.5332260000000 1.0
C      1  0.4021910000000  0.4813930000000  0.5484010000000 1.0
C      1  0.4482590000000  0.5214190000000  0.4361610000000 1.0
C      1  0.5064870000000  0.5367190000000  0.4180120000000 1.0
C      1  0.5109470000000  0.5264570000000  0.6253720000000 1.0
C      1  0.4998980000000  0.3647000000000  0.4845750000000 1.0
C      1  0.4152260000000  0.5502600000000  0.5104380000000 1.0
C      1  0.4086680000000  0.5409820000000  0.5772020000000 1.0
C      1  0.5091720000000  0.5209460000000  0.5588380000000 1.0
C      1  0.4023630000000  0.5300270000000  0.4692580000000 1.0
C      1  0.4304980000000  0.4226560000000  0.4399870000000 1.0
C      1  0.4895200000000  0.5548710000000  0.4812520000000 1.0
C      1  0.5625770000000  0.5305010000000  0.5550400000000 1.0
C      1  0.5006530000000  0.4667430000000  0.5305330000000 1.0
C      1  0.5370780000000  0.5159080000000  0.5600520000000 1.0
C      1  0.4364070000000  0.4107470000000  0.5402600000000 1.0
C      1  0.4500290000000  0.5943120000000  0.5345360000000 1.0
C      1  0.5105310000000  0.4436050000000  0.4735910000000 1.0
C      1  0.5869350000000  0.5184460000000  0.5745850000000 1.0
C      1  0.4757710000000  0.6085480000000  0.5305110000000 1.0
C      1  0.4297290000000  0.4789080000000  0.4950950000000 1.0
C      1  0.4079400000000  0.4571040000000  0.5355170000000 1.0
C      1  0.4587470000000  0.5307750000000  0.3917050000000 1.0
C      1  0.5736880000000  0.5708470000000  0.4573660000000 1.0
C      1  0.4492170000000  0.5107030000000  0.5308140000000 1.0
C      1  0.5500810000000  0.5784010000000  0.5487690000000 1.0
C      1  0.4654000000000  0.5469680000000  0.5196960000000 1.0
C      1  0.5157930000000  0.4882210000000  0.3762140000000 1.0
C      1  0.4116230000000  0.4398970000000  0.4561210000000 1.0
C      1  0.3898620000000  0.5070240000000  0.5367860000000 1.0
C      1  0.5696100000000  0.5578600000000  0.5465670000000 1.0
C      1  0.5038300000000  0.4051270000000  0.5399530000000 1.0
C      1  0.5319310000000  0.5313310000000  0.5047900000000 1.0
C      1  0.5479850000000  0.5072720000000  0.6005320000000 1.0
C      1  0.4730370000000  0.5036020000000  0.4910960000000 1.0
C      1  0.6027390000000  0.4531200000000  0.5279020000000 1.0
C      1  0.6022130000000  0.5380710000000  0.4843310000000 1.0
C      1  0.3936470000000  0.5322710000000  0.5520730000000 1.0
C      1  0.5253610000000  0.5587800000000  0.4136600000000 1.0
C      1  0.5298850000000  0.5036800000000  0.4559730000000 1.0
C      1  0.4307290000000  0.4590730000000  0.4186140000000 1.0
C      1  0.4349050000000  0.4696670000000  0.5890980000000 1.0
C      1  0.5700220000000  0.4785520000000  0.5552620000000 1.0
C      1  0.5226450000000  0.5566220000000  0.5908950000000 1.0
C      1  0.4894830000000  0.4962160000000  0.3891690000000 1.0
C      1  0.6108350000000  0.4998130000000  0.5369480000000 1.0
C      1  0.4677220000000  0.4216850000000  0.4992980000000 1.0
C      1  0.4142060000000  0.5085160000000  0.4162950000000 1.0
C      1  0.4005260000000  0.4656550000000  0.4482540000000 1.0
C      1  0.5531930000000  0.5440640000000  0.4166680000000 1.0
C      1  0.4220140000000  0.5591860000000  0.4472460000000 1.0
C      1  0.5295080000000  0.4653830000000  0.3843710000000 1.0
C      1  0.5039050000000  0.6032200000000  0.5394080000000 1.0
C      1  0.4256490000000  0.5168810000000  0.5751190000000 1.0
C      1  0.5055150000000  0.5418280000000  0.5017920000000 1.0
C      1  0.5738550000000  0.4783400000000  0.5016790000000 1.0
C      1  0.5391360000000  0.5977640000000  0.4734940000000 1.0
C      1  0.4151800000000  0.5751160000000  0.4968110000000 1.0
C      1  0.4332280000000  0.4249020000000  0.5024830000000 1.0
C      1  0.5598210000000  0.4534080000000  0.5031280000000 1.0
C      1  0.5856590000000  0.4324470000000  0.5345210000000 1.0
C      1  0.4800900000000  0.4312660000000  0.5763670000000 1.0
C      1  0.4667870000000  0.5640050000000  0.4956670000000 1.0
C      1  0.5737490000000  0.4261840000000  0.5032370000000 1.0
C      1  0.5448150000000  0.4079780000000  0.4629290000000 1.0
C      1  0.5042930000000  0.6110880000000  0.4939650000000 1.0
END
