TITL C-4164244-2836-680 -18.542563753946 125000 -27739.4704828446 0 0 183 (C1) n - 1
REM
REM in /home/nfs/bkarasulu/CARBON/AIRSS/Generating-Clusters/ReaxFF-fromJPCA2015/Units_Real/with-SteepDescent/Only-C1/SD-CG/Try1-3A/FIRE-CG
REM
REM
REM
REM
REM
REM ./C.cell (11c1c37f851c82e70ff6c80c92926a4b)
REM
REM compiler GCC version 9.2.1 20190827 (Red Hat 9.2.1-1)
REM options -cpp -mtune=generic -march=x86-64 -g -O0 -fpre-include=/usr/include/finclude/math-vector-fortran.h
REM seed 1833123178 53827193 1916079728 123971874 1306231724 1387167093 1556327920 -2136323831 1852947692 1834222424 2089998020 -387049730 -1803052671 -1291164220 -931086170 -1460371207 -2107730909 -1473840438 140993397 -1829239438 -2040825905 990375669 481840251 -636235403 722322786 -567415311 -890917658 -2133642262 1351328014 -1245760336 1569021163 -84984956 -1909081390
REM
CELL 1.54180   50.00000   50.00000   50.00000   90.00000   90.00000   90.00000
LATT -1
SFAC C  
C      1  0.5706850000000  0.4701690000000  0.5822270000000 1.0
C      1  0.5969690000000  0.5705610000000  0.4760420000000 1.0
C      1  0.5542400000000  0.4502870000000  0.4206570000000 1.0
C      1  0.5588710000000  0.5547120000000  0.4274740000000 1.0
C      1  0.5704620000000  0.4952800000000  0.5113930000000 1.0
C      1  0.4049650000000  0.4645430000000  0.4694530000000 1.0
C      1  0.5737000000000  0.5545830000000  0.5307870000000 1.0
C      1  0.5268030000000  0.4472950000000  0.4643770000000 1.0
C      1  0.4298690000000  0.4624050000000  0.5802140000000 1.0
C      1  0.5013550000000  0.4836700000000  0.4263880000000 1.0
C      1  0.5779240000000  0.4983090000000  0.5890630000000 1.0
C      1  0.5492570000000  0.5815620000000  0.4665200000000 1.0
C      1  0.5220050000000  0.4627620000000  0.6023500000000 1.0
C      1  0.4994580000000  0.4311040000000  0.5247930000000 1.0
C      1  0.5072790000000  0.5110520000000  0.5709030000000 1.0
C      1  0.5738460000000  0.5829470000000  0.5244840000000 1.0
C      1  0.3976080000000  0.5101890000000  0.5222270000000 1.0
C      1  0.4868580000000  0.5173980000000  0.4631200000000 1.0
C      1  0.4918730000000  0.4488010000000  0.4992110000000 1.0
C      1  0.5453660000000  0.4292130000000  0.5718700000000 1.0
C      1  0.4794230000000  0.5326950000000  0.4150910000000 1.0
C      1  0.4533810000000  0.5057130000000  0.5368940000000 1.0
C      1  0.5289650000000  0.3944930000000  0.5479230000000 1.0
C      1  0.5634340000000  0.4306140000000  0.4378510000000 1.0
C      1  0.5039800000000  0.5200290000000  0.5987130000000 1.0
C      1  0.6055680000000  0.4779350000000  0.5091470000000 1.0
C      1  0.4822430000000  0.4353780000000  0.5474010000000 1.0
C      1  0.4315920000000  0.4901970000000  0.5908340000000 1.0
C      1  0.5543600000000  0.5005820000000  0.4683090000000 1.0
C      1  0.4190880000000  0.4842420000000  0.4249700000000 1.0
C      1  0.4518670000000  0.5251840000000  0.4131810000000 1.0
C      1  0.5000570000000  0.3893710000000  0.4589580000000 1.0
C      1  0.4103690000000  0.4712360000000  0.5598400000000 1.0
C      1  0.5162560000000  0.5657400000000  0.5219220000000 1.0
C      1  0.4563240000000  0.4130050000000  0.5076490000000 1.0
C      1  0.4932560000000  0.4027760000000  0.5128680000000 1.0
C      1  0.4478050000000  0.5893970000000  0.5465320000000 1.0
C      1  0.5002320000000  0.6147110000000  0.5345540000000 1.0
C      1  0.4979600000000  0.4219550000000  0.4265790000000 1.0
C      1  0.5199300000000  0.4730730000000  0.4466910000000 1.0
C      1  0.5815540000000  0.4444870000000  0.5368550000000 1.0
C      1  0.4106870000000  0.4988500000000  0.5717470000000 1.0
C      1  0.5013450000000  0.4361670000000  0.4735100000000 1.0
C      1  0.4444800000000  0.4613460000000  0.5006740000000 1.0
C      1  0.4316730000000  0.4349280000000  0.4405560000000 1.0
C      1  0.4548390000000  0.5085450000000  0.5940970000000 1.0
C      1  0.3966710000000  0.5239530000000  0.4522380000000 1.0
C      1  0.5754960000000  0.4682180000000  0.5532650000000 1.0
C      1  0.4973980000000  0.5505620000000  0.5950490000000 1.0
C      1  0.5889200000000  0.5873260000000  0.4999400000000 1.0
C      1  0.4673900000000  0.4938450000000  0.4501510000000 1.0
C      1  0.5399540000000  0.4165880000000  0.4538820000000 1.0
C      1  0.5106380000000  0.4652440000000  0.4018870000000 1.0
C      1  0.5522210000000  0.4019740000000  0.4777590000000 1.0
C      1  0.4716450000000  0.5487520000000  0.5897140000000 1.0
C      1  0.5281530000000  0.5191190000000  0.4086120000000 1.0
C      1  0.4413260000000  0.4224740000000  0.5565810000000 1.0
C      1  0.4475030000000  0.5389460000000  0.5861590000000 1.0
C      1  0.4489070000000  0.4393990000000  0.5795340000000 1.0
C      1  0.4891340000000  0.5920680000000  0.5455280000000 1.0
C      1  0.5251540000000  0.5894060000000  0.4254340000000 1.0
C      1  0.4357170000000  0.5436050000000  0.4288410000000 1.0
C      1  0.5861210000000  0.4404680000000  0.4553460000000 1.0
C      1  0.4212120000000  0.4459270000000  0.4880040000000 1.0
C      1  0.5251440000000  0.4442800000000  0.5306500000000 1.0
C      1  0.3870040000000  0.5294650000000  0.5032990000000 1.0
C      1  0.5004160000000  0.4756130000000  0.5001340000000 1.0
C      1  0.4705030000000  0.5708440000000  0.5437380000000 1.0
C      1  0.4725060000000  0.4667980000000  0.4496770000000 1.0
C      1  0.5896590000000  0.4622290000000  0.4396030000000 1.0
C      1  0.4133100000000  0.5759710000000  0.5218340000000 1.0
C      1  0.4044420000000  0.4622300000000  0.5320630000000 1.0
C      1  0.5492550000000  0.5798290000000  0.4382320000000 1.0
C      1  0.5420460000000  0.4050740000000  0.5067980000000 1.0
C      1  0.4402730000000  0.4971210000000  0.4073340000000 1.0
C      1  0.3870910000000  0.5141050000000  0.4782470000000 1.0
C      1  0.4499480000000  0.5532370000000  0.4515670000000 1.0
C      1  0.4323880000000  0.5928200000000  0.5041960000000 1.0
C      1  0.5295780000000  0.5940770000000  0.4828730000000 1.0
C      1  0.5523900000000  0.5094290000000  0.5333760000000 1.0
C      1  0.4497150000000  0.5182170000000  0.4865600000000 1.0
C      1  0.4795570000000  0.4915050000000  0.5089040000000 1.0
C      1  0.4412750000000  0.5372420000000  0.5072280000000 1.0
C      1  0.5278420000000  0.5107650000000  0.5193800000000 1.0
C      1  0.4980130000000  0.5517780000000  0.5040300000000 1.0
C      1  0.4517260000000  0.6056810000000  0.5213720000000 1.0
C      1  0.5165850000000  0.5662790000000  0.5765750000000 1.0
C      1  0.4681850000000  0.4596510000000  0.5474450000000 1.0
C      1  0.5430100000000  0.4893500000000  0.4434740000000 1.0
C      1  0.4870840000000  0.5613760000000  0.4208430000000 1.0
C      1  0.6026990000000  0.5172700000000  0.5425050000000 1.0
C      1  0.5428460000000  0.4696380000000  0.4054720000000 1.0
C      1  0.5299710000000  0.5857040000000  0.5094260000000 1.0
C      1  0.4966170000000  0.4040040000000  0.4823340000000 1.0
C      1  0.4128140000000  0.5248630000000  0.5578970000000 1.0
C      1  0.4341580000000  0.4194640000000  0.5283930000000 1.0
C      1  0.5038840000000  0.4367640000000  0.4030080000000 1.0
C      1  0.4830730000000  0.4408720000000  0.4502950000000 1.0
C      1  0.4751780000000  0.5253760000000  0.5382500000000 1.0
C      1  0.5343840000000  0.5292600000000  0.4765550000000 1.0
C      1  0.5981120000000  0.5285290000000  0.4923760000000 1.0
C      1  0.5142110000000  0.5665520000000  0.4113340000000 1.0
C      1  0.4104280000000  0.5475230000000  0.4426010000000 1.0
C      1  0.4399850000000  0.5882520000000  0.4767570000000 1.0
C      1  0.5017950000000  0.5281030000000  0.5505840000000 1.0
C      1  0.5305130000000  0.6184990000000  0.5374520000000 1.0
C      1  0.5244170000000  0.4850060000000  0.5104330000000 1.0
C      1  0.4144150000000  0.4386840000000  0.5181540000000 1.0
C      1  0.4173640000000  0.5029680000000  0.4474910000000 1.0
C      1  0.4487110000000  0.4280150000000  0.4173620000000 1.0
C      1  0.5809320000000  0.4063260000000  0.4833810000000 1.0
C      1  0.5652210000000  0.4235420000000  0.5496090000000 1.0
C      1  0.5934280000000  0.4497730000000  0.5102310000000 1.0
C      1  0.4945970000000  0.5614520000000  0.4752570000000 1.0
C      1  0.4335400000000  0.4245080000000  0.4669460000000 1.0
C      1  0.5157780000000  0.4043350000000  0.4417230000000 1.0
C      1  0.5141750000000  0.5255650000000  0.4576790000000 1.0
C      1  0.5532680000000  0.5403830000000  0.5479420000000 1.0
C      1  0.3936300000000  0.4828750000000  0.5139790000000 1.0
C      1  0.4207350000000  0.5501090000000  0.4912880000000 1.0
C      1  0.4801310000000  0.5837640000000  0.4392510000000 1.0
C      1  0.4575950000000  0.4774720000000  0.5254840000000 1.0
C      1  0.3918430000000  0.4853480000000  0.4843720000000 1.0
C      1  0.5034310000000  0.6006060000000  0.4416930000000 1.0
C      1  0.4931430000000  0.4243000000000  0.5717200000000 1.0
C      1  0.4780150000000  0.6147620000000  0.5123170000000 1.0
C      1  0.4837820000000  0.4726460000000  0.5672550000000 1.0
C      1  0.4259650000000  0.5486000000000  0.5676250000000 1.0
C      1  0.5757850000000  0.5901610000000  0.4744150000000 1.0
C      1  0.6029320000000  0.4999460000000  0.4871240000000 1.0
C      1  0.4695790000000  0.5489760000000  0.5219940000000 1.0
C      1  0.5081670000000  0.6085770000000  0.4698680000000 1.0
C      1  0.5268620000000  0.4718780000000  0.5407450000000 1.0
C      1  0.3968650000000  0.5574640000000  0.5058000000000 1.0
C      1  0.4531150000000  0.4750210000000  0.3991510000000 1.0
C      1  0.5443540000000  0.4530990000000  0.4861170000000 1.0
C      1  0.4508110000000  0.4051510000000  0.4789610000000 1.0
C      1  0.5194850000000  0.5304740000000  0.5013520000000 1.0
C      1  0.5219080000000  0.5509120000000  0.5477770000000 1.0
C      1  0.4898290000000  0.4663430000000  0.5963900000000 1.0
C      1  0.5921270000000  0.4342700000000  0.4857860000000 1.0
C      1  0.4269470000000  0.5183560000000  0.5307830000000 1.0
C      1  0.5409970000000  0.4359280000000  0.5086990000000 1.0
C      1  0.5209540000000  0.4135930000000  0.5692610000000 1.0
C      1  0.4668120000000  0.5912140000000  0.4662170000000 1.0
C      1  0.4811200000000  0.4990230000000  0.5990480000000 1.0
C      1  0.5946470000000  0.4903670000000  0.4375850000000 1.0
C      1  0.4861950000000  0.4525840000000  0.3886490000000 1.0
C      1  0.6152630000000  0.4917360000000  0.5339500000000 1.0
C      1  0.5505780000000  0.4985730000000  0.4146370000000 1.0
C      1  0.5914770000000  0.5433410000000  0.4677750000000 1.0
C      1  0.5669130000000  0.5357790000000  0.5744550000000 1.0
C      1  0.5173950000000  0.3903690000000  0.5214010000000 1.0
C      1  0.5517610000000  0.4844590000000  0.5486410000000 1.0
C      1  0.5013040000000  0.5117290000000  0.4153160000000 1.0
C      1  0.5331430000000  0.5128590000000  0.6107650000000 1.0
C      1  0.4256040000000  0.5631430000000  0.4655800000000 1.0
C      1  0.5844440000000  0.4978110000000  0.4646920000000 1.0
C      1  0.5301340000000  0.4867070000000  0.6073770000000 1.0
C      1  0.5496620000000  0.4805550000000  0.4924320000000 1.0
C      1  0.5548710000000  0.4005540000000  0.5355500000000 1.0
C      1  0.5898750000000  0.5181910000000  0.5698190000000 1.0
C      1  0.5779550000000  0.5365100000000  0.4404370000000 1.0
C      1  0.4426770000000  0.5037970000000  0.4627570000000 1.0
C      1  0.5061020000000  0.4876160000000  0.5567590000000 1.0
C      1  0.4156470000000  0.4606840000000  0.4424780000000 1.0
C      1  0.4736130000000  0.4156030000000  0.4198960000000 1.0
C      1  0.5781380000000  0.5116350000000  0.4256350000000 1.0
C      1  0.4244360000000  0.5717670000000  0.5488710000000 1.0
C      1  0.4767890000000  0.4398310000000  0.5905760000000 1.0
C      1  0.5360230000000  0.5466360000000  0.4104520000000 1.0
C      1  0.4751250000000  0.5452790000000  0.4620200000000 1.0
C      1  0.5466090000000  0.4526740000000  0.5889820000000 1.0
C      1  0.4737130000000  0.3914440000000  0.4674220000000 1.0
C      1  0.4768870000000  0.5117140000000  0.4903730000000 1.0
C      1  0.5205930000000  0.5529340000000  0.4633920000000 1.0
C      1  0.5943220000000  0.5361320000000  0.5210020000000 1.0
C      1  0.4829010000000  0.6094800000000  0.4838840000000 1.0
C      1  0.5587010000000  0.5191640000000  0.5979210000000 1.0
C      1  0.4581610000000  0.4485810000000  0.3963610000000 1.0
C      1  0.5305450000000  0.5857200000000  0.5851110000000 1.0
C      1  0.4633450000000  0.4408860000000  0.5011920000000 1.0
C      1  0.5484490000000  0.5987310000000  0.5256850000000 1.0
END
