TITL C-4164238-4211-498 0.403839353913676 125000 -16222.0386595206 0 0 106 (C1) n - 1
REM
REM in /home/nfs/bkarasulu/CARBON/AIRSS/Generating-Clusters/ReaxFF-fromJPCA2015/Units_Real/with-SteepDescent/Only-C1/SD-CG/Try1-3A/FIRE-CG
REM
REM
REM
REM
REM
REM ./C.cell (11c1c37f851c82e70ff6c80c92926a4b)
REM
REM compiler GCC version 9.2.1 20190827 (Red Hat 9.2.1-1)
REM options -cpp -mtune=generic -march=x86-64 -g -O0 -fpre-include=/usr/include/finclude/math-vector-fortran.h
REM seed -864526618 -655521119 -1804176519 -2049521487 293500226 5677575 2146692173 -505290346 1437134300 778781860 1082627910 1547632090 -565780921 -263370914 -626023972 1639119242 1652496220 613907679 1231460857 1210069030 1445216755 -1315544645 -833827604 1795240977 531896332 17128351 812036925 477943655 -851344449 911405098 1001631201 1293500420 1580827705
REM
CELL 1.54180   50.00000   50.00000   50.00000   90.00000   90.00000   90.00000
LATT -1
SFAC C  
C      1  0.4559360000000  0.5497160000000  0.4356400000000 1.0
C      1  0.5463180000000  0.5168130000000  0.4304890000000 1.0
C      1  0.4762280000000  0.5210650000000  0.5828670000000 1.0
C      1  0.5198440000000  0.5161480000000  0.4175480000000 1.0
C      1  0.4946950000000  0.5609240000000  0.4236880000000 1.0
C      1  0.5192790000000  0.5320300000000  0.4869270000000 1.0
C      1  0.4078550000000  0.4907910000000  0.4893020000000 1.0
C      1  0.4759850000000  0.4686100000000  0.5855960000000 1.0
C      1  0.5709410000000  0.5146230000000  0.5559240000000 1.0
C      1  0.5929360000000  0.4483440000000  0.4399960000000 1.0
C      1  0.5100340000000  0.4474360000000  0.5506340000000 1.0
C      1  0.4848160000000  0.4315550000000  0.5515030000000 1.0
C      1  0.5017610000000  0.5086890000000  0.4844170000000 1.0
C      1  0.5288100000000  0.4360940000000  0.5318510000000 1.0
C      1  0.4627760000000  0.4940240000000  0.5825650000000 1.0
C      1  0.5031600000000  0.4106430000000  0.4696820000000 1.0
C      1  0.4345250000000  0.5581650000000  0.4812030000000 1.0
C      1  0.4732040000000  0.5180690000000  0.5326440000000 1.0
C      1  0.4692140000000  0.4667550000000  0.5159210000000 1.0
C      1  0.5239630000000  0.4572620000000  0.5770900000000 1.0
C      1  0.5843180000000  0.5260040000000  0.5323920000000 1.0
C      1  0.5028520000000  0.4229780000000  0.4436880000000 1.0
C      1  0.4654080000000  0.4480010000000  0.5660410000000 1.0
C      1  0.5909260000000  0.5092560000000  0.5087060000000 1.0
C      1  0.4610680000000  0.4819180000000  0.4673250000000 1.0
C      1  0.5510660000000  0.5297200000000  0.5698320000000 1.0
C      1  0.5842930000000  0.5458290000000  0.4768030000000 1.0
C      1  0.4827130000000  0.5767800000000  0.4911480000000 1.0
C      1  0.5737680000000  0.4865910000000  0.5028430000000 1.0
C      1  0.4402820000000  0.4852370000000  0.5653410000000 1.0
C      1  0.4753030000000  0.4553300000000  0.4233320000000 1.0
C      1  0.4784200000000  0.4700010000000  0.4885910000000 1.0
C      1  0.5000730000000  0.5694460000000  0.5414110000000 1.0
C      1  0.4756780000000  0.5712440000000  0.4415060000000 1.0
C      1  0.5212270000000  0.4554180000000  0.4744240000000 1.0
C      1  0.4284040000000  0.5158250000000  0.4526710000000 1.0
C      1  0.4545890000000  0.5721360000000  0.4972620000000 1.0
C      1  0.4261620000000  0.5054510000000  0.5508640000000 1.0
C      1  0.5453640000000  0.4730980000000  0.5694900000000 1.0
C      1  0.4404950000000  0.4405530000000  0.4707410000000 1.0
C      1  0.5170390000000  0.4975160000000  0.5885260000000 1.0
C      1  0.5030140000000  0.5810940000000  0.5134270000000 1.0
C      1  0.4754790000000  0.4282860000000  0.4349430000000 1.0
C      1  0.5120850000000  0.4224920000000  0.5150050000000 1.0
C      1  0.4171000000000  0.4907910000000  0.4618600000000 1.0
C      1  0.5936130000000  0.5178030000000  0.4806330000000 1.0
C      1  0.4578850000000  0.4215080000000  0.4575710000000 1.0
C      1  0.5416220000000  0.5190890000000  0.4941470000000 1.0
C      1  0.4523270000000  0.5216750000000  0.4928060000000 1.0
C      1  0.5591860000000  0.4997450000000  0.4533610000000 1.0
C      1  0.5873750000000  0.4981250000000  0.4591640000000 1.0
C      1  0.5754190000000  0.5619810000000  0.4989360000000 1.0
C      1  0.5429700000000  0.5484620000000  0.5327450000000 1.0
C      1  0.5720490000000  0.4458300000000  0.4738850000000 1.0
C      1  0.4335250000000  0.5483420000000  0.5287680000000 1.0
C      1  0.4264660000000  0.5370380000000  0.5029450000000 1.0
C      1  0.5017470000000  0.4660750000000  0.4284110000000 1.0
C      1  0.5217610000000  0.4260190000000  0.4877540000000 1.0
C      1  0.5531470000000  0.4952910000000  0.4819380000000 1.0
C      1  0.5067690000000  0.4766770000000  0.4868630000000 1.0
C      1  0.4675990000000  0.5000890000000  0.4208300000000 1.0
C      1  0.4439660000000  0.5286300000000  0.5469340000000 1.0
C      1  0.4904960000000  0.4974820000000  0.5446910000000 1.0
C      1  0.4639800000000  0.5414070000000  0.5662060000000 1.0
C      1  0.5601410000000  0.4855600000000  0.5505930000000 1.0
C      1  0.5163850000000  0.5019040000000  0.5588280000000 1.0
C      1  0.4388650000000  0.4577970000000  0.5215570000000 1.0
C      1  0.5523860000000  0.5795480000000  0.4891700000000 1.0
C      1  0.4056050000000  0.5146180000000  0.5060890000000 1.0
C      1  0.5042380000000  0.5241010000000  0.5916670000000 1.0
C      1  0.5540870000000  0.4350360000000  0.4920090000000 1.0
C      1  0.4935420000000  0.5687380000000  0.4655080000000 1.0
C      1  0.4539740000000  0.4755670000000  0.4269430000000 1.0
C      1  0.5278820000000  0.5806540000000  0.5016740000000 1.0
C      1  0.4527120000000  0.5685180000000  0.5268520000000 1.0
C      1  0.4729860000000  0.5629430000000  0.5480870000000 1.0
C      1  0.4343780000000  0.5451690000000  0.4554390000000 1.0
C      1  0.4372360000000  0.4685190000000  0.4547940000000 1.0
C      1  0.5040900000000  0.4711180000000  0.5931720000000 1.0
C      1  0.4853220000000  0.4196920000000  0.5248660000000 1.0
C      1  0.4430500000000  0.4356320000000  0.4988050000000 1.0
C      1  0.4154770000000  0.4755540000000  0.5136210000000 1.0
C      1  0.4760150000000  0.5175440000000  0.5049710000000 1.0
C      1  0.5663680000000  0.4704160000000  0.5258490000000 1.0
C      1  0.5240230000000  0.5579750000000  0.5538170000000 1.0
C      1  0.5035550000000  0.5127110000000  0.4556030000000 1.0
C      1  0.4649130000000  0.4168470000000  0.5038440000000 1.0
C      1  0.4101220000000  0.4986610000000  0.5292660000000 1.0
C      1  0.5644020000000  0.5402040000000  0.4274230000000 1.0
C      1  0.5169830000000  0.4492330000000  0.4457450000000 1.0
C      1  0.5425850000000  0.5667510000000  0.4640230000000 1.0
C      1  0.4994400000000  0.4968460000000  0.4303440000000 1.0
C      1  0.4900820000000  0.4701600000000  0.5355720000000 1.0
C      1  0.4534200000000  0.5100590000000  0.4672740000000 1.0
C      1  0.4686590000000  0.5287630000000  0.4185550000000 1.0
C      1  0.5902930000000  0.4651070000000  0.4601170000000 1.0
C      1  0.5363510000000  0.5218830000000  0.5218790000000 1.0
C      1  0.5526470000000  0.4460970000000  0.5192640000000 1.0
C      1  0.5370330000000  0.4986320000000  0.5393840000000 1.0
C      1  0.5259390000000  0.5406620000000  0.5780520000000 1.0
C      1  0.5718430000000  0.5515870000000  0.5258240000000 1.0
C      1  0.4430920000000  0.4591410000000  0.5525200000000 1.0
C      1  0.5674320000000  0.5546360000000  0.4538750000000 1.0
C      1  0.4983090000000  0.5359260000000  0.4117450000000 1.0
C      1  0.4752660000000  0.4084890000000  0.4777270000000 1.0
C      1  0.5175680000000  0.5509850000000  0.4654110000000 1.0
END
