TITL C-4164233-775-777 28.4265545550272 125000 -28547.7034397045 0 0 192 (C1) n - 1
REM
REM in /home/nfs/bkarasulu/CARBON/AIRSS/Generating-Clusters/ReaxFF-fromJPCA2015/Units_Real/with-SteepDescent/Only-C1/SD-CG/Try1-3A/FIRE-CG
REM
REM
REM
REM
REM
REM ./C.cell (11c1c37f851c82e70ff6c80c92926a4b)
REM
REM compiler GCC version 9.2.1 20190827 (Red Hat 9.2.1-1)
REM options -cpp -mtune=generic -march=x86-64 -g -O0 -fpre-include=/usr/include/finclude/math-vector-fortran.h
REM seed 1863525059 -1914421322 1297969156 1346902559 -1231439490 -252686742 -554692108 -2074491598 360177918 -1894022862 -891098513 1944806611 -1545985233 -2030517474 -681574002 -2097874844 -323905774 -2029541509 -260977130 -2057484741 -1921400251 -343473393 -2091405892 362189757 727713523 -1772859763 1192511851 309363651 -65756818 758569766 -1374999884 1544610104 -1611779376
REM
CELL 1.54180   50.00000   50.00000   50.00000   90.00000   90.00000   90.00000
LATT -1
SFAC C  
C      1  0.4504330000000  0.4160780000000  0.5698830000000 1.0
C      1  0.5292390000000  0.4945870000000  0.4652420000000 1.0
C      1  0.5186040000000  0.4001240000000  0.4837780000000 1.0
C      1  0.5382160000000  0.4898600000000  0.5060610000000 1.0
C      1  0.5423820000000  0.4643810000000  0.4944150000000 1.0
C      1  0.4528800000000  0.5106490000000  0.4108620000000 1.0
C      1  0.3940190000000  0.4624620000000  0.5389680000000 1.0
C      1  0.4348890000000  0.4443320000000  0.5263040000000 1.0
C      1  0.6003300000000  0.5077420000000  0.4843400000000 1.0
C      1  0.5547980000000  0.4146410000000  0.5224950000000 1.0
C      1  0.5401970000000  0.5764040000000  0.4335070000000 1.0
C      1  0.5137820000000  0.5014560000000  0.5139190000000 1.0
C      1  0.5797690000000  0.5206040000000  0.4273080000000 1.0
C      1  0.5617750000000  0.5777730000000  0.5567210000000 1.0
C      1  0.4444280000000  0.5095140000000  0.6010800000000 1.0
C      1  0.5222210000000  0.5514310000000  0.5882700000000 1.0
C      1  0.5537930000000  0.5886270000000  0.4845350000000 1.0
C      1  0.4880780000000  0.5488750000000  0.4805540000000 1.0
C      1  0.5989960000000  0.4488250000000  0.4547280000000 1.0
C      1  0.4195590000000  0.5045720000000  0.5852300000000 1.0
C      1  0.4096670000000  0.4685080000000  0.4501200000000 1.0
C      1  0.4474920000000  0.5247880000000  0.5601900000000 1.0
C      1  0.5489190000000  0.4573740000000  0.4680980000000 1.0
C      1  0.4520400000000  0.5377520000000  0.4560950000000 1.0
C      1  0.5687890000000  0.4758470000000  0.5894870000000 1.0
C      1  0.5032890000000  0.5396150000000  0.3929540000000 1.0
C      1  0.5069720000000  0.5290890000000  0.5202490000000 1.0
C      1  0.6153600000000  0.5209840000000  0.5334220000000 1.0
C      1  0.4710720000000  0.5549400000000  0.5879940000000 1.0
C      1  0.6133120000000  0.5321920000000  0.4836410000000 1.0
C      1  0.6065730000000  0.5218540000000  0.5615310000000 1.0
C      1  0.4085770000000  0.4822810000000  0.5718540000000 1.0
C      1  0.5258220000000  0.4446290000000  0.5091880000000 1.0
C      1  0.4312100000000  0.4800310000000  0.4361700000000 1.0
C      1  0.5103490000000  0.5342650000000  0.5696500000000 1.0
C      1  0.4368280000000  0.5937970000000  0.5228660000000 1.0
C      1  0.5107830000000  0.4884720000000  0.6067670000000 1.0
C      1  0.3948590000000  0.4912640000000  0.4615290000000 1.0
C      1  0.5689100000000  0.5279850000000  0.5921780000000 1.0
C      1  0.4992700000000  0.5123990000000  0.3880220000000 1.0
C      1  0.4913210000000  0.5829950000000  0.5471950000000 1.0
C      1  0.6084490000000  0.4830070000000  0.4753790000000 1.0
C      1  0.4086600000000  0.5005060000000  0.5001600000000 1.0
C      1  0.4710540000000  0.4220790000000  0.5894190000000 1.0
C      1  0.4837710000000  0.4404110000000  0.4036940000000 1.0
C      1  0.5532220000000  0.4231420000000  0.4349670000000 1.0
C      1  0.4614640000000  0.4586630000000  0.4046440000000 1.0
C      1  0.5208740000000  0.3828140000000  0.5361570000000 1.0
C      1  0.4865350000000  0.4464200000000  0.6002120000000 1.0
C      1  0.4509310000000  0.5721830000000  0.4301240000000 1.0
C      1  0.4197140000000  0.5826420000000  0.4720960000000 1.0
C      1  0.5254650000000  0.5538820000000  0.5138390000000 1.0
C      1  0.5339300000000  0.4446100000000  0.5828700000000 1.0
C      1  0.5107720000000  0.4654200000000  0.5511960000000 1.0
C      1  0.4881020000000  0.5415020000000  0.4221280000000 1.0
C      1  0.5395980000000  0.4034780000000  0.5449180000000 1.0
C      1  0.5229770000000  0.4008890000000  0.4532200000000 1.0
C      1  0.5851210000000  0.5398260000000  0.5705070000000 1.0
C      1  0.5433770000000  0.5053560000000  0.3930340000000 1.0
C      1  0.6124770000000  0.5410790000000  0.5121510000000 1.0
C      1  0.4527770000000  0.4811380000000  0.4700140000000 1.0
C      1  0.5283640000000  0.4264820000000  0.5599430000000 1.0
C      1  0.4285810000000  0.5015280000000  0.4190870000000 1.0
C      1  0.4074530000000  0.5492700000000  0.5006300000000 1.0
C      1  0.5224690000000  0.5098560000000  0.5748530000000 1.0
C      1  0.5165960000000  0.5724950000000  0.4157680000000 1.0
C      1  0.6117610000000  0.4912640000000  0.5328280000000 1.0
C      1  0.6008850000000  0.5383220000000  0.4589740000000 1.0
C      1  0.4861140000000  0.5334140000000  0.5021170000000 1.0
C      1  0.4873960000000  0.4063760000000  0.4792140000000 1.0
C      1  0.4686720000000  0.5273080000000  0.5993120000000 1.0
C      1  0.4802480000000  0.4412810000000  0.5087300000000 1.0
C      1  0.4674970000000  0.4866660000000  0.3977690000000 1.0
C      1  0.5881320000000  0.4856230000000  0.5167630000000 1.0
C      1  0.4028020000000  0.5323970000000  0.5427010000000 1.0
C      1  0.5423020000000  0.5340730000000  0.6022130000000 1.0
C      1  0.4614810000000  0.6057800000000  0.5132730000000 1.0
C      1  0.4623300000000  0.6066060000000  0.4639320000000 1.0
C      1  0.4773100000000  0.5595180000000  0.5404570000000 1.0
C      1  0.4897180000000  0.5763610000000  0.5770230000000 1.0
C      1  0.4190060000000  0.4418860000000  0.4577050000000 1.0
C      1  0.5620510000000  0.4534030000000  0.5766390000000 1.0
C      1  0.4769830000000  0.4927020000000  0.4820240000000 1.0
C      1  0.6019560000000  0.4954590000000  0.5746160000000 1.0
C      1  0.4927980000000  0.3822520000000  0.5299730000000 1.0
C      1  0.5817820000000  0.5397890000000  0.4455780000000 1.0
C      1  0.5337300000000  0.5060730000000  0.6029440000000 1.0
C      1  0.5129780000000  0.3758300000000  0.5059910000000 1.0
C      1  0.5243880000000  0.4239030000000  0.4371010000000 1.0
C      1  0.4041950000000  0.5181840000000  0.4513780000000 1.0
C      1  0.4447680000000  0.4682300000000  0.5428830000000 1.0
C      1  0.5801070000000  0.5602260000000  0.5499920000000 1.0
C      1  0.4317280000000  0.5683830000000  0.5542950000000 1.0
C      1  0.4634100000000  0.4632100000000  0.5941880000000 1.0
C      1  0.5085150000000  0.4580980000000  0.4017380000000 1.0
C      1  0.4664380000000  0.4542180000000  0.4613840000000 1.0
C      1  0.5372650000000  0.4734590000000  0.4461530000000 1.0
C      1  0.4975730000000  0.5829110000000  0.4522870000000 1.0
C      1  0.4012860000000  0.5724910000000  0.5167410000000 1.0
C      1  0.4405290000000  0.5905370000000  0.4507060000000 1.0
C      1  0.4824970000000  0.4145430000000  0.4183350000000 1.0
C      1  0.4442940000000  0.4039390000000  0.5230690000000 1.0
C      1  0.4635830000000  0.5284170000000  0.4318310000000 1.0
C      1  0.4608440000000  0.4875650000000  0.6112950000000 1.0
C      1  0.5478830000000  0.4971320000000  0.5475000000000 1.0
C      1  0.4421760000000  0.5506850000000  0.5028510000000 1.0
C      1  0.4743070000000  0.4321720000000  0.4833760000000 1.0
C      1  0.5128350000000  0.4590660000000  0.5977890000000 1.0
C      1  0.4316700000000  0.5528000000000  0.4219380000000 1.0
C      1  0.5239820000000  0.5788470000000  0.4961770000000 1.0
C      1  0.5620890000000  0.6007890000000  0.5226870000000 1.0
C      1  0.5575020000000  0.4430840000000  0.4144650000000 1.0
C      1  0.4696230000000  0.5087410000000  0.5529280000000 1.0
C      1  0.4893770000000  0.5328020000000  0.5487630000000 1.0
C      1  0.4250340000000  0.5328610000000  0.4654660000000 1.0
C      1  0.5472570000000  0.5985030000000  0.5474860000000 1.0
C      1  0.4889200000000  0.6019280000000  0.5232370000000 1.0
C      1  0.4587700000000  0.5913080000000  0.4877950000000 1.0
C      1  0.5714450000000  0.5381000000000  0.5060760000000 1.0
C      1  0.5337940000000  0.5542480000000  0.4516510000000 1.0
C      1  0.4877570000000  0.4671860000000  0.4445880000000 1.0
C      1  0.5845850000000  0.4922710000000  0.4298640000000 1.0
C      1  0.5601640000000  0.4906190000000  0.5251520000000 1.0
C      1  0.5526160000000  0.5291740000000  0.4082110000000 1.0
C      1  0.5338560000000  0.6017600000000  0.5759020000000 1.0
C      1  0.5264040000000  0.4452960000000  0.5392820000000 1.0
C      1  0.4013200000000  0.5246430000000  0.5153210000000 1.0
C      1  0.5892430000000  0.4301290000000  0.4737210000000 1.0
C      1  0.4995130000000  0.4570360000000  0.5027790000000 1.0
C      1  0.4859770000000  0.4530200000000  0.5534490000000 1.0
C      1  0.4171480000000  0.5906570000000  0.5011460000000 1.0
C      1  0.5971220000000  0.4669510000000  0.4965880000000 1.0
C      1  0.4902050000000  0.4844170000000  0.5095830000000 1.0
C      1  0.4720760000000  0.4027490000000  0.5337790000000 1.0
C      1  0.5765440000000  0.5856380000000  0.5046130000000 1.0
C      1  0.5023600000000  0.5991270000000  0.4977070000000 1.0
C      1  0.4854980000000  0.5722760000000  0.4283360000000 1.0
C      1  0.4385380000000  0.4258760000000  0.5039910000000 1.0
C      1  0.5285480000000  0.5517120000000  0.4009870000000 1.0
C      1  0.5063420000000  0.4016230000000  0.4299190000000 1.0
C      1  0.4640670000000  0.4907120000000  0.5312380000000 1.0
C      1  0.4718900000000  0.4008260000000  0.4571190000000 1.0
C      1  0.4466380000000  0.5510850000000  0.5731210000000 1.0
C      1  0.3960950000000  0.4371420000000  0.5041740000000 1.0
C      1  0.4584120000000  0.4096380000000  0.4345720000000 1.0
C      1  0.5002610000000  0.5013760000000  0.4668790000000 1.0
C      1  0.5810660000000  0.4999690000000  0.5952320000000 1.0
C      1  0.4854530000000  0.5035510000000  0.6099950000000 1.0
C      1  0.4167470000000  0.4304390000000  0.4846550000000 1.0
C      1  0.3850970000000  0.4633350000000  0.5093690000000 1.0
C      1  0.4885650000000  0.4964720000000  0.4406990000000 1.0
C      1  0.5630000000000  0.4734500000000  0.4216780000000 1.0
C      1  0.4081840000000  0.5562870000000  0.4706380000000 1.0
C      1  0.3861930000000  0.4852540000000  0.4893080000000 1.0
C      1  0.5050790000000  0.5168230000000  0.4291460000000 1.0
C      1  0.5766970000000  0.4348200000000  0.5275060000000 1.0
C      1  0.5525680000000  0.5930180000000  0.4560170000000 1.0
C      1  0.4338860000000  0.4118910000000  0.5490870000000 1.0
C      1  0.4651670000000  0.4696490000000  0.5652620000000 1.0
C      1  0.4152190000000  0.4743210000000  0.5510960000000 1.0
C      1  0.5906560000000  0.5602990000000  0.5187780000000 1.0
C      1  0.5111570000000  0.5627880000000  0.4689330000000 1.0
C      1  0.4478780000000  0.5034920000000  0.5149050000000 1.0
C      1  0.4483580000000  0.5677120000000  0.5305930000000 1.0
C      1  0.4601720000000  0.5570880000000  0.4780930000000 1.0
C      1  0.5529150000000  0.4781800000000  0.3927870000000 1.0
C      1  0.5493860000000  0.5135350000000  0.4726820000000 1.0
C      1  0.4814000000000  0.4308170000000  0.5343730000000 1.0
C      1  0.5236990000000  0.4905910000000  0.5560420000000 1.0
C      1  0.4170550000000  0.5263440000000  0.4249870000000 1.0
C      1  0.4920170000000  0.6055000000000  0.4694100000000 1.0
C      1  0.4589990000000  0.5280950000000  0.5082560000000 1.0
C      1  0.4355950000000  0.4888560000000  0.4930010000000 1.0
C      1  0.4206090000000  0.5189190000000  0.5608580000000 1.0
C      1  0.5474630000000  0.5402280000000  0.5073720000000 1.0
C      1  0.5167760000000  0.5814810000000  0.5883250000000 1.0
C      1  0.4437540000000  0.4355830000000  0.4440490000000 1.0
C      1  0.4067500000000  0.4365150000000  0.5321720000000 1.0
C      1  0.5726770000000  0.5129800000000  0.4913370000000 1.0
C      1  0.5545540000000  0.5378130000000  0.4581030000000 1.0
C      1  0.5617750000000  0.4317940000000  0.4617510000000 1.0
C      1  0.4944690000000  0.4855810000000  0.3886350000000 1.0
C      1  0.5807390000000  0.4519160000000  0.5513730000000 1.0
C      1  0.5128270000000  0.4575540000000  0.4338850000000 1.0
C      1  0.4380370000000  0.4549220000000  0.4232490000000 1.0
C      1  0.4058630000000  0.5613210000000  0.5431010000000 1.0
C      1  0.6030360000000  0.4759220000000  0.4467880000000 1.0
C      1  0.5379470000000  0.4527730000000  0.3948500000000 1.0
C      1  0.5316320000000  0.5111860000000  0.4194640000000 1.0
C      1  0.5911470000000  0.4398830000000  0.5021830000000 1.0
C      1  0.5357750000000  0.4177110000000  0.5008250000000 1.0
C      1  0.6002290000000  0.4739580000000  0.5543810000000 1.0
END
