TITL C-4164241-3639-223 64.4775002202837 125000 -25245.8153536352 0 0 170 (C1) n - 1
REM
REM in /home/nfs/bkarasulu/CARBON/AIRSS/Generating-Clusters/ReaxFF-fromJPCA2015/Units_Real/with-SteepDescent/Only-C1/SD-CG/Try1-3A/FIRE-CG
REM
REM
REM
REM
REM
REM ./C.cell (11c1c37f851c82e70ff6c80c92926a4b)
REM
REM compiler GCC version 9.2.1 20190827 (Red Hat 9.2.1-1)
REM options -cpp -mtune=generic -march=x86-64 -g -O0 -fpre-include=/usr/include/finclude/math-vector-fortran.h
REM seed -849194943 -589807674 870618468 1147425276 -1890188005 -1498387159 431424642 699191269 438963015 -1984171571 -62541921 -179317468 2010131622 -503301879 768637617 2045061922 -762508775 -316308822 1608506581 -1991155403 -2053598598 1056435698 1953520235 -1958858430 1198092572 1660222466 -556266382 870772596 1064702183 1969756561 -274090975 336284518 880511971
REM
CELL 1.54180   50.00000   50.00000   50.00000   90.00000   90.00000   90.00000
LATT -1
SFAC C  
C      1  0.5620830000000  0.4426660000000  0.4935110000000 1.0
C      1  0.5064720000000  0.3930850000000  0.4971470000000 1.0
C      1  0.4874060000000  0.4907470000000  0.6090260000000 1.0
C      1  0.4005570000000  0.4778340000000  0.4955780000000 1.0
C      1  0.4357070000000  0.4478260000000  0.4320500000000 1.0
C      1  0.4953660000000  0.6020070000000  0.5406410000000 1.0
C      1  0.5020360000000  0.5810020000000  0.5218620000000 1.0
C      1  0.4715610000000  0.5279100000000  0.6008800000000 1.0
C      1  0.3984590000000  0.4985220000000  0.5191890000000 1.0
C      1  0.4807590000000  0.4756670000000  0.4169280000000 1.0
C      1  0.5462440000000  0.4978310000000  0.5661930000000 1.0
C      1  0.6120520000000  0.5115400000000  0.4848160000000 1.0
C      1  0.6180300000000  0.4982210000000  0.5369260000000 1.0
C      1  0.5350450000000  0.5941150000000  0.5488790000000 1.0
C      1  0.4267020000000  0.4381900000000  0.4884440000000 1.0
C      1  0.5723690000000  0.5016480000000  0.4925980000000 1.0
C      1  0.5474870000000  0.4103060000000  0.4713720000000 1.0
C      1  0.4158590000000  0.4568320000000  0.5397560000000 1.0
C      1  0.5808830000000  0.4551900000000  0.5643410000000 1.0
C      1  0.5006190000000  0.4052890000000  0.4490760000000 1.0
C      1  0.5816360000000  0.5700720000000  0.5285950000000 1.0
C      1  0.5987040000000  0.4697320000000  0.5069510000000 1.0
C      1  0.4906300000000  0.5274330000000  0.5800200000000 1.0
C      1  0.4761780000000  0.4068030000000  0.5514770000000 1.0
C      1  0.4455930000000  0.4578280000000  0.4759750000000 1.0
C      1  0.4050270000000  0.4790950000000  0.4652780000000 1.0
C      1  0.5310130000000  0.4636540000000  0.5945820000000 1.0
C      1  0.5041920000000  0.4942420000000  0.5135430000000 1.0
C      1  0.5093340000000  0.5569520000000  0.4572560000000 1.0
C      1  0.4290770000000  0.5250510000000  0.4810770000000 1.0
C      1  0.6035290000000  0.4891020000000  0.5597580000000 1.0
C      1  0.5440770000000  0.5317580000000  0.5204190000000 1.0
C      1  0.5865880000000  0.4776370000000  0.5788440000000 1.0
C      1  0.5259350000000  0.5179420000000  0.4480210000000 1.0
C      1  0.5917500000000  0.5002630000000  0.4649870000000 1.0
C      1  0.5296950000000  0.5651290000000  0.4220680000000 1.0
C      1  0.4858070000000  0.5274240000000  0.5531100000000 1.0
C      1  0.5600620000000  0.5483650000000  0.5739550000000 1.0
C      1  0.5592200000000  0.4415070000000  0.5634840000000 1.0
C      1  0.5379170000000  0.4961710000000  0.4581360000000 1.0
C      1  0.4702320000000  0.4772720000000  0.5480980000000 1.0
C      1  0.3897770000000  0.5297730000000  0.5124920000000 1.0
C      1  0.5372720000000  0.5635410000000  0.5851540000000 1.0
C      1  0.5107690000000  0.5806070000000  0.4382590000000 1.0
C      1  0.5472210000000  0.4201210000000  0.5515560000000 1.0
C      1  0.4698790000000  0.4723740000000  0.5930260000000 1.0
C      1  0.4278320000000  0.5462170000000  0.5558230000000 1.0
C      1  0.5776520000000  0.5503980000000  0.5502510000000 1.0
C      1  0.4608450000000  0.4001440000000  0.4780220000000 1.0
C      1  0.4619440000000  0.5555940000000  0.5969940000000 1.0
C      1  0.4262930000000  0.4961170000000  0.5675580000000 1.0
C      1  0.6032770000000  0.5392930000000  0.4919700000000 1.0
C      1  0.4260090000000  0.5250130000000  0.5759510000000 1.0
C      1  0.4099510000000  0.4839440000000  0.5461950000000 1.0
C      1  0.4915600000000  0.5465470000000  0.4129750000000 1.0
C      1  0.4657220000000  0.3939560000000  0.5272180000000 1.0
C      1  0.4790340000000  0.4464760000000  0.5833820000000 1.0
C      1  0.4235680000000  0.5536180000000  0.4413190000000 1.0
C      1  0.5150270000000  0.4878980000000  0.3927390000000 1.0
C      1  0.5146220000000  0.4797590000000  0.6118960000000 1.0
C      1  0.6168870000000  0.4926910000000  0.5067160000000 1.0
C      1  0.5188730000000  0.4010500000000  0.4715020000000 1.0
C      1  0.4631630000000  0.4951010000000  0.5275400000000 1.0
C      1  0.4441930000000  0.4866950000000  0.4804750000000 1.0
C      1  0.5524380000000  0.5849110000000  0.4661280000000 1.0
C      1  0.4915200000000  0.5887740000000  0.5666290000000 1.0
C      1  0.5149560000000  0.4162030000000  0.4254780000000 1.0
C      1  0.5203730000000  0.5860160000000  0.5730010000000 1.0
C      1  0.4325840000000  0.4964910000000  0.4243650000000 1.0
C      1  0.4363280000000  0.4097750000000  0.4908910000000 1.0
C      1  0.5534110000000  0.5693500000000  0.4408790000000 1.0
C      1  0.4794810000000  0.5112280000000  0.4435860000000 1.0
C      1  0.5351710000000  0.5398280000000  0.4639670000000 1.0
C      1  0.5588780000000  0.4142690000000  0.4985960000000 1.0
C      1  0.4392380000000  0.5523050000000  0.4161090000000 1.0
C      1  0.5031930000000  0.4652980000000  0.5264580000000 1.0
C      1  0.5290060000000  0.5124420000000  0.4008500000000 1.0
C      1  0.5003100000000  0.5374410000000  0.4976670000000 1.0
C      1  0.4669780000000  0.5733190000000  0.5740030000000 1.0
C      1  0.4706500000000  0.4981200000000  0.4719920000000 1.0
C      1  0.5868380000000  0.4554190000000  0.4837770000000 1.0
C      1  0.4777620000000  0.3908630000000  0.4999400000000 1.0
C      1  0.4444070000000  0.5871660000000  0.5313490000000 1.0
C      1  0.4788960000000  0.5989490000000  0.4719350000000 1.0
C      1  0.4454850000000  0.4121470000000  0.5180980000000 1.0
C      1  0.4737060000000  0.5325400000000  0.5053120000000 1.0
C      1  0.5269570000000  0.5383320000000  0.5423180000000 1.0
C      1  0.5599510000000  0.4276410000000  0.4498430000000 1.0
C      1  0.4633830000000  0.5370300000000  0.4068910000000 1.0
C      1  0.5699960000000  0.5306100000000  0.5301890000000 1.0
C      1  0.5270780000000  0.4620210000000  0.4046340000000 1.0
C      1  0.5295460000000  0.5287930000000  0.4951470000000 1.0
C      1  0.4389550000000  0.4705780000000  0.4127860000000 1.0
C      1  0.4562590000000  0.4540290000000  0.5368120000000 1.0
C      1  0.5295340000000  0.5716850000000  0.5292000000000 1.0
C      1  0.5775490000000  0.5136700000000  0.4178050000000 1.0
C      1  0.5270070000000  0.6103450000000  0.5036660000000 1.0
C      1  0.4236300000000  0.5108240000000  0.5179670000000 1.0
C      1  0.4426320000000  0.5337520000000  0.5982040000000 1.0
C      1  0.4170080000000  0.5716930000000  0.4872980000000 1.0
C      1  0.4914160000000  0.4552480000000  0.4536450000000 1.0
C      1  0.4643530000000  0.5234520000000  0.5320960000000 1.0
C      1  0.5047260000000  0.4058260000000  0.5488340000000 1.0
C      1  0.4584860000000  0.5934140000000  0.5073680000000 1.0
C      1  0.5299240000000  0.6029080000000  0.4761450000000 1.0
C      1  0.5390790000000  0.5254060000000  0.5703090000000 1.0
C      1  0.4080610000000  0.5435100000000  0.4953950000000 1.0
C      1  0.4586940000000  0.4299010000000  0.4346210000000 1.0
C      1  0.5566270000000  0.5777050000000  0.5164140000000 1.0
C      1  0.5535150000000  0.4972910000000  0.4088360000000 1.0
C      1  0.4870490000000  0.4962930000000  0.4918430000000 1.0
C      1  0.4884830000000  0.5410670000000  0.4422290000000 1.0
C      1  0.5194360000000  0.5405260000000  0.4071600000000 1.0
C      1  0.5107570000000  0.5067930000000  0.6098840000000 1.0
C      1  0.5169920000000  0.5275760000000  0.5909650000000 1.0
C      1  0.5202860000000  0.4536800000000  0.4585340000000 1.0
C      1  0.4862550000000  0.4863580000000  0.3878150000000 1.0
C      1  0.4991090000000  0.4905430000000  0.4351870000000 1.0
C      1  0.4835460000000  0.4460270000000  0.4257680000000 1.0
C      1  0.4120810000000  0.4549110000000  0.4499910000000 1.0
C      1  0.4846180000000  0.5828850000000  0.4985260000000 1.0
C      1  0.4530320000000  0.4837860000000  0.5719170000000 1.0
C      1  0.4844480000000  0.4396260000000  0.4991110000000 1.0
C      1  0.5109460000000  0.4453180000000  0.5078310000000 1.0
C      1  0.5054080000000  0.6005890000000  0.4589260000000 1.0
C      1  0.5679340000000  0.5772650000000  0.4899590000000 1.0
C      1  0.4377320000000  0.4398880000000  0.5541200000000 1.0
C      1  0.5337560000000  0.4331790000000  0.4401420000000 1.0
C      1  0.5333700000000  0.4800390000000  0.5018670000000 1.0
C      1  0.5327010000000  0.4829780000000  0.5475170000000 1.0
C      1  0.4566280000000  0.5137770000000  0.4231360000000 1.0
C      1  0.5087430000000  0.4391000000000  0.4086850000000 1.0
C      1  0.5325140000000  0.4529680000000  0.4890410000000 1.0
C      1  0.5643960000000  0.5457870000000  0.4534050000000 1.0
C      1  0.5218710000000  0.4226630000000  0.5649800000000 1.0
C      1  0.5053450000000  0.5212260000000  0.5341290000000 1.0
C      1  0.4609530000000  0.4746680000000  0.3934600000000 1.0
C      1  0.4712070000000  0.4100600000000  0.4522960000000 1.0
C      1  0.5102390000000  0.4487380000000  0.5770290000000 1.0
C      1  0.5488190000000  0.4760670000000  0.5256100000000 1.0
C      1  0.5221710000000  0.4789760000000  0.4462940000000 1.0
C      1  0.4735110000000  0.4493320000000  0.4748110000000 1.0
C      1  0.5809150000000  0.5262560000000  0.5050090000000 1.0
C      1  0.4099450000000  0.4563570000000  0.5108480000000 1.0
C      1  0.4128180000000  0.5001620000000  0.4463580000000 1.0
C      1  0.4423580000000  0.4916150000000  0.5092100000000 1.0
C      1  0.5077080000000  0.4706430000000  0.5540980000000 1.0
C      1  0.4452130000000  0.5703780000000  0.5550180000000 1.0
C      1  0.4579510000000  0.5831120000000  0.4594220000000 1.0
C      1  0.4555910000000  0.5366250000000  0.4844960000000 1.0
C      1  0.4620720000000  0.4285900000000  0.5678000000000 1.0
C      1  0.5190070000000  0.3976730000000  0.5234350000000 1.0
C      1  0.4304290000000  0.5882810000000  0.5065490000000 1.0
C      1  0.5230280000000  0.6152390000000  0.5315610000000 1.0
C      1  0.5812910000000  0.5228530000000  0.4452560000000 1.0
C      1  0.4678360000000  0.5541270000000  0.4626070000000 1.0
C      1  0.5437840000000  0.5009510000000  0.4858210000000 1.0
C      1  0.4169430000000  0.5277160000000  0.4546820000000 1.0
C      1  0.5549960000000  0.4784140000000  0.5861000000000 1.0
C      1  0.5934060000000  0.5652700000000  0.5015670000000 1.0
C      1  0.5853360000000  0.4702790000000  0.4588600000000 1.0
C      1  0.5520310000000  0.4687850000000  0.4178820000000 1.0
C      1  0.5751150000000  0.4833010000000  0.5167910000000 1.0
C      1  0.4356050000000  0.5305690000000  0.5331340000000 1.0
C      1  0.5675100000000  0.4559370000000  0.4410380000000 1.0
C      1  0.4296490000000  0.5753530000000  0.4613790000000 1.0
C      1  0.5455090000000  0.4072250000000  0.5238090000000 1.0
C      1  0.4627720000000  0.4356380000000  0.5178780000000 1.0
C      1  0.4923120000000  0.5584010000000  0.4799040000000 1.0
C      1  0.4152990000000  0.4322570000000  0.4660270000000 1.0
END
