TITL C-4164247-2821-562 0.508593399015547 125000 -8643.40795027677 0 0 59 (C1) n - 1
REM
REM in /home/nfs/bkarasulu/CARBON/AIRSS/Generating-Clusters/ReaxFF-fromJPCA2015/Units_Real/with-SteepDescent/Only-C1/SD-CG/Try1-3A/FIRE-CG
REM
REM
REM
REM
REM
REM ./C.cell (11c1c37f851c82e70ff6c80c92926a4b)
REM
REM compiler GCC version 9.2.1 20190827 (Red Hat 9.2.1-1)
REM options -cpp -mtune=generic -march=x86-64 -g -O0 -fpre-include=/usr/include/finclude/math-vector-fortran.h
REM seed -141733510 -600973901 -700296042 650734334 53699486 763541251 335940797 -1345513657 1882825091 -1937840926 -1934240202 -1667382531 1091505020 -613299196 1166765721 1976564000 -1044314550 173803722 2125999315 292498179 -1142904442 -549806383 1354148571 208310488 -1673401116 1697627549 -707192235 164310405 -843221121 754293549 -1606138051 -202975681 -181615022
REM
CELL 1.54180   50.00000   50.00000   50.00000   90.00000   90.00000   90.00000
LATT -1
SFAC C  
C      1  0.4528010000000  0.5276260000000  0.4469030000000 1.0
C      1  0.4832440000000  0.5403980000000  0.4996420000000 1.0
C      1  0.5250740000000  0.5705130000000  0.4989100000000 1.0
C      1  0.5003290000000  0.4311480000000  0.4820190000000 1.0
C      1  0.4430090000000  0.5486250000000  0.4953320000000 1.0
C      1  0.5520410000000  0.5192760000000  0.5468110000000 1.0
C      1  0.5423330000000  0.5579820000000  0.5191380000000 1.0
C      1  0.4682330000000  0.5380990000000  0.5418430000000 1.0
C      1  0.5211780000000  0.5325950000000  0.4670310000000 1.0
C      1  0.5495790000000  0.4911290000000  0.5545620000000 1.0
C      1  0.4692430000000  0.5147120000000  0.5010040000000 1.0
C      1  0.5228800000000  0.4789440000000  0.5579010000000 1.0
C      1  0.5037370000000  0.5241190000000  0.4452240000000 1.0
C      1  0.5037490000000  0.4376840000000  0.4539670000000 1.0
C      1  0.4784060000000  0.4386990000000  0.5003860000000 1.0
C      1  0.5516260000000  0.4944750000000  0.4531310000000 1.0
C      1  0.4886040000000  0.5518720000000  0.5266110000000 1.0
C      1  0.5378030000000  0.4857910000000  0.4931630000000 1.0
C      1  0.5462430000000  0.4485010000000  0.4727030000000 1.0
C      1  0.4287640000000  0.4837000000000  0.5072630000000 1.0
C      1  0.4987250000000  0.4773090000000  0.5158770000000 1.0
C      1  0.4865610000000  0.4479840000000  0.5544240000000 1.0
C      1  0.5763310000000  0.4647720000000  0.5131940000000 1.0
C      1  0.4331380000000  0.5005950000000  0.5295410000000 1.0
C      1  0.5327580000000  0.5147020000000  0.4883810000000 1.0
C      1  0.5110040000000  0.5218870000000  0.5446710000000 1.0
C      1  0.5574950000000  0.5326150000000  0.5208090000000 1.0
C      1  0.4338920000000  0.4673380000000  0.4854310000000 1.0
C      1  0.5692250000000  0.4737350000000  0.5395560000000 1.0
C      1  0.4494560000000  0.5268530000000  0.5204140000000 1.0
C      1  0.4678150000000  0.5630970000000  0.4873290000000 1.0
C      1  0.4376760000000  0.4749240000000  0.4555680000000 1.0
C      1  0.5041320000000  0.5308650000000  0.5716790000000 1.0
C      1  0.5604620000000  0.5222480000000  0.4933700000000 1.0
C      1  0.5289310000000  0.4524870000000  0.4501190000000 1.0
C      1  0.4781210000000  0.4400290000000  0.4373400000000 1.0
C      1  0.5631440000000  0.4711290000000  0.4859990000000 1.0
C      1  0.4917330000000  0.4484340000000  0.5249300000000 1.0
C      1  0.5697780000000  0.5016530000000  0.4731840000000 1.0
C      1  0.5145570000000  0.5660090000000  0.5258300000000 1.0
C      1  0.4545970000000  0.4554560000000  0.4435840000000 1.0
C      1  0.4955620000000  0.4726330000000  0.5687650000000 1.0
C      1  0.5295240000000  0.4812330000000  0.4414430000000 1.0
C      1  0.5028580000000  0.4949060000000  0.4433600000000 1.0
C      1  0.4546910000000  0.4972620000000  0.4465380000000 1.0
C      1  0.4792230000000  0.4863520000000  0.4582350000000 1.0
C      1  0.4409410000000  0.5379170000000  0.4698380000000 1.0
C      1  0.5264690000000  0.4402130000000  0.4918580000000 1.0
C      1  0.5100600000000  0.4942840000000  0.5369680000000 1.0
C      1  0.4615820000000  0.4621860000000  0.4950140000000 1.0
C      1  0.5139690000000  0.5597980000000  0.4735060000000 1.0
C      1  0.4759290000000  0.5236240000000  0.5661660000000 1.0
C      1  0.5221820000000  0.4663510000000  0.5049700000000 1.0
C      1  0.4518090000000  0.4940880000000  0.5496060000000 1.0
C      1  0.5313970000000  0.5343770000000  0.5613150000000 1.0
C      1  0.4720990000000  0.4936490000000  0.5673410000000 1.0
C      1  0.4859600000000  0.5623230000000  0.4639870000000 1.0
C      1  0.4777590000000  0.4878730000000  0.4908720000000 1.0
C      1  0.4795810000000  0.5409200000000  0.4454390000000 1.0
END
