TITL C-4164245-3996-433 -1.60108593238572 125000 -5981.4139667134 0 0 42 (C1) n - 1
REM
REM in /home/nfs/bkarasulu/CARBON/AIRSS/Generating-Clusters/ReaxFF-fromJPCA2015/Units_Real/with-SteepDescent/Only-C1/SD-CG/Try1-3A/FIRE-CG
REM
REM
REM
REM
REM
REM ./C.cell (11c1c37f851c82e70ff6c80c92926a4b)
REM
REM compiler GCC version 9.2.1 20190827 (Red Hat 9.2.1-1)
REM options -cpp -mtune=generic -march=x86-64 -g -O0 -fpre-include=/usr/include/finclude/math-vector-fortran.h
REM seed -1665976360 -1607930898 -373746122 930972507 -1815859523 -99289988 1955502013 98835761 -1176167416 1657600876 -1989577003 -1842495215 1252494796 1085487811 -340969147 161540098 -642220664 -1119388905 546303018 1998394474 1247125666 848252175 -528317196 887559162 -1726693906 336458636 1174591602 -655439075 2043184133 552518096 -1165031524 -1458305618 1821060087
REM
CELL 1.54180   50.00000   50.00000   50.00000   90.00000   90.00000   90.00000
LATT -1
SFAC C  
C      1  0.4392700000000  0.5089880000000  0.4712900000000 1.0
C      1  0.5611420000000  0.5035530000000  0.5235520000000 1.0
C      1  0.4481020000000  0.4633080000000  0.4949220000000 1.0
C      1  0.4688180000000  0.5505710000000  0.5274030000000 1.0
C      1  0.5241820000000  0.4830350000000  0.4706440000000 1.0
C      1  0.5233030000000  0.4819300000000  0.4404350000000 1.0
C      1  0.5040390000000  0.4612240000000  0.4405000000000 1.0
C      1  0.5139270000000  0.4394900000000  0.4856960000000 1.0
C      1  0.4337270000000  0.4892790000000  0.4920450000000 1.0
C      1  0.5478400000000  0.4759620000000  0.5207070000000 1.0
C      1  0.5537650000000  0.5247370000000  0.4782580000000 1.0
C      1  0.4532110000000  0.4565920000000  0.5244600000000 1.0
C      1  0.5338690000000  0.4563580000000  0.4788520000000 1.0
C      1  0.4762240000000  0.4614130000000  0.4896570000000 1.0
C      1  0.4676170000000  0.5195650000000  0.5535510000000 1.0
C      1  0.4778490000000  0.5484750000000  0.5487630000000 1.0
C      1  0.5152000000000  0.5577280000000  0.4952060000000 1.0
C      1  0.4771680000000  0.4401890000000  0.5275160000000 1.0
C      1  0.4975670000000  0.4409490000000  0.4594960000000 1.0
C      1  0.5545680000000  0.5267680000000  0.5052130000000 1.0
C      1  0.4536110000000  0.4844260000000  0.5357580000000 1.0
C      1  0.5265980000000  0.5416810000000  0.5434490000000 1.0
C      1  0.4870660000000  0.5116880000000  0.5033330000000 1.0
C      1  0.5474780000000  0.4601960000000  0.4976530000000 1.0
C      1  0.4818660000000  0.5411050000000  0.4574000000000 1.0
C      1  0.5003930000000  0.4513490000000  0.5103840000000 1.0
C      1  0.5335300000000  0.5463740000000  0.5152560000000 1.0
C      1  0.5267110000000  0.5150200000000  0.5536830000000 1.0
C      1  0.4314660000000  0.4977730000000  0.5212820000000 1.0
C      1  0.4889060000000  0.5554080000000  0.4822130000000 1.0
C      1  0.5048320000000  0.5503310000000  0.5463320000000 1.0
C      1  0.5198310000000  0.4724780000000  0.5270380000000 1.0
C      1  0.5494790000000  0.5234170000000  0.4498050000000 1.0
C      1  0.4814140000000  0.5002420000000  0.5324840000000 1.0
C      1  0.5229710000000  0.5114490000000  0.4392240000000 1.0
C      1  0.4740440000000  0.4565120000000  0.4637630000000 1.0
C      1  0.5565920000000  0.5084990000000  0.5522510000000 1.0
C      1  0.5025580000000  0.5025540000000  0.4810050000000 1.0
C      1  0.5094270000000  0.4931100000000  0.5432430000000 1.0
C      1  0.5006710000000  0.5186290000000  0.4568020000000 1.0
C      1  0.4543770000000  0.5297120000000  0.4568960000000 1.0
C      1  0.4747910000000  0.5379340000000  0.5025760000000 1.0
END
