TITL C-4164237-1827-699 -1.50273921649765 125000 -16840.3801645229 0 0 114 (C1) n - 1
REM
REM in /home/nfs/bkarasulu/CARBON/AIRSS/Generating-Clusters/ReaxFF-fromJPCA2015/Units_Real/with-SteepDescent/Only-C1/SD-CG/Try1-3A/FIRE-CG
REM
REM
REM
REM
REM
REM ./C.cell (11c1c37f851c82e70ff6c80c92926a4b)
REM
REM compiler GCC version 9.2.1 20190827 (Red Hat 9.2.1-1)
REM options -cpp -mtune=generic -march=x86-64 -g -O0 -fpre-include=/usr/include/finclude/math-vector-fortran.h
REM seed 1137856727 -221064990 -408986246 -1434933222 -1494317173 -2105552195 1714676193 -2101990941 -480695539 167681287 324615868 -1457897817 793954081 -1979980582 -1779964703 625681092 273342250 17767501 1761135072 2023706869 542331325 -1147526832 -1038422370 1856856535 -565687072 898267991 -1013084427 1631190928 -763732467 1784285388 1600498345 -1859533732 970738841
REM
CELL 1.54180   50.00000   50.00000   50.00000   90.00000   90.00000   90.00000
LATT -1
SFAC C  
C      1  0.4693460000000  0.4857660000000  0.4935680000000 1.0
C      1  0.5328940000000  0.4180010000000  0.4680940000000 1.0
C      1  0.5049070000000  0.4463100000000  0.5909680000000 1.0
C      1  0.5077520000000  0.5797040000000  0.4709630000000 1.0
C      1  0.4407840000000  0.4829630000000  0.4155190000000 1.0
C      1  0.4155890000000  0.4931060000000  0.4530240000000 1.0
C      1  0.4191840000000  0.5463610000000  0.5142180000000 1.0
C      1  0.5161060000000  0.5759320000000  0.5002070000000 1.0
C      1  0.4359880000000  0.5105530000000  0.4096080000000 1.0
C      1  0.4424770000000  0.5477950000000  0.4705800000000 1.0
C      1  0.4441540000000  0.5635530000000  0.5424500000000 1.0
C      1  0.4988410000000  0.4511030000000  0.4436620000000 1.0
C      1  0.5175650000000  0.5679970000000  0.4461420000000 1.0
C      1  0.5434910000000  0.5810120000000  0.5212000000000 1.0
C      1  0.5233410000000  0.4386810000000  0.4277030000000 1.0
C      1  0.5524250000000  0.5595110000000  0.5675050000000 1.0
C      1  0.5306360000000  0.4698760000000  0.5271650000000 1.0
C      1  0.5198970000000  0.5136910000000  0.4149550000000 1.0
C      1  0.4829440000000  0.4445680000000  0.5718300000000 1.0
C      1  0.4649110000000  0.5793410000000  0.5015070000000 1.0
C      1  0.4712150000000  0.4383740000000  0.5145320000000 1.0
C      1  0.4986740000000  0.5558010000000  0.5503200000000 1.0
C      1  0.5802670000000  0.4773790000000  0.4561700000000 1.0
C      1  0.5556370000000  0.5485140000000  0.5237870000000 1.0
C      1  0.5333000000000  0.4723110000000  0.4778090000000 1.0
C      1  0.5184490000000  0.5134970000000  0.5368530000000 1.0
C      1  0.5813470000000  0.4491930000000  0.5214430000000 1.0
C      1  0.4222650000000  0.5436460000000  0.5432750000000 1.0
C      1  0.4995470000000  0.4294380000000  0.5527100000000 1.0
C      1  0.5263050000000  0.5397330000000  0.4160850000000 1.0
C      1  0.5645670000000  0.5173560000000  0.4303560000000 1.0
C      1  0.5494520000000  0.4715140000000  0.4174520000000 1.0
C      1  0.5450650000000  0.4341490000000  0.4456270000000 1.0
C      1  0.4616580000000  0.4647830000000  0.5678010000000 1.0
C      1  0.4780180000000  0.5703190000000  0.4730060000000 1.0
C      1  0.5110790000000  0.4140240000000  0.5037850000000 1.0
C      1  0.4206440000000  0.5285780000000  0.4704750000000 1.0
C      1  0.5454840000000  0.4615170000000  0.5028400000000 1.0
C      1  0.4545580000000  0.4781370000000  0.5398180000000 1.0
C      1  0.5775450000000  0.5063110000000  0.4537030000000 1.0
C      1  0.4249810000000  0.4934550000000  0.5402740000000 1.0
C      1  0.4495860000000  0.4498850000000  0.5314960000000 1.0
C      1  0.4612790000000  0.5249230000000  0.5185660000000 1.0
C      1  0.5255440000000  0.5937600000000  0.5395850000000 1.0
C      1  0.4893250000000  0.5860440000000  0.5141900000000 1.0
C      1  0.4621510000000  0.5191830000000  0.4127010000000 1.0
C      1  0.4940920000000  0.4235050000000  0.5253080000000 1.0
C      1  0.5398050000000  0.4915410000000  0.5439250000000 1.0
C      1  0.5211220000000  0.5191070000000  0.4671630000000 1.0
C      1  0.5046550000000  0.4730430000000  0.6048390000000 1.0
C      1  0.5485940000000  0.5419320000000  0.4345220000000 1.0
C      1  0.5699790000000  0.5442840000000  0.5492570000000 1.0
C      1  0.4837220000000  0.5430970000000  0.4834620000000 1.0
C      1  0.4320470000000  0.5185060000000  0.5560840000000 1.0
C      1  0.4546320000000  0.4364390000000  0.4688050000000 1.0
C      1  0.4260710000000  0.4702170000000  0.4406710000000 1.0
C      1  0.5476250000000  0.4377440000000  0.5596310000000 1.0
C      1  0.5050870000000  0.4780600000000  0.5153370000000 1.0
C      1  0.5302090000000  0.4511070000000  0.4009260000000 1.0
C      1  0.5158440000000  0.5483900000000  0.5063440000000 1.0
C      1  0.4948260000000  0.5001830000000  0.5871880000000 1.0
C      1  0.5461120000000  0.5002640000000  0.4151350000000 1.0
C      1  0.4234140000000  0.4697420000000  0.4935200000000 1.0
C      1  0.5020000000000  0.5466630000000  0.5783190000000 1.0
C      1  0.4352990000000  0.4595400000000  0.4665230000000 1.0
C      1  0.4643700000000  0.4968770000000  0.5188180000000 1.0
C      1  0.4608980000000  0.5569030000000  0.4501340000000 1.0
C      1  0.5880180000000  0.4774500000000  0.5099490000000 1.0
C      1  0.4990720000000  0.5842080000000  0.5412270000000 1.0
C      1  0.5049100000000  0.5055200000000  0.5131570000000 1.0
C      1  0.4590490000000  0.5360930000000  0.4915830000000 1.0
C      1  0.4820060000000  0.4300340000000  0.4603760000000 1.0
C      1  0.5071210000000  0.4618610000000  0.4714050000000 1.0
C      1  0.4640670000000  0.5014560000000  0.4700770000000 1.0
C      1  0.5474520000000  0.5829190000000  0.5504230000000 1.0
C      1  0.5791060000000  0.5161000000000  0.5482650000000 1.0
C      1  0.5615130000000  0.5198320000000  0.4769930000000 1.0
C      1  0.4674970000000  0.5432000000000  0.5430600000000 1.0
C      1  0.4741100000000  0.5430600000000  0.4282420000000 1.0
C      1  0.5229340000000  0.5418130000000  0.5320800000000 1.0
C      1  0.5476520000000  0.5201130000000  0.5842290000000 1.0
C      1  0.5069190000000  0.5024610000000  0.5654020000000 1.0
C      1  0.4156260000000  0.5214380000000  0.4988460000000 1.0
C      1  0.4502030000000  0.4284840000000  0.4964330000000 1.0
C      1  0.4697480000000  0.4875670000000  0.4135100000000 1.0
C      1  0.4807990000000  0.5273100000000  0.5858640000000 1.0
C      1  0.5823840000000  0.5061880000000  0.5206980000000 1.0
C      1  0.5314860000000  0.5450300000000  0.5835740000000 1.0
C      1  0.4341930000000  0.4574900000000  0.5685230000000 1.0
C      1  0.5843640000000  0.4771520000000  0.4835010000000 1.0
C      1  0.4582090000000  0.5267370000000  0.5664210000000 1.0
C      1  0.5608460000000  0.4364620000000  0.5038960000000 1.0
C      1  0.5056580000000  0.5268590000000  0.4922100000000 1.0
C      1  0.5589260000000  0.5009070000000  0.5642460000000 1.0
C      1  0.4919010000000  0.4777230000000  0.4285600000000 1.0
C      1  0.5690480000000  0.5271160000000  0.5076090000000 1.0
C      1  0.4779610000000  0.5072390000000  0.4495240000000 1.0
C      1  0.5606730000000  0.4591250000000  0.4403460000000 1.0
C      1  0.4111690000000  0.4698550000000  0.5589040000000 1.0
C      1  0.5422120000000  0.5390310000000  0.4630740000000 1.0
C      1  0.4189640000000  0.4943090000000  0.5094620000000 1.0
C      1  0.4402630000000  0.5696650000000  0.5144800000000 1.0
C      1  0.5024320000000  0.5501420000000  0.4250690000000 1.0
C      1  0.5401450000000  0.4162010000000  0.4964060000000 1.0
C      1  0.5035680000000  0.4157340000000  0.4748740000000 1.0
C      1  0.4881340000000  0.4631950000000  0.4952400000000 1.0
C      1  0.5386790000000  0.5005560000000  0.4765180000000 1.0
C      1  0.5209420000000  0.4675310000000  0.6232160000000 1.0
C      1  0.4309960000000  0.4464880000000  0.5089490000000 1.0
C      1  0.5038270000000  0.5046640000000  0.4405260000000 1.0
C      1  0.4378920000000  0.5091340000000  0.4569070000000 1.0
C      1  0.5670260000000  0.4431140000000  0.5444660000000 1.0
C      1  0.5156210000000  0.4550010000000  0.3790850000000 1.0
C      1  0.5231030000000  0.4316370000000  0.5711580000000 1.0
END
