TITL C-4164246-3563-675 110.207521222995 125000 -26324.4814125239 0 0 176 (C1) n - 1
REM
REM in /home/nfs/bkarasulu/CARBON/AIRSS/Generating-Clusters/ReaxFF-fromJPCA2015/Units_Real/with-SteepDescent/Only-C1/SD-CG/Try1-3A/FIRE-CG
REM
REM
REM
REM
REM
REM ./C.cell (11c1c37f851c82e70ff6c80c92926a4b)
REM
REM compiler GCC version 9.2.1 20190827 (Red Hat 9.2.1-1)
REM options -cpp -mtune=generic -march=x86-64 -g -O0 -fpre-include=/usr/include/finclude/math-vector-fortran.h
REM seed -385375321 -1486983381 -1981413308 -844951756 1869433145 1747594081 954739279 -785972642 -335502221 947962975 1137883333 -1171063913 -1905993256 1280369634 -127723509 201830265 -102922536 1521039796 -168599049 359540055 638176848 -1945945895 -1724882576 509631632 -1921634897 660166023 551004747 323188760 -1804164264 1055871779 1309705591 1967485461 1623953969
REM
CELL 1.54180   50.00000   50.00000   50.00000   90.00000   90.00000   90.00000
LATT -1
SFAC C  
C      1  0.4802720000000  0.5243450000000  0.4917170000000 1.0
C      1  0.4786770000000  0.4380020000000  0.5082050000000 1.0
C      1  0.5384120000000  0.6030430000000  0.5197150000000 1.0
C      1  0.5272370000000  0.4276370000000  0.5634570000000 1.0
C      1  0.4923350000000  0.5552570000000  0.4128810000000 1.0
C      1  0.6349070000000  0.4941500000000  0.5007650000000 1.0
C      1  0.5565620000000  0.4207760000000  0.4468230000000 1.0
C      1  0.5797860000000  0.4738910000000  0.5796470000000 1.0
C      1  0.5548590000000  0.4836430000000  0.4273760000000 1.0
C      1  0.5462050000000  0.4955600000000  0.6109500000000 1.0
C      1  0.4294960000000  0.5052990000000  0.5755160000000 1.0
C      1  0.4339610000000  0.5247430000000  0.4843860000000 1.0
C      1  0.4079450000000  0.5591490000000  0.4887420000000 1.0
C      1  0.5431860000000  0.5603040000000  0.5586870000000 1.0
C      1  0.4801760000000  0.5600050000000  0.5072440000000 1.0
C      1  0.4935020000000  0.4924680000000  0.5195620000000 1.0
C      1  0.5228490000000  0.4938220000000  0.5514360000000 1.0
C      1  0.4668200000000  0.4354220000000  0.4539670000000 1.0
C      1  0.5690760000000  0.4662100000000  0.4470210000000 1.0
C      1  0.4647220000000  0.5633500000000  0.5906290000000 1.0
C      1  0.4840780000000  0.4806640000000  0.4473930000000 1.0
C      1  0.4549720000000  0.4635150000000  0.5301620000000 1.0
C      1  0.5080640000000  0.4437300000000  0.5034180000000 1.0
C      1  0.4876510000000  0.6110030000000  0.5048510000000 1.0
C      1  0.4902500000000  0.4862330000000  0.4911170000000 1.0
C      1  0.4617350000000  0.4844250000000  0.5977450000000 1.0
C      1  0.5553190000000  0.4628400000000  0.4728460000000 1.0
C      1  0.5034680000000  0.4030740000000  0.4659370000000 1.0
C      1  0.5317810000000  0.4706120000000  0.6152360000000 1.0
C      1  0.5264290000000  0.4528860000000  0.4735660000000 1.0
C      1  0.4045290000000  0.5107230000000  0.5649860000000 1.0
C      1  0.4551730000000  0.5757550000000  0.5054080000000 1.0
C      1  0.4407360000000  0.5537260000000  0.5765220000000 1.0
C      1  0.4133880000000  0.4595950000000  0.4880680000000 1.0
C      1  0.5657370000000  0.5737330000000  0.5471290000000 1.0
C      1  0.4421090000000  0.4577430000000  0.5584380000000 1.0
C      1  0.5038430000000  0.4747580000000  0.6159780000000 1.0
C      1  0.5477760000000  0.5401750000000  0.5785080000000 1.0
C      1  0.5825760000000  0.5306430000000  0.4932420000000 1.0
C      1  0.5735810000000  0.5044140000000  0.4319020000000 1.0
C      1  0.4638940000000  0.4722740000000  0.4838700000000 1.0
C      1  0.5073190000000  0.4852910000000  0.3868570000000 1.0
C      1  0.5703730000000  0.4018170000000  0.4667650000000 1.0
C      1  0.4687480000000  0.4374570000000  0.5628950000000 1.0
C      1  0.4179950000000  0.4456850000000  0.5449860000000 1.0
C      1  0.5273350000000  0.5171850000000  0.5364790000000 1.0
C      1  0.5243830000000  0.5380620000000  0.4463530000000 1.0
C      1  0.4374920000000  0.4795540000000  0.4768050000000 1.0
C      1  0.5536130000000  0.3933800000000  0.4889710000000 1.0
C      1  0.4357150000000  0.4697250000000  0.4215390000000 1.0
C      1  0.4601330000000  0.5348970000000  0.4758420000000 1.0
C      1  0.5645220000000  0.5920800000000  0.5241300000000 1.0
C      1  0.4019560000000  0.5140120000000  0.5237260000000 1.0
C      1  0.4410330000000  0.4805180000000  0.5790360000000 1.0
C      1  0.5079920000000  0.5322100000000  0.4012900000000 1.0
C      1  0.4696590000000  0.5404270000000  0.6091040000000 1.0
C      1  0.4815740000000  0.5316880000000  0.5178600000000 1.0
C      1  0.5978640000000  0.4770810000000  0.5559920000000 1.0
C      1  0.4924720000000  0.4036360000000  0.5380940000000 1.0
C      1  0.3979020000000  0.4649220000000  0.5358040000000 1.0
C      1  0.5169130000000  0.4027740000000  0.5496890000000 1.0
C      1  0.4373360000000  0.5813460000000  0.4566600000000 1.0
C      1  0.4988560000000  0.5692170000000  0.4849530000000 1.0
C      1  0.4003340000000  0.4583070000000  0.4607700000000 1.0
C      1  0.4582800000000  0.5955260000000  0.4434300000000 1.0
C      1  0.5627580000000  0.5393940000000  0.5130190000000 1.0
C      1  0.4996810000000  0.4584300000000  0.3955780000000 1.0
C      1  0.5142680000000  0.4334800000000  0.5886050000000 1.0
C      1  0.5692470000000  0.4733370000000  0.4962990000000 1.0
C      1  0.4650990000000  0.4426960000000  0.4826410000000 1.0
C      1  0.4991160000000  0.5517200000000  0.4561700000000 1.0
C      1  0.5054750000000  0.4656570000000  0.5281500000000 1.0
C      1  0.5844220000000  0.5518880000000  0.5387410000000 1.0
C      1  0.5125700000000  0.4284580000000  0.4333500000000 1.0
C      1  0.5476830000000  0.4477540000000  0.4073530000000 1.0
C      1  0.4138500000000  0.4352590000000  0.4494140000000 1.0
C      1  0.4663500000000  0.5977450000000  0.5217670000000 1.0
C      1  0.5828030000000  0.5812330000000  0.5031310000000 1.0
C      1  0.4294470000000  0.4391650000000  0.4243050000000 1.0
C      1  0.5770000000000  0.5658930000000  0.4508930000000 1.0
C      1  0.5729250000000  0.5806370000000  0.4742750000000 1.0
C      1  0.5286200000000  0.5148980000000  0.4876200000000 1.0
C      1  0.5123000000000  0.5043680000000  0.5756510000000 1.0
C      1  0.5390550000000  0.5218520000000  0.3985800000000 1.0
C      1  0.4635870000000  0.5048040000000  0.3975670000000 1.0
C      1  0.3955280000000  0.4923870000000  0.5445070000000 1.0
C      1  0.5222080000000  0.5292540000000  0.5854720000000 1.0
C      1  0.5187550000000  0.4416780000000  0.4096720000000 1.0
C      1  0.5436060000000  0.4748650000000  0.5434110000000 1.0
C      1  0.5213660000000  0.3938220000000  0.4839030000000 1.0
C      1  0.4506810000000  0.5248680000000  0.4145850000000 1.0
C      1  0.6049830000000  0.5054460000000  0.5451640000000 1.0
C      1  0.5377010000000  0.5546450000000  0.5133540000000 1.0
C      1  0.4844160000000  0.5093750000000  0.4403410000000 1.0
C      1  0.5416610000000  0.5172910000000  0.4631210000000 1.0
C      1  0.6092050000000  0.5361750000000  0.5041160000000 1.0
C      1  0.4216570000000  0.4305050000000  0.4988710000000 1.0
C      1  0.5413830000000  0.5592770000000  0.4294960000000 1.0
C      1  0.5288820000000  0.5693340000000  0.4911390000000 1.0
C      1  0.4124670000000  0.5598680000000  0.5442950000000 1.0
C      1  0.4291270000000  0.4256640000000  0.5276510000000 1.0
C      1  0.4483540000000  0.5727970000000  0.4309240000000 1.0
C      1  0.5421870000000  0.5110640000000  0.5131560000000 1.0
C      1  0.5265170000000  0.5173820000000  0.6115820000000 1.0
C      1  0.5226050000000  0.5460040000000  0.5409130000000 1.0
C      1  0.5277530000000  0.4940890000000  0.4436520000000 1.0
C      1  0.6005600000000  0.5621010000000  0.5152120000000 1.0
C      1  0.5530170000000  0.4742150000000  0.3983850000000 1.0
C      1  0.5871390000000  0.4498920000000  0.5117650000000 1.0
C      1  0.3975110000000  0.4864190000000  0.4528540000000 1.0
C      1  0.5325880000000  0.4006620000000  0.5249650000000 1.0
C      1  0.4911280000000  0.4527800000000  0.5496050000000 1.0
C      1  0.5113150000000  0.5155020000000  0.4319560000000 1.0
C      1  0.4739820000000  0.4134150000000  0.5236470000000 1.0
C      1  0.5712290000000  0.5227090000000  0.5776570000000 1.0
C      1  0.4631700000000  0.4618810000000  0.4418470000000 1.0
C      1  0.5527210000000  0.4834450000000  0.5185260000000 1.0
C      1  0.5834480000000  0.5029520000000  0.4813850000000 1.0
C      1  0.4709640000000  0.5111210000000  0.6078310000000 1.0
C      1  0.5700420000000  0.5536990000000  0.4263270000000 1.0
C      1  0.5017360000000  0.5769390000000  0.4355410000000 1.0
C      1  0.4640950000000  0.5517600000000  0.4169700000000 1.0
C      1  0.4360310000000  0.5050460000000  0.4632960000000 1.0
C      1  0.6194470000000  0.5135140000000  0.5211130000000 1.0
C      1  0.3936920000000  0.4722830000000  0.5077820000000 1.0
C      1  0.5938310000000  0.4573030000000  0.5370700000000 1.0
C      1  0.4762050000000  0.5334890000000  0.4527240000000 1.0
C      1  0.4151510000000  0.4911290000000  0.4306210000000 1.0
C      1  0.3988910000000  0.5337970000000  0.5477300000000 1.0
C      1  0.5660650000000  0.4425710000000  0.4299160000000 1.0
C      1  0.5309620000000  0.5824840000000  0.4425420000000 1.0
C      1  0.4539730000000  0.4772060000000  0.3989650000000 1.0
C      1  0.4444150000000  0.4876970000000  0.5178830000000 1.0
C      1  0.5898000000000  0.5268020000000  0.5561260000000 1.0
C      1  0.4851420000000  0.4389620000000  0.5886310000000 1.0
C      1  0.5141120000000  0.6090360000000  0.5134570000000 1.0
C      1  0.4951310000000  0.5454170000000  0.5608700000000 1.0
C      1  0.5607260000000  0.4516630000000  0.5803440000000 1.0
C      1  0.4896820000000  0.4166860000000  0.4458550000000 1.0
C      1  0.5773400000000  0.4252530000000  0.5194510000000 1.0
C      1  0.4649860000000  0.5841210000000  0.5472770000000 1.0
C      1  0.5357170000000  0.4949430000000  0.3880100000000 1.0
C      1  0.4850470000000  0.5968380000000  0.4510830000000 1.0
C      1  0.4555800000000  0.4339210000000  0.4140730000000 1.0
C      1  0.3924210000000  0.5084740000000  0.4735520000000 1.0
C      1  0.5630480000000  0.5261170000000  0.4142690000000 1.0
C      1  0.4688870000000  0.4881990000000  0.5337480000000 1.0
C      1  0.5012620000000  0.5107560000000  0.4819540000000 1.0
C      1  0.4542500000000  0.4166760000000  0.5398410000000 1.0
C      1  0.4082760000000  0.5610590000000  0.5167190000000 1.0
C      1  0.4825240000000  0.5709950000000  0.5674190000000 1.0
C      1  0.3878730000000  0.4995220000000  0.5006260000000 1.0
C      1  0.4807400000000  0.4631460000000  0.6041090000000 1.0
C      1  0.4930300000000  0.5991510000000  0.4785130000000 1.0
C      1  0.5620150000000  0.4021230000000  0.5167540000000 1.0
C      1  0.5687250000000  0.4974740000000  0.5925490000000 1.0
C      1  0.5695830000000  0.5132130000000  0.4589400000000 1.0
C      1  0.5381500000000  0.4473170000000  0.5993880000000 1.0
C      1  0.5111580000000  0.4748010000000  0.4583700000000 1.0
C      1  0.4438410000000  0.5617440000000  0.5478040000000 1.0
C      1  0.4553370000000  0.5323400000000  0.5333210000000 1.0
C      1  0.4915610000000  0.5091150000000  0.3901350000000 1.0
C      1  0.4078160000000  0.5328460000000  0.4751950000000 1.0
C      1  0.4318070000000  0.5141990000000  0.4345470000000 1.0
C      1  0.4706170000000  0.4531970000000  0.3980990000000 1.0
C      1  0.6130200000000  0.4993880000000  0.4832290000000 1.0
C      1  0.4722420000000  0.5266490000000  0.5575940000000 1.0
C      1  0.4332630000000  0.5751260000000  0.4846660000000 1.0
C      1  0.4490680000000  0.5251060000000  0.5767940000000 1.0
C      1  0.5026870000000  0.5006680000000  0.6056130000000 1.0
C      1  0.5305020000000  0.4313480000000  0.4533490000000 1.0
C      1  0.5433310000000  0.5831930000000  0.4693130000000 1.0
C      1  0.5177800000000  0.4155840000000  0.5035750000000 1.0
C      1  0.4218370000000  0.4171090000000  0.4730930000000 1.0
C      1  0.4344170000000  0.5148560000000  0.5170810000000 1.0
C      1  0.5471910000000  0.4480030000000  0.5550380000000 1.0
END
