TITL C-4164247-2821-136 2.76698725223072 125000 -8206.31040909805 0 0 55 (C1) n - 1
REM
REM in /home/nfs/bkarasulu/CARBON/AIRSS/Generating-Clusters/ReaxFF-fromJPCA2015/Units_Real/with-SteepDescent/Only-C1/SD-CG/Try1-3A/FIRE-CG
REM
REM
REM
REM
REM
REM ./C.cell (11c1c37f851c82e70ff6c80c92926a4b)
REM
REM compiler GCC version 9.2.1 20190827 (Red Hat 9.2.1-1)
REM options -cpp -mtune=generic -march=x86-64 -g -O0 -fpre-include=/usr/include/finclude/math-vector-fortran.h
REM seed 1668557577 784408934 202536178 -646415701 -1960858232 300394042 996986611 576139570 -1427928695 1327581655 -354611679 -1127476288 -1604464602 -961243129 1904056976 593087208 -1591942376 -1484807607 1242193328 1291107760 -1484882670 -1349725441 1559571751 2121039717 -726846382 1230027834 904093258 1194202163 636259265 1031778915 -2038843675 -1064871504 864099612
REM
CELL 1.54180   50.00000   50.00000   50.00000   90.00000   90.00000   90.00000
LATT -1
SFAC C  
C      1  0.5465350000000  0.5004340000000  0.5453860000000 1.0
C      1  0.4791390000000  0.5035820000000  0.4809970000000 1.0
C      1  0.5458670000000  0.4494550000000  0.4926460000000 1.0
C      1  0.5343150000000  0.4672590000000  0.4702950000000 1.0
C      1  0.4289580000000  0.5022830000000  0.5007290000000 1.0
C      1  0.4702840000000  0.5413450000000  0.5504430000000 1.0
C      1  0.4956420000000  0.4370080000000  0.4921840000000 1.0
C      1  0.5370450000000  0.4743260000000  0.5538560000000 1.0
C      1  0.5246520000000  0.5176640000000  0.5566800000000 1.0
C      1  0.4928350000000  0.5550550000000  0.5379550000000 1.0
C      1  0.4900320000000  0.5614700000000  0.4586000000000 1.0
C      1  0.4472210000000  0.5063920000000  0.5568770000000 1.0
C      1  0.5160520000000  0.5526390000000  0.4477620000000 1.0
C      1  0.5036170000000  0.4471440000000  0.5483130000000 1.0
C      1  0.4807220000000  0.5188110000000  0.4285960000000 1.0
C      1  0.4668250000000  0.4721520000000  0.4756380000000 1.0
C      1  0.4555800000000  0.4606300000000  0.5011310000000 1.0
C      1  0.5188820000000  0.4815230000000  0.4937150000000 1.0
C      1  0.4889060000000  0.4519000000000  0.4683970000000 1.0
C      1  0.5397230000000  0.5530940000000  0.4831900000000 1.0
C      1  0.5589310000000  0.4650920000000  0.5137670000000 1.0
C      1  0.5531650000000  0.5140250000000  0.4686470000000 1.0
C      1  0.5601740000000  0.5147850000000  0.4976010000000 1.0
C      1  0.4421410000000  0.4771850000000  0.4564160000000 1.0
C      1  0.5069120000000  0.4909000000000  0.5150440000000 1.0
C      1  0.5188710000000  0.5453430000000  0.5485700000000 1.0
C      1  0.4950400000000  0.4959300000000  0.4212800000000 1.0
C      1  0.5323110000000  0.5494760000000  0.5237610000000 1.0
C      1  0.4925950000000  0.5631630000000  0.5098900000000 1.0
C      1  0.4727760000000  0.4396670000000  0.5108410000000 1.0
C      1  0.5411300000000  0.5391910000000  0.4584750000000 1.0
C      1  0.4752550000000  0.5616440000000  0.4859660000000 1.0
C      1  0.4375260000000  0.5286090000000  0.5105650000000 1.0
C      1  0.5489530000000  0.4523880000000  0.5382070000000 1.0
C      1  0.4749240000000  0.5160820000000  0.5653370000000 1.0
C      1  0.5101490000000  0.4594560000000  0.4508610000000 1.0
C      1  0.4452840000000  0.5305220000000  0.5391390000000 1.0
C      1  0.4370250000000  0.4780720000000  0.5156490000000 1.0
C      1  0.4799020000000  0.5142890000000  0.4561120000000 1.0
C      1  0.5231080000000  0.4345470000000  0.5034880000000 1.0
C      1  0.4910240000000  0.5476280000000  0.4330110000000 1.0
C      1  0.4775070000000  0.4358490000000  0.5408340000000 1.0
C      1  0.5259640000000  0.4352720000000  0.5325420000000 1.0
C      1  0.4256440000000  0.4962140000000  0.4712190000000 1.0
C      1  0.5581890000000  0.4944800000000  0.5184900000000 1.0
C      1  0.4392020000000  0.4801070000000  0.5455570000000 1.0
C      1  0.4962060000000  0.5148590000000  0.5016140000000 1.0
C      1  0.5545910000000  0.5423740000000  0.5058350000000 1.0
C      1  0.4500820000000  0.5481390000000  0.4918530000000 1.0
C      1  0.5488810000000  0.4897410000000  0.4539740000000 1.0
C      1  0.5007130000000  0.5027570000000  0.5637810000000 1.0
C      1  0.5072220000000  0.4783610000000  0.5470530000000 1.0
C      1  0.5320440000000  0.4892890000000  0.4318080000000 1.0
C      1  0.5132370000000  0.5437960000000  0.5012720000000 1.0
C      1  0.5104920000000  0.4765970000000  0.4281530000000 1.0
END
