TITL C-4164233-775-718 67.3952822334903 125000 -23723.9751577323 0 0 161 (C1) n - 1
REM
REM in /home/nfs/bkarasulu/CARBON/AIRSS/Generating-Clusters/ReaxFF-fromJPCA2015/Units_Real/with-SteepDescent/Only-C1/SD-CG/Try1-3A/FIRE-CG
REM
REM
REM
REM
REM
REM ./C.cell (11c1c37f851c82e70ff6c80c92926a4b)
REM
REM compiler GCC version 9.2.1 20190827 (Red Hat 9.2.1-1)
REM options -cpp -mtune=generic -march=x86-64 -g -O0 -fpre-include=/usr/include/finclude/math-vector-fortran.h
REM seed -2034387236 1397253603 593273381 526369804 1061796353 -1656241097 756160174 880847542 -1980188961 -1100809985 -1282189927 409829652 -106960481 415404074 141320261 628967230 758315630 -351444397 -2072093789 191559120 1086634286 -559616021 231828868 1958214178 51885443 155227423 1271487276 2133890731 1137901562 -427407963 -1183873675 -1723639239 -1527102914
REM
CELL 1.54180   50.00000   50.00000   50.00000   90.00000   90.00000   90.00000
LATT -1
SFAC C  
C      1  0.4749700000000  0.5267180000000  0.4706510000000 1.0
C      1  0.5646090000000  0.4950510000000  0.4867750000000 1.0
C      1  0.5286420000000  0.6002720000000  0.4625180000000 1.0
C      1  0.5756630000000  0.4476510000000  0.5772700000000 1.0
C      1  0.4967960000000  0.5744060000000  0.5192120000000 1.0
C      1  0.4585360000000  0.5934610000000  0.5149260000000 1.0
C      1  0.5785220000000  0.5672770000000  0.5011490000000 1.0
C      1  0.4494390000000  0.5084720000000  0.4047670000000 1.0
C      1  0.5377790000000  0.5462470000000  0.5882940000000 1.0
C      1  0.4545410000000  0.5939820000000  0.4870310000000 1.0
C      1  0.5180850000000  0.5139170000000  0.4982380000000 1.0
C      1  0.5347830000000  0.5886360000000  0.4347200000000 1.0
C      1  0.5141240000000  0.5811310000000  0.4161590000000 1.0
C      1  0.4963870000000  0.4134060000000  0.4657770000000 1.0
C      1  0.4496950000000  0.5733920000000  0.4316420000000 1.0
C      1  0.5147710000000  0.4489630000000  0.4211030000000 1.0
C      1  0.5175080000000  0.5071180000000  0.5623570000000 1.0
C      1  0.5101800000000  0.4020830000000  0.4912730000000 1.0
C      1  0.4923240000000  0.4082420000000  0.5489860000000 1.0
C      1  0.5810190000000  0.5135090000000  0.4407870000000 1.0
C      1  0.4663760000000  0.4969690000000  0.5522290000000 1.0
C      1  0.3977340000000  0.5011220000000  0.4680590000000 1.0
C      1  0.4763530000000  0.5051160000000  0.4008840000000 1.0
C      1  0.4215880000000  0.5548220000000  0.5184400000000 1.0
C      1  0.4146300000000  0.4588760000000  0.4991660000000 1.0
C      1  0.5362030000000  0.4874690000000  0.5643620000000 1.0
C      1  0.4147200000000  0.5036160000000  0.5698040000000 1.0
C      1  0.4958840000000  0.4483980000000  0.5270200000000 1.0
C      1  0.4847270000000  0.5114020000000  0.5972930000000 1.0
C      1  0.4458900000000  0.4025400000000  0.5357300000000 1.0
C      1  0.4507280000000  0.5702760000000  0.5545490000000 1.0
C      1  0.4962650000000  0.4951390000000  0.4117600000000 1.0
C      1  0.4392750000000  0.5199970000000  0.4937300000000 1.0
C      1  0.4839300000000  0.3923070000000  0.5001940000000 1.0
C      1  0.5684290000000  0.5817020000000  0.4788970000000 1.0
C      1  0.5193020000000  0.5364360000000  0.4026610000000 1.0
C      1  0.4801500000000  0.4538700000000  0.5754320000000 1.0
C      1  0.4042550000000  0.5155340000000  0.5460090000000 1.0
C      1  0.5337740000000  0.4984070000000  0.4492440000000 1.0
C      1  0.4546430000000  0.5296430000000  0.4245410000000 1.0
C      1  0.5862080000000  0.4449580000000  0.4793080000000 1.0
C      1  0.5835290000000  0.4600100000000  0.4526960000000 1.0
C      1  0.4732110000000  0.5353060000000  0.5862700000000 1.0
C      1  0.5502730000000  0.5652590000000  0.4295360000000 1.0
C      1  0.5014740000000  0.4817830000000  0.4715880000000 1.0
C      1  0.5409990000000  0.4669390000000  0.5446370000000 1.0
C      1  0.5023700000000  0.5956790000000  0.4736240000000 1.0
C      1  0.4624770000000  0.4838880000000  0.5009360000000 1.0
C      1  0.3989530000000  0.4725900000000  0.4651430000000 1.0
C      1  0.3972210000000  0.5177800000000  0.4944610000000 1.0
C      1  0.4168540000000  0.5088850000000  0.4471130000000 1.0
C      1  0.6047950000000  0.4734510000000  0.5200000000000 1.0
C      1  0.5357650000000  0.5402810000000  0.5426320000000 1.0
C      1  0.4673880000000  0.4566650000000  0.4163850000000 1.0
C      1  0.5836480000000  0.5102240000000  0.5527830000000 1.0
C      1  0.5024230000000  0.4279210000000  0.4382510000000 1.0
C      1  0.5107720000000  0.5155330000000  0.4421610000000 1.0
C      1  0.4175370000000  0.5546430000000  0.4703440000000 1.0
C      1  0.5207940000000  0.4119110000000  0.5425850000000 1.0
C      1  0.4322910000000  0.4275730000000  0.5272660000000 1.0
C      1  0.3900590000000  0.4582140000000  0.5441870000000 1.0
C      1  0.4867930000000  0.5955920000000  0.5340140000000 1.0
C      1  0.5625500000000  0.5752010000000  0.5247550000000 1.0
C      1  0.5180000000000  0.6055830000000  0.5306000000000 1.0
C      1  0.4362520000000  0.5301040000000  0.5198950000000 1.0
C      1  0.4471280000000  0.4734500000000  0.4288800000000 1.0
C      1  0.5281550000000  0.4498400000000  0.4991540000000 1.0
C      1  0.5449350000000  0.5404960000000  0.4143020000000 1.0
C      1  0.5412870000000  0.4350020000000  0.4791040000000 1.0
C      1  0.5610530000000  0.4522970000000  0.4353280000000 1.0
C      1  0.5214990000000  0.5225670000000  0.5861860000000 1.0
C      1  0.4231870000000  0.4282740000000  0.4996600000000 1.0
C      1  0.5921220000000  0.4881070000000  0.4509420000000 1.0
C      1  0.5289430000000  0.4466870000000  0.5847750000000 1.0
C      1  0.5009220000000  0.4871810000000  0.6042260000000 1.0
C      1  0.5287450000000  0.4072020000000  0.5142740000000 1.0
C      1  0.4293880000000  0.4783960000000  0.5768840000000 1.0
C      1  0.5535510000000  0.4612190000000  0.5916180000000 1.0
C      1  0.3979570000000  0.5034380000000  0.5193560000000 1.0
C      1  0.5595670000000  0.5144620000000  0.4197350000000 1.0
C      1  0.4048730000000  0.5465220000000  0.4951620000000 1.0
C      1  0.4390750000000  0.4126310000000  0.4808280000000 1.0
C      1  0.4982250000000  0.5581340000000  0.4066010000000 1.0
C      1  0.4829590000000  0.5325600000000  0.5225800000000 1.0
C      1  0.3963170000000  0.4735200000000  0.5174920000000 1.0
C      1  0.5503120000000  0.4923060000000  0.5908090000000 1.0
C      1  0.5246430000000  0.5032890000000  0.6058390000000 1.0
C      1  0.5740520000000  0.4307590000000  0.5252970000000 1.0
C      1  0.4407430000000  0.5733020000000  0.4630380000000 1.0
C      1  0.4110630000000  0.4492070000000  0.4595870000000 1.0
C      1  0.4214660000000  0.5294570000000  0.5644850000000 1.0
C      1  0.5153720000000  0.5615340000000  0.5827600000000 1.0
C      1  0.5114400000000  0.5389170000000  0.5295330000000 1.0
C      1  0.4286070000000  0.5278360000000  0.4670700000000 1.0
C      1  0.5903970000000  0.5423880000000  0.4879120000000 1.0
C      1  0.5129190000000  0.5434290000000  0.4492800000000 1.0
C      1  0.4378440000000  0.4737090000000  0.5120610000000 1.0
C      1  0.4742040000000  0.4010090000000  0.5272300000000 1.0
C      1  0.5352090000000  0.5319710000000  0.5145220000000 1.0
C      1  0.4573820000000  0.4775490000000  0.5689110000000 1.0
C      1  0.5699020000000  0.5150040000000  0.5774630000000 1.0
C      1  0.4937620000000  0.4662300000000  0.4118910000000 1.0
C      1  0.4746090000000  0.4405340000000  0.5081100000000 1.0
C      1  0.5201160000000  0.5484070000000  0.4759470000000 1.0
C      1  0.5575970000000  0.5584900000000  0.5482830000000 1.0
C      1  0.4591810000000  0.4371500000000  0.4555510000000 1.0
C      1  0.5243570000000  0.4501830000000  0.5275690000000 1.0
C      1  0.4715340000000  0.4455630000000  0.4796850000000 1.0
C      1  0.4769350000000  0.4225210000000  0.5702110000000 1.0
C      1  0.5235010000000  0.4728710000000  0.4547410000000 1.0
C      1  0.4705870000000  0.4040840000000  0.4771020000000 1.0
C      1  0.4659270000000  0.5559850000000  0.4166570000000 1.0
C      1  0.5574800000000  0.4126030000000  0.5099490000000 1.0
C      1  0.5405840000000  0.5954210000000  0.5165590000000 1.0
C      1  0.4946910000000  0.4629600000000  0.5509160000000 1.0
C      1  0.4670010000000  0.5129930000000  0.4972480000000 1.0
C      1  0.5042650000000  0.5706610000000  0.4919720000000 1.0
C      1  0.5111300000000  0.4716360000000  0.4964480000000 1.0
C      1  0.4523920000000  0.4132400000000  0.5609650000000 1.0
C      1  0.4883110000000  0.5618960000000  0.5785250000000 1.0
C      1  0.4586430000000  0.4869630000000  0.4513740000000 1.0
C      1  0.5425940000000  0.4931510000000  0.4095920000000 1.0
C      1  0.5499030000000  0.5115830000000  0.4685040000000 1.0
C      1  0.5651000000000  0.4748040000000  0.5311450000000 1.0
C      1  0.5659870000000  0.5592960000000  0.4562320000000 1.0
C      1  0.4091540000000  0.4634920000000  0.5647180000000 1.0
C      1  0.4624790000000  0.5141900000000  0.4481060000000 1.0
C      1  0.4384000000000  0.5771510000000  0.5292120000000 1.0
C      1  0.5470060000000  0.5402060000000  0.4723480000000 1.0
C      1  0.4515280000000  0.4505900000000  0.5233050000000 1.0
C      1  0.5726770000000  0.5213930000000  0.5264380000000 1.0
C      1  0.5364200000000  0.4272500000000  0.5621390000000 1.0
C      1  0.5861260000000  0.5366850000000  0.4589610000000 1.0
C      1  0.4573430000000  0.5239520000000  0.5417890000000 1.0
C      1  0.4305660000000  0.4278230000000  0.4573850000000 1.0
C      1  0.4668570000000  0.5596760000000  0.4678940000000 1.0
C      1  0.4750140000000  0.4335340000000  0.4316130000000 1.0
C      1  0.5000090000000  0.5652580000000  0.4359350000000 1.0
C      1  0.5901140000000  0.4494340000000  0.5079150000000 1.0
C      1  0.5413640000000  0.4642010000000  0.4170430000000 1.0
C      1  0.5015110000000  0.5118740000000  0.4715260000000 1.0
C      1  0.5388600000000  0.4486730000000  0.4545550000000 1.0
C      1  0.4298050000000  0.4957520000000  0.4232160000000 1.0
C      1  0.5595950000000  0.4982860000000  0.5144870000000 1.0
C      1  0.4969070000000  0.4924460000000  0.5456130000000 1.0
C      1  0.5462320000000  0.5981850000000  0.4855140000000 1.0
C      1  0.4820990000000  0.5823240000000  0.4583310000000 1.0
C      1  0.5905220000000  0.4825240000000  0.5438780000000 1.0
C      1  0.5644460000000  0.5428890000000  0.5735170000000 1.0
C      1  0.5639020000000  0.4323780000000  0.5537430000000 1.0
C      1  0.5965310000000  0.5228000000000  0.5083310000000 1.0
C      1  0.4710290000000  0.4731980000000  0.4747860000000 1.0
C      1  0.4762360000000  0.5811970000000  0.5587220000000 1.0
C      1  0.5173800000000  0.5072720000000  0.3993540000000 1.0
C      1  0.4485710000000  0.5408860000000  0.5662750000000 1.0
C      1  0.5919250000000  0.4896850000000  0.4802850000000 1.0
C      1  0.6092610000000  0.4968200000000  0.5027170000000 1.0
C      1  0.5677540000000  0.4222050000000  0.4836560000000 1.0
C      1  0.4816870000000  0.5559540000000  0.5062870000000 1.0
C      1  0.5088010000000  0.4930450000000  0.5153960000000 1.0
C      1  0.5043900000000  0.4603440000000  0.5921410000000 1.0
END
