TITL C-4164235-1454-709 6.78584816925412 125000 -8786.31831713804 0 0 60 (C1) n - 1
REM
REM in /home/nfs/bkarasulu/CARBON/AIRSS/Generating-Clusters/ReaxFF-fromJPCA2015/Units_Real/with-SteepDescent/Only-C1/SD-CG/Try1-3A/FIRE-CG
REM
REM
REM
REM
REM
REM ./C.cell (11c1c37f851c82e70ff6c80c92926a4b)
REM
REM compiler GCC version 9.2.1 20190827 (Red Hat 9.2.1-1)
REM options -cpp -mtune=generic -march=x86-64 -g -O0 -fpre-include=/usr/include/finclude/math-vector-fortran.h
REM seed -810583579 1103238004 726751331 1139936293 1052566043 1481711838 1936477218 1819466450 1220394649 -928029478 1676038129 2030091513 1320952877 -146140066 756832528 -318586749 -465235609 -1562068640 872846818 -2086775017 1191240696 1999533070 1726621456 185138158 520986808 -2141890354 1691407662 -2036028141 -311053668 -4955474 -588664770 1601106763 817296719
REM
CELL 1.54180   50.00000   50.00000   50.00000   90.00000   90.00000   90.00000
LATT -1
SFAC C  
C      1  0.4497680000000  0.4456560000000  0.4989230000000 1.0
C      1  0.5460670000000  0.4476390000000  0.5180650000000 1.0
C      1  0.4671930000000  0.5531950000000  0.4474720000000 1.0
C      1  0.4796010000000  0.4870270000000  0.5563340000000 1.0
C      1  0.5263830000000  0.4545860000000  0.5397720000000 1.0
C      1  0.4399730000000  0.5230580000000  0.4821160000000 1.0
C      1  0.4340570000000  0.4962090000000  0.4923310000000 1.0
C      1  0.5274130000000  0.5611870000000  0.5219040000000 1.0
C      1  0.4769010000000  0.5017460000000  0.5043960000000 1.0
C      1  0.5520400000000  0.4682790000000  0.4540580000000 1.0
C      1  0.5612870000000  0.4908120000000  0.4665840000000 1.0
C      1  0.5363170000000  0.4474480000000  0.4669030000000 1.0
C      1  0.5301910000000  0.4806090000000  0.5534970000000 1.0
C      1  0.5323140000000  0.5480990000000  0.4659460000000 1.0
C      1  0.4565030000000  0.5261390000000  0.4573420000000 1.0
C      1  0.4485930000000  0.5014140000000  0.5170150000000 1.0
C      1  0.5184750000000  0.5075370000000  0.4829810000000 1.0
C      1  0.4457020000000  0.5417120000000  0.5054170000000 1.0
C      1  0.4752820000000  0.5147800000000  0.5657130000000 1.0
C      1  0.5093670000000  0.4422790000000  0.4565440000000 1.0
C      1  0.4582180000000  0.5343910000000  0.5524700000000 1.0
C      1  0.5057670000000  0.5115660000000  0.4544730000000 1.0
C      1  0.4736350000000  0.5569940000000  0.5418090000000 1.0
C      1  0.5003970000000  0.4669360000000  0.4452970000000 1.0
C      1  0.4917790000000  0.5661250000000  0.4936070000000 1.0
C      1  0.5163060000000  0.5406090000000  0.5381840000000 1.0
C      1  0.4991870000000  0.5315230000000  0.5721970000000 1.0
C      1  0.5122410000000  0.4203370000000  0.4953520000000 1.0
C      1  0.4737940000000  0.5624990000000  0.4727960000000 1.0
C      1  0.5580830000000  0.4729920000000  0.5165000000000 1.0
C      1  0.4792810000000  0.4762730000000  0.4916970000000 1.0
C      1  0.5459860000000  0.5058590000000  0.5564420000000 1.0
C      1  0.5489820000000  0.5278290000000  0.4573430000000 1.0
C      1  0.4757360000000  0.5056000000000  0.4529270000000 1.0
C      1  0.4743420000000  0.4768090000000  0.4608240000000 1.0
C      1  0.4358390000000  0.4668050000000  0.4817700000000 1.0
C      1  0.5001820000000  0.5155220000000  0.5014220000000 1.0
C      1  0.5121950000000  0.5412770000000  0.4424760000000 1.0
C      1  0.4756430000000  0.4633730000000  0.5390140000000 1.0
C      1  0.4661560000000  0.4631790000000  0.5121150000000 1.0
C      1  0.5247400000000  0.5188520000000  0.5697360000000 1.0
C      1  0.5066050000000  0.5171210000000  0.5267660000000 1.0
C      1  0.5639180000000  0.4997330000000  0.5122110000000 1.0
C      1  0.4985500000000  0.4456500000000  0.5361480000000 1.0
C      1  0.5182320000000  0.4883110000000  0.4390610000000 1.0
C      1  0.5008600000000  0.5554800000000  0.5530070000000 1.0
C      1  0.5594410000000  0.5212790000000  0.5329950000000 1.0
C      1  0.5452680000000  0.4997710000000  0.4882020000000 1.0
C      1  0.4938440000000  0.5515730000000  0.4353500000000 1.0
C      1  0.4411250000000  0.5266940000000  0.5300310000000 1.0
C      1  0.5206830000000  0.5586940000000  0.4929480000000 1.0
C      1  0.4720930000000  0.4276350000000  0.4945420000000 1.0
C      1  0.5052640000000  0.4934690000000  0.5440510000000 1.0
C      1  0.5471480000000  0.4968240000000  0.4423710000000 1.0
C      1  0.4934750000000  0.4245750000000  0.4742090000000 1.0
C      1  0.5502590000000  0.5442090000000  0.5195340000000 1.0
C      1  0.4685890000000  0.5590610000000  0.5133590000000 1.0
C      1  0.4927470000000  0.4252340000000  0.5157720000000 1.0
C      1  0.5359140000000  0.4354650000000  0.4929620000000 1.0
C      1  0.4440680000000  0.4644630000000  0.4547180000000 1.0
END
