TITL C-4164235-1454-659 11.1328901606325 125000 -24406.0453758485 0 0 163 (C1) n - 1
REM
REM in /home/nfs/bkarasulu/CARBON/AIRSS/Generating-Clusters/ReaxFF-fromJPCA2015/Units_Real/with-SteepDescent/Only-C1/SD-CG/Try1-3A/FIRE-CG
REM
REM
REM
REM
REM
REM ./C.cell (11c1c37f851c82e70ff6c80c92926a4b)
REM
REM compiler GCC version 9.2.1 20190827 (Red Hat 9.2.1-1)
REM options -cpp -mtune=generic -march=x86-64 -g -O0 -fpre-include=/usr/include/finclude/math-vector-fortran.h
REM seed -1175584334 194894360 1740216261 -308078878 377724157 -2140975689 214875116 440980088 -444496619 968418415 -877371096 719586648 1532174932 1342799092 1400725850 411163211 -1452154208 -1340475503 552167995 -2091118317 915811785 -2059387691 1756545990 -1587221122 -1348021384 1398134072 -674290170 -1845647021 1475172275 1174786456 2115111386 213352895 -556379876
REM
CELL 1.54180   50.00000   50.00000   50.00000   90.00000   90.00000   90.00000
LATT -1
SFAC C  
C      1  0.5347140000000  0.5630600000000  0.5100950000000 1.0
C      1  0.5549970000000  0.5066410000000  0.4146330000000 1.0
C      1  0.4746510000000  0.4277720000000  0.4805070000000 1.0
C      1  0.5004910000000  0.4659780000000  0.5982910000000 1.0
C      1  0.5480260000000  0.4114010000000  0.5564850000000 1.0
C      1  0.3919560000000  0.4461900000000  0.4901410000000 1.0
C      1  0.4627970000000  0.4449830000000  0.5786540000000 1.0
C      1  0.5280410000000  0.4116930000000  0.5732750000000 1.0
C      1  0.4529680000000  0.4263100000000  0.4291530000000 1.0
C      1  0.5343980000000  0.5239830000000  0.6052940000000 1.0
C      1  0.5290320000000  0.5731570000000  0.6013990000000 1.0
C      1  0.6097660000000  0.4589770000000  0.5030260000000 1.0
C      1  0.4752660000000  0.4775100000000  0.6071280000000 1.0
C      1  0.5391420000000  0.6004220000000  0.4797590000000 1.0
C      1  0.4826730000000  0.4637060000000  0.5410160000000 1.0
C      1  0.6038270000000  0.4890220000000  0.4706970000000 1.0
C      1  0.4133890000000  0.5641340000000  0.4866010000000 1.0
C      1  0.5719690000000  0.5015240000000  0.5356930000000 1.0
C      1  0.4254170000000  0.5892410000000  0.5164980000000 1.0
C      1  0.5524980000000  0.5850220000000  0.5029520000000 1.0
C      1  0.4708290000000  0.4817380000000  0.4768730000000 1.0
C      1  0.5098760000000  0.4906630000000  0.4031260000000 1.0
C      1  0.5160400000000  0.5304960000000  0.4553830000000 1.0
C      1  0.4490520000000  0.4827260000000  0.4226110000000 1.0
C      1  0.4820320000000  0.4880100000000  0.3952340000000 1.0
C      1  0.5199540000000  0.4450350000000  0.5138870000000 1.0
C      1  0.5072000000000  0.5165940000000  0.4790700000000 1.0
C      1  0.4990910000000  0.4896110000000  0.4797340000000 1.0
C      1  0.5648100000000  0.5470270000000  0.5497810000000 1.0
C      1  0.5284950000000  0.4785210000000  0.5499210000000 1.0
C      1  0.5645640000000  0.4203510000000  0.5369320000000 1.0
C      1  0.4015040000000  0.4435990000000  0.5366680000000 1.0
C      1  0.5216230000000  0.4822510000000  0.5848770000000 1.0
C      1  0.5655440000000  0.4572940000000  0.5781330000000 1.0
C      1  0.4811970000000  0.5718100000000  0.5382490000000 1.0
C      1  0.5587340000000  0.4109310000000  0.4863260000000 1.0
C      1  0.4583650000000  0.4064770000000  0.4703840000000 1.0
C      1  0.5100050000000  0.5949710000000  0.5631910000000 1.0
C      1  0.4304910000000  0.5152660000000  0.5703230000000 1.0
C      1  0.5179100000000  0.4525580000000  0.4854360000000 1.0
C      1  0.4552940000000  0.6007880000000  0.5593540000000 1.0
C      1  0.6057210000000  0.5370270000000  0.5183430000000 1.0
C      1  0.5718610000000  0.4406940000000  0.4353010000000 1.0
C      1  0.4958720000000  0.4055040000000  0.4364570000000 1.0
C      1  0.5758690000000  0.5680550000000  0.5009560000000 1.0
C      1  0.4574580000000  0.5573090000000  0.4943290000000 1.0
C      1  0.6278000000000  0.5577020000000  0.4762530000000 1.0
C      1  0.4633920000000  0.4409510000000  0.5038350000000 1.0
C      1  0.5561940000000  0.4740790000000  0.5406030000000 1.0
C      1  0.5200540000000  0.4981930000000  0.4976730000000 1.0
C      1  0.5200770000000  0.4163170000000  0.5175320000000 1.0
C      1  0.6017350000000  0.4376570000000  0.4980320000000 1.0
C      1  0.5052180000000  0.5598020000000  0.5958020000000 1.0
C      1  0.4575350000000  0.6266920000000  0.4917570000000 1.0
C      1  0.4185770000000  0.4241810000000  0.5206370000000 1.0
C      1  0.5676910000000  0.4487920000000  0.5486840000000 1.0
C      1  0.4208780000000  0.5601970000000  0.4404470000000 1.0
C      1  0.4294250000000  0.4193830000000  0.4692950000000 1.0
C      1  0.5855390000000  0.4217640000000  0.4810340000000 1.0
C      1  0.5265550000000  0.4375530000000  0.4232540000000 1.0
C      1  0.5608850000000  0.5305590000000  0.6042070000000 1.0
C      1  0.4124480000000  0.5393390000000  0.5699280000000 1.0
C      1  0.4694860000000  0.5107540000000  0.5281350000000 1.0
C      1  0.5752320000000  0.4945620000000  0.4291430000000 1.0
C      1  0.4759660000000  0.5204750000000  0.4317220000000 1.0
C      1  0.5356720000000  0.4635350000000  0.4379100000000 1.0
C      1  0.5483230000000  0.4222960000000  0.4356440000000 1.0
C      1  0.3842490000000  0.4559780000000  0.5166880000000 1.0
C      1  0.5001420000000  0.4272950000000  0.4170860000000 1.0
C      1  0.4320370000000  0.5868090000000  0.5483290000000 1.0
C      1  0.5542070000000  0.5038040000000  0.4904560000000 1.0
C      1  0.4657930000000  0.5692110000000  0.4190430000000 1.0
C      1  0.5690480000000  0.5540630000000  0.4450550000000 1.0
C      1  0.4890510000000  0.4398720000000  0.5907290000000 1.0
C      1  0.5102530000000  0.4833840000000  0.4326980000000 1.0
C      1  0.5398910000000  0.5379160000000  0.5275260000000 1.0
C      1  0.4662710000000  0.5041380000000  0.6047210000000 1.0
C      1  0.4729080000000  0.4389370000000  0.4114730000000 1.0
C      1  0.4672420000000  0.4053710000000  0.4421790000000 1.0
C      1  0.4935400000000  0.5822680000000  0.4144370000000 1.0
C      1  0.5566400000000  0.5679620000000  0.5699600000000 1.0
C      1  0.5708190000000  0.5194450000000  0.5590590000000 1.0
C      1  0.4844440000000  0.5987690000000  0.5514540000000 1.0
C      1  0.5307520000000  0.5409020000000  0.4072660000000 1.0
C      1  0.5091450000000  0.4213870000000  0.5832040000000 1.0
C      1  0.4603470000000  0.5251900000000  0.4595370000000 1.0
C      1  0.4522600000000  0.4682830000000  0.5916740000000 1.0
C      1  0.5134560000000  0.4981750000000  0.5299080000000 1.0
C      1  0.5315650000000  0.5118050000000  0.4005730000000 1.0
C      1  0.5562320000000  0.5597130000000  0.5975880000000 1.0
C      1  0.5358670000000  0.5529120000000  0.4831290000000 1.0
C      1  0.5646040000000  0.5490450000000  0.4741950000000 1.0
C      1  0.4648180000000  0.3791170000000  0.4901540000000 1.0
C      1  0.4424050000000  0.5079630000000  0.5197670000000 1.0
C      1  0.4301310000000  0.4358980000000  0.4461320000000 1.0
C      1  0.5542370000000  0.5776710000000  0.4368540000000 1.0
C      1  0.5636550000000  0.4671560000000  0.4264830000000 1.0
C      1  0.5142770000000  0.5257770000000  0.5363780000000 1.0
C      1  0.4080690000000  0.5343980000000  0.4449020000000 1.0
C      1  0.4560900000000  0.4682900000000  0.4975420000000 1.0
C      1  0.5879270000000  0.5070590000000  0.4546200000000 1.0
C      1  0.4155740000000  0.4615090000000  0.4484020000000 1.0
C      1  0.4657390000000  0.4722230000000  0.4487390000000 1.0
C      1  0.4782230000000  0.5501810000000  0.5550000000000 1.0
C      1  0.5420200000000  0.4085470000000  0.4618080000000 1.0
C      1  0.5522680000000  0.4817600000000  0.5881550000000 1.0
C      1  0.5104460000000  0.4575780000000  0.5391110000000 1.0
C      1  0.4866070000000  0.5320200000000  0.5361310000000 1.0
C      1  0.4441150000000  0.4968040000000  0.5886330000000 1.0
C      1  0.5127410000000  0.5093150000000  0.5988720000000 1.0
C      1  0.5843750000000  0.4692570000000  0.4686630000000 1.0
C      1  0.6145860000000  0.5516230000000  0.4958840000000 1.0
C      1  0.5538820000000  0.5538820000000  0.4196620000000 1.0
C      1  0.3858800000000  0.5068310000000  0.5305620000000 1.0
C      1  0.4005050000000  0.4660190000000  0.4718990000000 1.0
C      1  0.5182250000000  0.6207170000000  0.4843500000000 1.0
C      1  0.4653890000000  0.4649400000000  0.4016600000000 1.0
C      1  0.4931430000000  0.4069760000000  0.5271490000000 1.0
C      1  0.5136000000000  0.4109040000000  0.4589030000000 1.0
C      1  0.4054220000000  0.4854720000000  0.4910540000000 1.0
C      1  0.5343650000000  0.5884110000000  0.5746450000000 1.0
C      1  0.6024420000000  0.5055530000000  0.5212320000000 1.0
C      1  0.5847470000000  0.5553370000000  0.5253020000000 1.0
C      1  0.5488310000000  0.4093770000000  0.5139550000000 1.0
C      1  0.4633780000000  0.5051360000000  0.4105090000000 1.0
C      1  0.4704360000000  0.4255590000000  0.5283650000000 1.0
C      1  0.6127280000000  0.4864310000000  0.4984580000000 1.0
C      1  0.3991990000000  0.5269550000000  0.5438180000000 1.0
C      1  0.4826870000000  0.5484370000000  0.5850090000000 1.0
C      1  0.5174730000000  0.5595420000000  0.4618720000000 1.0
C      1  0.5382900000000  0.4620460000000  0.4694730000000 1.0
C      1  0.4256940000000  0.5120510000000  0.5420060000000 1.0
C      1  0.4773590000000  0.5437200000000  0.4101980000000 1.0
C      1  0.4190460000000  0.5092100000000  0.4499970000000 1.0
C      1  0.4862250000000  0.4890480000000  0.5329020000000 1.0
C      1  0.4342400000000  0.4937200000000  0.4955180000000 1.0
C      1  0.4296070000000  0.5633920000000  0.5032240000000 1.0
C      1  0.4406640000000  0.6085870000000  0.5043710000000 1.0
C      1  0.5882940000000  0.4417880000000  0.4592820000000 1.0
C      1  0.4790960000000  0.3894960000000  0.5104680000000 1.0
C      1  0.5671790000000  0.5082530000000  0.5849200000000 1.0
C      1  0.4300810000000  0.4451830000000  0.5361730000000 1.0
C      1  0.5327000000000  0.5837220000000  0.4555880000000 1.0
C      1  0.4219800000000  0.4857880000000  0.4347990000000 1.0
C      1  0.4037440000000  0.5571110000000  0.4629600000000 1.0
C      1  0.4221790000000  0.5632250000000  0.5601910000000 1.0
C      1  0.4603990000000  0.4439260000000  0.5490820000000 1.0
C      1  0.5681220000000  0.5211910000000  0.4705110000000 1.0
C      1  0.4915650000000  0.4620450000000  0.4466400000000 1.0
C      1  0.5603110000000  0.4760290000000  0.4814690000000 1.0
C      1  0.4862990000000  0.5230890000000  0.6002590000000 1.0
C      1  0.4880120000000  0.6167040000000  0.4838750000000 1.0
C      1  0.5040580000000  0.5552310000000  0.4051250000000 1.0
C      1  0.4985960000000  0.4379750000000  0.4684290000000 1.0
C      1  0.4386440000000  0.5103700000000  0.4698410000000 1.0
C      1  0.4859460000000  0.5943220000000  0.4952290000000 1.0
C      1  0.5034730000000  0.5122600000000  0.4376370000000 1.0
C      1  0.4794930000000  0.5700740000000  0.5083440000000 1.0
C      1  0.5564000000000  0.5157630000000  0.5165250000000 1.0
C      1  0.4122990000000  0.4243350000000  0.4915880000000 1.0
C      1  0.4614600000000  0.5531720000000  0.4657740000000 1.0
C      1  0.4486320000000  0.5677060000000  0.4430260000000 1.0
C      1  0.3844260000000  0.4853940000000  0.5122720000000 1.0
END
