TITL C-4164241-3639-518 29.5375281109422 125000 -28928.3160885205 0 0 192 (C1) n - 1
REM
REM in /home/nfs/bkarasulu/CARBON/AIRSS/Generating-Clusters/ReaxFF-fromJPCA2015/Units_Real/with-SteepDescent/Only-C1/SD-CG/Try1-3A/FIRE-CG
REM
REM
REM
REM
REM
REM ./C.cell (11c1c37f851c82e70ff6c80c92926a4b)
REM
REM compiler GCC version 9.2.1 20190827 (Red Hat 9.2.1-1)
REM options -cpp -mtune=generic -march=x86-64 -g -O0 -fpre-include=/usr/include/finclude/math-vector-fortran.h
REM seed 542631296 -851518499 1465701899 -1255035728 -1427249446 973598547 -1355739867 -1981697241 1906145834 -2077808704 1188708440 1766655273 -1132411659 -1181436708 1992234602 -1598319868 777911494 -387094155 2140099606 272770875 -1139115564 1324581406 -2030386282 -1090904619 1266738107 -775117722 557276721 -467295049 -554541030 -831162312 -912390756 -1011450971 -1795146691
REM
CELL 1.54180   50.00000   50.00000   50.00000   90.00000   90.00000   90.00000
LATT -1
SFAC C  
C      1  0.5253590000000  0.4968300000000  0.5231610000000 1.0
C      1  0.4577720000000  0.4026470000000  0.4630690000000 1.0
C      1  0.4828570000000  0.4943890000000  0.3942590000000 1.0
C      1  0.4507080000000  0.4144000000000  0.4364700000000 1.0
C      1  0.5894160000000  0.4833790000000  0.4422930000000 1.0
C      1  0.5553180000000  0.5155660000000  0.4482710000000 1.0
C      1  0.5909660000000  0.5209870000000  0.5451070000000 1.0
C      1  0.4542190000000  0.5407390000000  0.5185400000000 1.0
C      1  0.4730910000000  0.5917870000000  0.4695250000000 1.0
C      1  0.4991590000000  0.4555910000000  0.5182100000000 1.0
C      1  0.5427000000000  0.5552740000000  0.5072520000000 1.0
C      1  0.4825320000000  0.5739800000000  0.4225520000000 1.0
C      1  0.4956760000000  0.3814650000000  0.4966100000000 1.0
C      1  0.5481480000000  0.4027360000000  0.5123450000000 1.0
C      1  0.4148450000000  0.4785320000000  0.4289900000000 1.0
C      1  0.5833200000000  0.5769080000000  0.4704140000000 1.0
C      1  0.4584720000000  0.5642000000000  0.4078480000000 1.0
C      1  0.4118810000000  0.4161230000000  0.4914270000000 1.0
C      1  0.5607280000000  0.5805800000000  0.4247980000000 1.0
C      1  0.4025190000000  0.4411070000000  0.5364960000000 1.0
C      1  0.4918010000000  0.5229210000000  0.4933230000000 1.0
C      1  0.5434060000000  0.4052710000000  0.4853750000000 1.0
C      1  0.5181440000000  0.5691680000000  0.5026620000000 1.0
C      1  0.4945300000000  0.5026450000000  0.5700250000000 1.0
C      1  0.4467890000000  0.5781710000000  0.4668000000000 1.0
C      1  0.5235950000000  0.4596460000000  0.4434630000000 1.0
C      1  0.6249390000000  0.5247380000000  0.5059590000000 1.0
C      1  0.4378540000000  0.5206600000000  0.5893840000000 1.0
C      1  0.5275140000000  0.5120570000000  0.5656580000000 1.0
C      1  0.4642230000000  0.5309120000000  0.4535860000000 1.0
C      1  0.5139920000000  0.4390270000000  0.4997830000000 1.0
C      1  0.4100090000000  0.4771830000000  0.5595830000000 1.0
C      1  0.4808880000000  0.4777430000000  0.5185920000000 1.0
C      1  0.4556000000000  0.4735250000000  0.5844790000000 1.0
C      1  0.4849350000000  0.4311720000000  0.5494910000000 1.0
C      1  0.6118930000000  0.4634850000000  0.4862990000000 1.0
C      1  0.4261000000000  0.5452800000000  0.5133810000000 1.0
C      1  0.5077090000000  0.4294000000000  0.5936920000000 1.0
C      1  0.5368990000000  0.6050030000000  0.4911770000000 1.0
C      1  0.4464270000000  0.4155160000000  0.5476490000000 1.0
C      1  0.5472170000000  0.4619710000000  0.5920660000000 1.0
C      1  0.4211790000000  0.4980680000000  0.5435550000000 1.0
C      1  0.4586960000000  0.5259000000000  0.5417450000000 1.0
C      1  0.4939380000000  0.5547650000000  0.4663100000000 1.0
C      1  0.4218000000000  0.5479340000000  0.5605630000000 1.0
C      1  0.4305110000000  0.4599440000000  0.5702280000000 1.0
C      1  0.3966560000000  0.4334360000000  0.5091030000000 1.0
C      1  0.5412730000000  0.5457980000000  0.4098710000000 1.0
C      1  0.5376120000000  0.5091850000000  0.5941200000000 1.0
C      1  0.5581740000000  0.5947050000000  0.5388810000000 1.0
C      1  0.5517980000000  0.4971850000000  0.4048520000000 1.0
C      1  0.5770140000000  0.4353720000000  0.5024400000000 1.0
C      1  0.5439430000000  0.5406500000000  0.4584100000000 1.0
C      1  0.5423670000000  0.4771500000000  0.5102440000000 1.0
C      1  0.5285120000000  0.5351700000000  0.6039690000000 1.0
C      1  0.5640360000000  0.4365840000000  0.5294450000000 1.0
C      1  0.4867410000000  0.5058250000000  0.6006390000000 1.0
C      1  0.5351350000000  0.5179640000000  0.4055070000000 1.0
C      1  0.4961890000000  0.4560300000000  0.5587280000000 1.0
C      1  0.4878630000000  0.5988390000000  0.5384940000000 1.0
C      1  0.4528060000000  0.4038860000000  0.5214280000000 1.0
C      1  0.5297860000000  0.5814640000000  0.5825070000000 1.0
C      1  0.5162090000000  0.5508960000000  0.4502330000000 1.0
C      1  0.4742660000000  0.5600330000000  0.5143570000000 1.0
C      1  0.4854620000000  0.5215500000000  0.5474950000000 1.0
C      1  0.4901280000000  0.5912840000000  0.4453050000000 1.0
C      1  0.5250710000000  0.4177790000000  0.4201730000000 1.0
C      1  0.5289290000000  0.4633120000000  0.3978370000000 1.0
C      1  0.5803240000000  0.5797960000000  0.4994310000000 1.0
C      1  0.4515140000000  0.4391760000000  0.4882990000000 1.0
C      1  0.5795350000000  0.4457270000000  0.5529140000000 1.0
C      1  0.5188630000000  0.4566630000000  0.6001210000000 1.0
C      1  0.4465750000000  0.4904330000000  0.4624140000000 1.0
C      1  0.3838070000000  0.4801560000000  0.5127890000000 1.0
C      1  0.4636530000000  0.4530770000000  0.4087590000000 1.0
C      1  0.5329330000000  0.5750130000000  0.4211600000000 1.0
C      1  0.5675070000000  0.4356600000000  0.4485890000000 1.0
C      1  0.4298420000000  0.4468590000000  0.4703920000000 1.0
C      1  0.4810560000000  0.6000750000000  0.4969980000000 1.0
C      1  0.4527630000000  0.4746680000000  0.5092770000000 1.0
C      1  0.4744860000000  0.5455260000000  0.3935400000000 1.0
C      1  0.4955720000000  0.5521950000000  0.4979770000000 1.0
C      1  0.5489850000000  0.5368150000000  0.4861630000000 1.0
C      1  0.4187560000000  0.5156860000000  0.5011750000000 1.0
C      1  0.5837230000000  0.4990850000000  0.5847400000000 1.0
C      1  0.5894200000000  0.5627430000000  0.5220210000000 1.0
C      1  0.4985140000000  0.5492570000000  0.4260680000000 1.0
C      1  0.5682640000000  0.5510790000000  0.5748160000000 1.0
C      1  0.4268370000000  0.4372100000000  0.5533890000000 1.0
C      1  0.3885760000000  0.5073850000000  0.5030520000000 1.0
C      1  0.5107480000000  0.5964480000000  0.5014150000000 1.0
C      1  0.4356860000000  0.5520420000000  0.4215140000000 1.0
C      1  0.4350320000000  0.5497020000000  0.5863310000000 1.0
C      1  0.5471830000000  0.4177010000000  0.4390410000000 1.0
C      1  0.5170960000000  0.4602960000000  0.5395800000000 1.0
C      1  0.3860840000000  0.4545460000000  0.4663470000000 1.0
C      1  0.5589580000000  0.5974010000000  0.5091600000000 1.0
C      1  0.5473450000000  0.5496550000000  0.5349590000000 1.0
C      1  0.5971080000000  0.5545570000000  0.4551510000000 1.0
C      1  0.4056410000000  0.4323610000000  0.4681040000000 1.0
C      1  0.5840770000000  0.5274180000000  0.5733430000000 1.0
C      1  0.5964620000000  0.4548390000000  0.5091130000000 1.0
C      1  0.5447610000000  0.5565380000000  0.5903760000000 1.0
C      1  0.5887940000000  0.5387170000000  0.4309670000000 1.0
C      1  0.4907870000000  0.5692500000000  0.5345790000000 1.0
C      1  0.4816240000000  0.4683760000000  0.4717780000000 1.0
C      1  0.5395570000000  0.6003680000000  0.4622850000000 1.0
C      1  0.5232150000000  0.4107860000000  0.5761170000000 1.0
C      1  0.4868480000000  0.4331630000000  0.4101740000000 1.0
C      1  0.5912840000000  0.4714030000000  0.5393740000000 1.0
C      1  0.6073800000000  0.5335010000000  0.4688050000000 1.0
C      1  0.4999800000000  0.5826030000000  0.5861250000000 1.0
C      1  0.4861250000000  0.5592100000000  0.5971080000000 1.0
C      1  0.4288860000000  0.5714910000000  0.4437780000000 1.0
C      1  0.4961760000000  0.5032460000000  0.5206050000000 1.0
C      1  0.5060470000000  0.4741370000000  0.4295320000000 1.0
C      1  0.5447140000000  0.4585420000000  0.5325960000000 1.0
C      1  0.4449190000000  0.5863950000000  0.5394440000000 1.0
C      1  0.4588940000000  0.5669280000000  0.5871870000000 1.0
C      1  0.4561750000000  0.5881770000000  0.5666770000000 1.0
C      1  0.4585240000000  0.4819020000000  0.4044070000000 1.0
C      1  0.4569240000000  0.5017630000000  0.5979680000000 1.0
C      1  0.5112090000000  0.3963410000000  0.4763740000000 1.0
C      1  0.6029800000000  0.5383900000000  0.5243810000000 1.0
C      1  0.5579620000000  0.4886310000000  0.5966280000000 1.0
C      1  0.5954800000000  0.4802620000000  0.5666770000000 1.0
C      1  0.5381380000000  0.4691280000000  0.4642480000000 1.0
C      1  0.4331670000000  0.4958160000000  0.4145990000000 1.0
C      1  0.5635900000000  0.4246350000000  0.4773870000000 1.0
C      1  0.5688620000000  0.5536710000000  0.4149200000000 1.0
C      1  0.4787490000000  0.4282540000000  0.5932740000000 1.0
C      1  0.4679500000000  0.5282890000000  0.4801040000000 1.0
C      1  0.4776140000000  0.4407900000000  0.4756810000000 1.0
C      1  0.3899560000000  0.4767160000000  0.4457280000000 1.0
C      1  0.4132870000000  0.5218140000000  0.4495020000000 1.0
C      1  0.4967150000000  0.4741020000000  0.6064920000000 1.0
C      1  0.4615010000000  0.4820730000000  0.4840790000000 1.0
C      1  0.3795540000000  0.4961230000000  0.4632300000000 1.0
C      1  0.5005890000000  0.5076440000000  0.4494970000000 1.0
C      1  0.5195730000000  0.4321010000000  0.4468370000000 1.0
C      1  0.4269900000000  0.5091070000000  0.4711830000000 1.0
C      1  0.5031690000000  0.4265710000000  0.4759270000000 1.0
C      1  0.5413840000000  0.5925210000000  0.5597300000000 1.0
C      1  0.4422550000000  0.4105910000000  0.4932360000000 1.0
C      1  0.4350920000000  0.5199460000000  0.5568270000000 1.0
C      1  0.5694310000000  0.5651150000000  0.5456890000000 1.0
C      1  0.5504530000000  0.4153680000000  0.5683000000000 1.0
C      1  0.4637620000000  0.6008370000000  0.5216270000000 1.0
C      1  0.5732390000000  0.4987630000000  0.5375520000000 1.0
C      1  0.3768460000000  0.5190940000000  0.4789550000000 1.0
C      1  0.4994240000000  0.5342490000000  0.6044290000000 1.0
C      1  0.4276360000000  0.5241070000000  0.4233280000000 1.0
C      1  0.5614410000000  0.4417100000000  0.5755440000000 1.0
C      1  0.4785510000000  0.5208450000000  0.3935910000000 1.0
C      1  0.5144680000000  0.4376150000000  0.4013620000000 1.0
C      1  0.4800930000000  0.4776960000000  0.5666880000000 1.0
C      1  0.5327560000000  0.4588060000000  0.4899470000000 1.0
C      1  0.5104910000000  0.5103730000000  0.4758120000000 1.0
C      1  0.6491050000000  0.5324810000000  0.5072730000000 1.0
C      1  0.4840990000000  0.3976940000000  0.4543240000000 1.0
C      1  0.4468590000000  0.4424320000000  0.4285680000000 1.0
C      1  0.5450020000000  0.4001540000000  0.5410220000000 1.0
C      1  0.4837850000000  0.4835190000000  0.4464570000000 1.0
C      1  0.5518590000000  0.4939270000000  0.4667310000000 1.0
C      1  0.4087960000000  0.5616020000000  0.4602910000000 1.0
C      1  0.5121100000000  0.4876600000000  0.4043690000000 1.0
C      1  0.4751760000000  0.4557440000000  0.6032540000000 1.0
C      1  0.3924350000000  0.4678500000000  0.5383510000000 1.0
C      1  0.5009340000000  0.5467020000000  0.5486800000000 1.0
C      1  0.5383900000000  0.5093830000000  0.4865190000000 1.0
C      1  0.5171040000000  0.3998360000000  0.5487860000000 1.0
C      1  0.5444750000000  0.5012910000000  0.5431780000000 1.0
C      1  0.3917570000000  0.5397960000000  0.4611600000000 1.0
C      1  0.4805930000000  0.3953000000000  0.5187290000000 1.0
C      1  0.5722590000000  0.4610090000000  0.4338180000000 1.0
C      1  0.5000000000000  0.4153580000000  0.5297730000000 1.0
C      1  0.6078700000000  0.4847680000000  0.4650430000000 1.0
C      1  0.5272680000000  0.5394250000000  0.5523360000000 1.0
C      1  0.4862540000000  0.5276260000000  0.4386420000000 1.0
C      1  0.5195930000000  0.5912680000000  0.4421850000000 1.0
C      1  0.6146870000000  0.5106220000000  0.4772190000000 1.0
C      1  0.4248550000000  0.5635900000000  0.5360470000000 1.0
C      1  0.5554140000000  0.4692510000000  0.4097650000000 1.0
C      1  0.4317890000000  0.4937460000000  0.5174760000000 1.0
C      1  0.3842470000000  0.4566220000000  0.4952390000000 1.0
C      1  0.5653060000000  0.5907430000000  0.4529670000000 1.0
C      1  0.4788600000000  0.4099690000000  0.4275780000000 1.0
C      1  0.4833160000000  0.5988150000000  0.5680220000000 1.0
C      1  0.4349270000000  0.4647310000000  0.4472600000000 1.0
C      1  0.5806200000000  0.5109050000000  0.4352150000000 1.0
C      1  0.4533490000000  0.5500030000000  0.4718790000000 1.0
C      1  0.4677700000000  0.4169190000000  0.5679520000000 1.0
END
