TITL C-4164242-3624-544 -4.603429996028 125000 -8275.42270129291 0 0 56 (C1) n - 1
REM
REM in /home/nfs/bkarasulu/CARBON/AIRSS/Generating-Clusters/ReaxFF-fromJPCA2015/Units_Real/with-SteepDescent/Only-C1/SD-CG/Try1-3A/FIRE-CG
REM
REM
REM
REM
REM
REM ./C.cell (11c1c37f851c82e70ff6c80c92926a4b)
REM
REM compiler GCC version 9.2.1 20190827 (Red Hat 9.2.1-1)
REM options -cpp -mtune=generic -march=x86-64 -g -O0 -fpre-include=/usr/include/finclude/math-vector-fortran.h
REM seed 746479559 -678169213 1975627168 665773373 1048297044 -2016705052 796261974 -608598297 -1315997219 -2049165060 -2055023953 425396112 1657893666 391233138 1958830795 321527743 -275199763 -1214821775 36407053 534496826 499939090 416580887 903181715 -394364636 -1551016971 -1214116970 1490760268 -696268416 -1326416510 1924138095 -1159228901 -451971828 -1275673575
REM
CELL 1.54180   50.00000   50.00000   50.00000   90.00000   90.00000   90.00000
LATT -1
SFAC C  
C      1  0.4970620000000  0.5493190000000  0.5079900000000 1.0
C      1  0.5632570000000  0.5426430000000  0.4698420000000 1.0
C      1  0.5013260000000  0.4514170000000  0.4540790000000 1.0
C      1  0.4572570000000  0.5431210000000  0.4765740000000 1.0
C      1  0.4742350000000  0.4877860000000  0.5223040000000 1.0
C      1  0.5433340000000  0.5507930000000  0.5272000000000 1.0
C      1  0.4842980000000  0.4853330000000  0.5684470000000 1.0
C      1  0.4971890000000  0.4584830000000  0.5627290000000 1.0
C      1  0.5440840000000  0.4580810000000  0.5349140000000 1.0
C      1  0.4938210000000  0.4408390000000  0.5107890000000 1.0
C      1  0.4886510000000  0.5463270000000  0.4323090000000 1.0
C      1  0.5550060000000  0.4923200000000  0.4624860000000 1.0
C      1  0.5327580000000  0.5606360000000  0.5534500000000 1.0
C      1  0.4710630000000  0.4356970000000  0.4918840000000 1.0
C      1  0.5678730000000  0.5129580000000  0.4782960000000 1.0
C      1  0.4695310000000  0.4979350000000  0.5472900000000 1.0
C      1  0.4863740000000  0.5209240000000  0.4379340000000 1.0
C      1  0.5639840000000  0.4564440000000  0.4991600000000 1.0
C      1  0.4984480000000  0.5192470000000  0.4902200000000 1.0
C      1  0.5186590000000  0.5129780000000  0.4709200000000 1.0
C      1  0.5427890000000  0.5549580000000  0.4858990000000 1.0
C      1  0.4777010000000  0.4366220000000  0.4634770000000 1.0
C      1  0.5002010000000  0.4922880000000  0.5114640000000 1.0
C      1  0.4927680000000  0.4720320000000  0.4350940000000 1.0
C      1  0.4293530000000  0.4852020000000  0.4652020000000 1.0
C      1  0.4941770000000  0.4466170000000  0.5379960000000 1.0
C      1  0.5259760000000  0.4909140000000  0.5613030000000 1.0
C      1  0.5206390000000  0.4586200000000  0.4750880000000 1.0
C      1  0.5058200000000  0.5024220000000  0.5798380000000 1.0
C      1  0.5069070000000  0.4657330000000  0.4998780000000 1.0
C      1  0.4518770000000  0.4804360000000  0.5065880000000 1.0
C      1  0.4495240000000  0.5283800000000  0.5182010000000 1.0
C      1  0.5267590000000  0.5013820000000  0.5320820000000 1.0
C      1  0.5477600000000  0.5214130000000  0.5241230000000 1.0
C      1  0.5497150000000  0.4657000000000  0.4741000000000 1.0
C      1  0.5246090000000  0.5609890000000  0.5055050000000 1.0
C      1  0.5050100000000  0.5505890000000  0.5593300000000 1.0
C      1  0.5308970000000  0.5043640000000  0.4477820000000 1.0
C      1  0.5458190000000  0.4793120000000  0.5250420000000 1.0
C      1  0.4626070000000  0.4697570000000  0.4325150000000 1.0
C      1  0.4486190000000  0.4537230000000  0.4950610000000 1.0
C      1  0.4735180000000  0.5651970000000  0.4901790000000 1.0
C      1  0.4876170000000  0.5452460000000  0.5357970000000 1.0
C      1  0.4356990000000  0.4986580000000  0.4908860000000 1.0
C      1  0.4370690000000  0.5285830000000  0.4937200000000 1.0
C      1  0.4543670000000  0.4470700000000  0.4492960000000 1.0
C      1  0.5276550000000  0.4615530000000  0.5579410000000 1.0
C      1  0.4353110000000  0.4566850000000  0.4692610000000 1.0
C      1  0.4427280000000  0.4910920000000  0.4387300000000 1.0
C      1  0.5713370000000  0.4811070000000  0.5165930000000 1.0
C      1  0.4643500000000  0.5272240000000  0.5416640000000 1.0
C      1  0.5680790000000  0.5092420000000  0.5072320000000 1.0
C      1  0.5063070000000  0.4971030000000  0.4327500000000 1.0
C      1  0.4678010000000  0.5900670000000  0.4910450000000 1.0
C      1  0.4774910000000  0.5246800000000  0.4677850000000 1.0
C      1  0.5029340000000  0.5317610000000  0.5827370000000 1.0
END
