TITL C-4164239-2837-617 0.968092659727145 125000 -11922.2879336352 0 0 81 (C1) n - 1
REM
REM in /home/nfs/bkarasulu/CARBON/AIRSS/Generating-Clusters/ReaxFF-fromJPCA2015/Units_Real/with-SteepDescent/Only-C1/SD-CG/Try1-3A/FIRE-CG
REM
REM
REM
REM
REM
REM ./C.cell (11c1c37f851c82e70ff6c80c92926a4b)
REM
REM compiler GCC version 9.2.1 20190827 (Red Hat 9.2.1-1)
REM options -cpp -mtune=generic -march=x86-64 -g -O0 -fpre-include=/usr/include/finclude/math-vector-fortran.h
REM seed 221872520 -1501587590 903117979 385936530 -1480092349 -1754099643 -1303353943 230932241 -254805081 -563293186 -852525234 568985933 -927027133 1289510215 93901121 -115686574 1176701620 -1597824933 2114833880 -618461740 868838746 -268658750 392035367 -71983916 1901185956 2113978078 -1760738596 -1471281395 -1010085653 34431470 342366608 -1242044417 -747170426
REM
CELL 1.54180   50.00000   50.00000   50.00000   90.00000   90.00000   90.00000
LATT -1
SFAC C  
C      1  0.5205100000000  0.4333800000000  0.5445350000000 1.0
C      1  0.4855930000000  0.4641690000000  0.5375220000000 1.0
C      1  0.4670430000000  0.5796570000000  0.5113620000000 1.0
C      1  0.4983910000000  0.5055030000000  0.4667670000000 1.0
C      1  0.4925220000000  0.4299780000000  0.4778740000000 1.0
C      1  0.4622720000000  0.4946140000000  0.4065070000000 1.0
C      1  0.4811980000000  0.5343700000000  0.5111660000000 1.0
C      1  0.5188270000000  0.5740860000000  0.4822540000000 1.0
C      1  0.4514260000000  0.5407100000000  0.5177190000000 1.0
C      1  0.4490930000000  0.5742160000000  0.4891980000000 1.0
C      1  0.4299080000000  0.4788170000000  0.4682630000000 1.0
C      1  0.5348630000000  0.5366330000000  0.4601710000000 1.0
C      1  0.5030450000000  0.4829000000000  0.5189980000000 1.0
C      1  0.4901880000000  0.4611260000000  0.4351490000000 1.0
C      1  0.4422000000000  0.5548800000000  0.4718790000000 1.0
C      1  0.4630600000000  0.4658270000000  0.4348850000000 1.0
C      1  0.4742890000000  0.4378830000000  0.5328370000000 1.0
C      1  0.5167120000000  0.4558190000000  0.4370060000000 1.0
C      1  0.4748660000000  0.5470590000000  0.5540550000000 1.0
C      1  0.5634670000000  0.5018140000000  0.5794970000000 1.0
C      1  0.5796170000000  0.4757640000000  0.4907830000000 1.0
C      1  0.4376860000000  0.4781090000000  0.5122500000000 1.0
C      1  0.4393860000000  0.5306140000000  0.4564700000000 1.0
C      1  0.5314090000000  0.5279050000000  0.4340280000000 1.0
C      1  0.5390860000000  0.4774320000000  0.4329950000000 1.0
C      1  0.4965200000000  0.5494980000000  0.5346550000000 1.0
C      1  0.4629810000000  0.4738230000000  0.5490730000000 1.0
C      1  0.5332920000000  0.4269760000000  0.5049610000000 1.0
C      1  0.4529830000000  0.4989220000000  0.5569480000000 1.0
C      1  0.5581300000000  0.5058780000000  0.4698310000000 1.0
C      1  0.5837630000000  0.5033330000000  0.4785460000000 1.0
C      1  0.5565380000000  0.5041840000000  0.5208770000000 1.0
C      1  0.5463690000000  0.5689330000000  0.5250330000000 1.0
C      1  0.5214870000000  0.5180520000000  0.4795950000000 1.0
C      1  0.5333970000000  0.4496640000000  0.4838110000000 1.0
C      1  0.5055130000000  0.4198460000000  0.5026400000000 1.0
C      1  0.5725550000000  0.5552410000000  0.5236110000000 1.0
C      1  0.5847240000000  0.5285160000000  0.4936570000000 1.0
C      1  0.5617160000000  0.4569540000000  0.5370400000000 1.0
C      1  0.5234680000000  0.5602990000000  0.5429840000000 1.0
C      1  0.5484560000000  0.4685590000000  0.5602660000000 1.0
C      1  0.5592970000000  0.4801090000000  0.4546400000000 1.0
C      1  0.4977200000000  0.5051750000000  0.5746010000000 1.0
C      1  0.4117120000000  0.5174510000000  0.4945850000000 1.0
C      1  0.5184900000000  0.5586480000000  0.4568140000000 1.0
C      1  0.5104700000000  0.4710220000000  0.4942970000000 1.0
C      1  0.4319170000000  0.4468860000000  0.5186880000000 1.0
C      1  0.4920990000000  0.5481800000000  0.4552120000000 1.0
C      1  0.4600820000000  0.5197000000000  0.4373480000000 1.0
C      1  0.4737220000000  0.5195540000000  0.5646590000000 1.0
C      1  0.4530730000000  0.4948030000000  0.4252770000000 1.0
C      1  0.5147110000000  0.4393560000000  0.4614880000000 1.0
C      1  0.5778770000000  0.5259010000000  0.5217170000000 1.0
C      1  0.4267320000000  0.5086010000000  0.4700560000000 1.0
C      1  0.5612440000000  0.4600000000000  0.4752040000000 1.0
C      1  0.4978950000000  0.4243420000000  0.5294440000000 1.0
C      1  0.5436250000000  0.5696220000000  0.4962810000000 1.0
C      1  0.4654440000000  0.4878170000000  0.4991580000000 1.0
C      1  0.5027110000000  0.4760530000000  0.5746200000000 1.0
C      1  0.4331960000000  0.4987570000000  0.5346150000000 1.0
C      1  0.4909240000000  0.5774420000000  0.4926740000000 1.0
C      1  0.4561380000000  0.4349320000000  0.5083470000000 1.0
C      1  0.5455410000000  0.4329090000000  0.5303410000000 1.0
C      1  0.4132530000000  0.4741930000000  0.4918360000000 1.0
C      1  0.4875140000000  0.4811260000000  0.4798530000000 1.0
C      1  0.4856150000000  0.5223430000000  0.4484600000000 1.0
C      1  0.5707230000000  0.4776300000000  0.5187010000000 1.0
C      1  0.4283870000000  0.5229260000000  0.5193680000000 1.0
C      1  0.5427310000000  0.5056330000000  0.4940560000000 1.0
C      1  0.5718740000000  0.5558550000000  0.4941300000000 1.0
C      1  0.4572780000000  0.5630680000000  0.5350560000000 1.0
C      1  0.3918250000000  0.4951910000000  0.4971680000000 1.0
C      1  0.5258120000000  0.5167080000000  0.5748660000000 1.0
C      1  0.5473100000000  0.4993240000000  0.5566740000000 1.0
C      1  0.4823490000000  0.5044620000000  0.5153680000000 1.0
C      1  0.4652140000000  0.4406210000000  0.4798290000000 1.0
C      1  0.4516840000000  0.4598360000000  0.4623060000000 1.0
C      1  0.4819000000000  0.5516230000000  0.4822490000000 1.0
C      1  0.5222000000000  0.4561440000000  0.5646160000000 1.0
C      1  0.5272780000000  0.5402550000000  0.5609720000000 1.0
C      1  0.5338880000000  0.5038620000000  0.4267280000000 1.0
END
