TITL C-4164243-3780-293 -22.7848882509943 125000 -7025.35058614657 0 0 47 (C1) n - 1
REM
REM in /home/nfs/bkarasulu/CARBON/AIRSS/Generating-Clusters/ReaxFF-fromJPCA2015/Units_Real/with-SteepDescent/Only-C1/SD-CG/Try1-3A/FIRE-CG
REM
REM
REM
REM
REM
REM ./C.cell (11c1c37f851c82e70ff6c80c92926a4b)
REM
REM compiler GCC version 9.2.1 20190827 (Red Hat 9.2.1-1)
REM options -cpp -mtune=generic -march=x86-64 -g -O0 -fpre-include=/usr/include/finclude/math-vector-fortran.h
REM seed -2033394548 -1010838272 -1471187633 1507524685 795581914 -1745301391 444394906 -735173294 -562576083 -1193032972 17705073 1133027284 638205607 803313641 -1856740988 1242862369 786537480 -1489905147 -1698632712 218014483 -1529231749 920567732 -506199160 475382586 867498642 -1617562647 -2087494144 25976014 899964417 -164729840 -400254067 834010206 -631501173
REM
CELL 1.54180   50.00000   50.00000   50.00000   90.00000   90.00000   90.00000
LATT -1
SFAC C  
C      1  0.5185050000000  0.4267010000000  0.5128330000000 1.0
C      1  0.4874110000000  0.5521800000000  0.5396740000000 1.0
C      1  0.4576120000000  0.4809760000000  0.5202340000000 1.0
C      1  0.4723150000000  0.5140580000000  0.4547340000000 1.0
C      1  0.5296360000000  0.4404060000000  0.4661470000000 1.0
C      1  0.5553110000000  0.4745880000000  0.4812070000000 1.0
C      1  0.5407260000000  0.4759020000000  0.5304260000000 1.0
C      1  0.4730850000000  0.4870730000000  0.5655900000000 1.0
C      1  0.4917090000000  0.4335430000000  0.5100070000000 1.0
C      1  0.5224980000000  0.4856440000000  0.4405460000000 1.0
C      1  0.4440460000000  0.5402210000000  0.5163510000000 1.0
C      1  0.4844740000000  0.4934100000000  0.5258130000000 1.0
C      1  0.5179440000000  0.4652530000000  0.5434280000000 1.0
C      1  0.5093770000000  0.5036240000000  0.4827200000000 1.0
C      1  0.4979380000000  0.5548360000000  0.4642140000000 1.0
C      1  0.5015950000000  0.4313690000000  0.4611210000000 1.0
C      1  0.5011600000000  0.5429100000000  0.5142730000000 1.0
C      1  0.4882270000000  0.4911680000000  0.4655270000000 1.0
C      1  0.4938400000000  0.5310780000000  0.4462520000000 1.0
C      1  0.4843650000000  0.5549630000000  0.4897540000000 1.0
C      1  0.5228000000000  0.5634160000000  0.4757100000000 1.0
C      1  0.4976000000000  0.4851170000000  0.5522470000000 1.0
C      1  0.4505130000000  0.5237490000000  0.4719820000000 1.0
C      1  0.5167490000000  0.5148900000000  0.4351550000000 1.0
C      1  0.4456790000000  0.4959250000000  0.5640820000000 1.0
C      1  0.5336850000000  0.5486770000000  0.5140300000000 1.0
C      1  0.4300680000000  0.5149890000000  0.5149160000000 1.0
C      1  0.4996300000000  0.5111790000000  0.5085130000000 1.0
C      1  0.5367350000000  0.5151420000000  0.4735380000000 1.0
C      1  0.5072130000000  0.4411550000000  0.5330670000000 1.0
C      1  0.4495870000000  0.4785670000000  0.4921780000000 1.0
C      1  0.4359760000000  0.5043860000000  0.4879410000000 1.0
C      1  0.5604190000000  0.5028230000000  0.4860090000000 1.0
C      1  0.5503660000000  0.4615870000000  0.5066490000000 1.0
C      1  0.4360650000000  0.4938460000000  0.5348380000000 1.0
C      1  0.4718630000000  0.4689360000000  0.4759960000000 1.0
C      1  0.5513510000000  0.5296260000000  0.5275660000000 1.0
C      1  0.5412280000000  0.5634950000000  0.4925120000000 1.0
C      1  0.5519710000000  0.5018660000000  0.5347220000000 1.0
C      1  0.5384320000000  0.4671730000000  0.4568830000000 1.0
C      1  0.4568600000000  0.5458620000000  0.4907270000000 1.0
C      1  0.4841590000000  0.4427680000000  0.4829060000000 1.0
C      1  0.4586980000000  0.5452120000000  0.5427370000000 1.0
C      1  0.5380010000000  0.4385760000000  0.4947030000000 1.0
C      1  0.5668310000000  0.5111080000000  0.5133000000000 1.0
C      1  0.5419320000000  0.5273740000000  0.4463110000000 1.0
C      1  0.4538180000000  0.5226510000000  0.5599330000000 1.0
END
