TITL C-4164246-3563-663 18.3990527704102 125000 -24774.8305322412 0 0 166 (C1) n - 1
REM
REM in /home/nfs/bkarasulu/CARBON/AIRSS/Generating-Clusters/ReaxFF-fromJPCA2015/Units_Real/with-SteepDescent/Only-C1/SD-CG/Try1-3A/FIRE-CG
REM
REM
REM
REM
REM
REM ./C.cell (11c1c37f851c82e70ff6c80c92926a4b)
REM
REM compiler GCC version 9.2.1 20190827 (Red Hat 9.2.1-1)
REM options -cpp -mtune=generic -march=x86-64 -g -O0 -fpre-include=/usr/include/finclude/math-vector-fortran.h
REM seed -1405774200 226055607 1316369026 376566127 402364622 1500841975 -1157486011 531866942 -398587080 671123861 884457151 -1506244247 -1192567609 1870198213 -1713232116 -1040973165 -1944419766 1077972294 -601103822 -1485776237 896765402 -1627823837 1947341828 82692022 478529996 -1852822894 296123961 82413755 -2044314947 -1843231984 -1063408579 151840497 950107189
REM
CELL 1.54180   50.00000   50.00000   50.00000   90.00000   90.00000   90.00000
LATT -1
SFAC C  
C      1  0.4164180000000  0.5338780000000  0.4592710000000 1.0
C      1  0.4510190000000  0.4576200000000  0.4012230000000 1.0
C      1  0.4854490000000  0.5174750000000  0.4925490000000 1.0
C      1  0.5720670000000  0.5675940000000  0.4607290000000 1.0
C      1  0.5294690000000  0.5359600000000  0.4560550000000 1.0
C      1  0.5305050000000  0.4828540000000  0.5912960000000 1.0
C      1  0.5183870000000  0.4506880000000  0.5290350000000 1.0
C      1  0.5388940000000  0.5672580000000  0.4245720000000 1.0
C      1  0.5280030000000  0.5964970000000  0.4617460000000 1.0
C      1  0.5221410000000  0.5311050000000  0.6235990000000 1.0
C      1  0.5358060000000  0.4297000000000  0.4219480000000 1.0
C      1  0.4698590000000  0.5823760000000  0.4757410000000 1.0
C      1  0.4762200000000  0.4689520000000  0.3925330000000 1.0
C      1  0.4912120000000  0.5234540000000  0.4464630000000 1.0
C      1  0.4141590000000  0.5652660000000  0.4662730000000 1.0
C      1  0.4306610000000  0.4810180000000  0.5850590000000 1.0
C      1  0.4545010000000  0.5681750000000  0.5682360000000 1.0
C      1  0.5846740000000  0.4949250000000  0.4351600000000 1.0
C      1  0.5005690000000  0.4056590000000  0.5040470000000 1.0
C      1  0.4743880000000  0.5994730000000  0.4503520000000 1.0
C      1  0.5103660000000  0.5612570000000  0.4246510000000 1.0
C      1  0.6015560000000  0.4767210000000  0.4490440000000 1.0
C      1  0.5354220000000  0.5324120000000  0.5460320000000 1.0
C      1  0.5875560000000  0.4772030000000  0.5451210000000 1.0
C      1  0.5182960000000  0.5109730000000  0.4433730000000 1.0
C      1  0.4457280000000  0.5379550000000  0.4119820000000 1.0
C      1  0.4597470000000  0.5615640000000  0.4581880000000 1.0
C      1  0.5360840000000  0.4707100000000  0.5188300000000 1.0
C      1  0.5517650000000  0.5206880000000  0.4069550000000 1.0
C      1  0.4217170000000  0.5696730000000  0.4948420000000 1.0
C      1  0.4570690000000  0.5171370000000  0.4877870000000 1.0
C      1  0.5300430000000  0.5047810000000  0.5413120000000 1.0
C      1  0.5968030000000  0.4408290000000  0.4857790000000 1.0
C      1  0.5855870000000  0.5676650000000  0.4886330000000 1.0
C      1  0.4620600000000  0.5335750000000  0.5335600000000 1.0
C      1  0.4942700000000  0.4022220000000  0.4751380000000 1.0
C      1  0.5021860000000  0.5522540000000  0.6164690000000 1.0
C      1  0.5172370000000  0.4033410000000  0.4572560000000 1.0
C      1  0.4597870000000  0.4428680000000  0.4741830000000 1.0
C      1  0.4237160000000  0.4766320000000  0.5357060000000 1.0
C      1  0.5840900000000  0.4613790000000  0.5009840000000 1.0
C      1  0.4252190000000  0.5800800000000  0.4444390000000 1.0
C      1  0.5182040000000  0.4934140000000  0.5168800000000 1.0
C      1  0.4305750000000  0.4541050000000  0.4174360000000 1.0
C      1  0.4566540000000  0.4444730000000  0.5612210000000 1.0
C      1  0.5820420000000  0.4197990000000  0.4997980000000 1.0
C      1  0.4895410000000  0.5497040000000  0.5016200000000 1.0
C      1  0.5486220000000  0.4112670000000  0.5236690000000 1.0
C      1  0.3986560000000  0.4959230000000  0.4557240000000 1.0
C      1  0.4971820000000  0.5185790000000  0.3997430000000 1.0
C      1  0.5575910000000  0.4467250000000  0.5684090000000 1.0
C      1  0.5047140000000  0.5518960000000  0.4531710000000 1.0
C      1  0.4046740000000  0.4593430000000  0.5181050000000 1.0
C      1  0.5661380000000  0.4479130000000  0.4522570000000 1.0
C      1  0.4335910000000  0.3888790000000  0.4700940000000 1.0
C      1  0.4286780000000  0.5160100000000  0.4145120000000 1.0
C      1  0.5433890000000  0.5385120000000  0.4805400000000 1.0
C      1  0.5645200000000  0.4950170000000  0.4129470000000 1.0
C      1  0.5798890000000  0.5168950000000  0.4548080000000 1.0
C      1  0.4782790000000  0.4743480000000  0.5965990000000 1.0
C      1  0.5833420000000  0.5133750000000  0.5684960000000 1.0
C      1  0.4310420000000  0.4269280000000  0.5555100000000 1.0
C      1  0.4366240000000  0.4735370000000  0.4852980000000 1.0
C      1  0.4555420000000  0.5784900000000  0.4342040000000 1.0
C      1  0.5117290000000  0.4206840000000  0.4341160000000 1.0
C      1  0.4290410000000  0.4073250000000  0.5340830000000 1.0
C      1  0.4817560000000  0.4261570000000  0.4648780000000 1.0
C      1  0.4633740000000  0.4839920000000  0.4423770000000 1.0
C      1  0.5398950000000  0.4804560000000  0.4066980000000 1.0
C      1  0.4889060000000  0.4699700000000  0.4404080000000 1.0
C      1  0.5403640000000  0.5110560000000  0.4877140000000 1.0
C      1  0.5508040000000  0.5511530000000  0.5864340000000 1.0
C      1  0.5949720000000  0.4505210000000  0.4575890000000 1.0
C      1  0.4907720000000  0.4420890000000  0.4298920000000 1.0
C      1  0.5080560000000  0.4388870000000  0.5803940000000 1.0
C      1  0.5800350000000  0.4862130000000  0.5732460000000 1.0
C      1  0.4136040000000  0.4913300000000  0.5609450000000 1.0
C      1  0.4879240000000  0.5744950000000  0.5454230000000 1.0
C      1  0.4695330000000  0.5024610000000  0.5981000000000 1.0
C      1  0.5091680000000  0.4825830000000  0.4574370000000 1.0
C      1  0.4130600000000  0.5414640000000  0.5422470000000 1.0
C      1  0.5444910000000  0.5539960000000  0.5288430000000 1.0
C      1  0.5332750000000  0.4292810000000  0.5674440000000 1.0
C      1  0.5682200000000  0.5862460000000  0.4999210000000 1.0
C      1  0.4754540000000  0.4990160000000  0.3964640000000 1.0
C      1  0.5409250000000  0.5773050000000  0.5460640000000 1.0
C      1  0.5116590000000  0.4323100000000  0.5079660000000 1.0
C      1  0.4112100000000  0.4648740000000  0.4883240000000 1.0
C      1  0.5331860000000  0.5560550000000  0.5019060000000 1.0
C      1  0.5919470000000  0.5452700000000  0.5070280000000 1.0
C      1  0.4136770000000  0.4570610000000  0.4373740000000 1.0
C      1  0.5737570000000  0.4260020000000  0.5280020000000 1.0
C      1  0.4813230000000  0.3985230000000  0.5244910000000 1.0
C      1  0.5933710000000  0.4977760000000  0.5257000000000 1.0
C      1  0.5586160000000  0.5459320000000  0.4198650000000 1.0
C      1  0.5667840000000  0.5846880000000  0.5552020000000 1.0
C      1  0.4397810000000  0.5041890000000  0.5995110000000 1.0
C      1  0.5549470000000  0.4228200000000  0.4434170000000 1.0
C      1  0.4977480000000  0.5723150000000  0.5957240000000 1.0
C      1  0.4767390000000  0.4543360000000  0.4948130000000 1.0
C      1  0.5238090000000  0.5081650000000  0.4100920000000 1.0
C      1  0.5553830000000  0.4622950000000  0.4987390000000 1.0
C      1  0.4524950000000  0.3973960000000  0.5175300000000 1.0
C      1  0.4004030000000  0.4667980000000  0.4606890000000 1.0
C      1  0.4501940000000  0.5333520000000  0.4622050000000 1.0
C      1  0.5878780000000  0.5377310000000  0.5590730000000 1.0
C      1  0.6044780000000  0.4885720000000  0.4711850000000 1.0
C      1  0.5036170000000  0.4669890000000  0.5488490000000 1.0
C      1  0.4079550000000  0.5159010000000  0.4365930000000 1.0
C      1  0.4496830000000  0.4644990000000  0.5369080000000 1.0
C      1  0.5055790000000  0.4641700000000  0.5946990000000 1.0
C      1  0.4454490000000  0.5862530000000  0.4984040000000 1.0
C      1  0.5575810000000  0.4705830000000  0.5841430000000 1.0
C      1  0.4154050000000  0.5486890000000  0.5141790000000 1.0
C      1  0.5271580000000  0.5472140000000  0.5694360000000 1.0
C      1  0.5517940000000  0.6002820000000  0.5349900000000 1.0
C      1  0.4643450000000  0.5571980000000  0.4109890000000 1.0
C      1  0.4920790000000  0.5468460000000  0.4067180000000 1.0
C      1  0.4962800000000  0.5706100000000  0.4812390000000 1.0
C      1  0.5080350000000  0.5696480000000  0.5671410000000 1.0
C      1  0.5279210000000  0.4124320000000  0.5449390000000 1.0
C      1  0.5478330000000  0.4596440000000  0.4718840000000 1.0
C      1  0.4290170000000  0.5282830000000  0.5867130000000 1.0
C      1  0.4508620000000  0.4963950000000  0.4121000000000 1.0
C      1  0.5493990000000  0.5817950000000  0.4481510000000 1.0
C      1  0.5024970000000  0.6052710000000  0.4477990000000 1.0
C      1  0.5107390000000  0.5017050000000  0.4880350000000 1.0
C      1  0.5734880000000  0.5610690000000  0.5704490000000 1.0
C      1  0.5557500000000  0.4077630000000  0.4941010000000 1.0
C      1  0.4778220000000  0.5555260000000  0.5271090000000 1.0
C      1  0.4863710000000  0.4319120000000  0.5622160000000 1.0
C      1  0.5215570000000  0.5866770000000  0.4889610000000 1.0
C      1  0.4987700000000  0.4528110000000  0.4035530000000 1.0
C      1  0.5755120000000  0.5445380000000  0.4438390000000 1.0
C      1  0.4128660000000  0.4313530000000  0.5339400000000 1.0
C      1  0.5344490000000  0.5087770000000  0.6109650000000 1.0
C      1  0.3767140000000  0.4688260000000  0.5304820000000 1.0
C      1  0.4328320000000  0.5005280000000  0.4912360000000 1.0
C      1  0.4885020000000  0.4881740000000  0.5333530000000 1.0
C      1  0.5447480000000  0.4073250000000  0.4665180000000 1.0
C      1  0.5200680000000  0.4872560000000  0.5620990000000 1.0
C      1  0.4345720000000  0.5331360000000  0.5266540000000 1.0
C      1  0.5033450000000  0.4458140000000  0.4839310000000 1.0
C      1  0.5761050000000  0.4494130000000  0.5457950000000 1.0
C      1  0.4739530000000  0.5209100000000  0.5757500000000 1.0
C      1  0.5284180000000  0.4541380000000  0.4061010000000 1.0
C      1  0.5669450000000  0.5049830000000  0.4786950000000 1.0
C      1  0.4628140000000  0.5890420000000  0.5516500000000 1.0
C      1  0.5917940000000  0.4883110000000  0.4952280000000 1.0
C      1  0.4134130000000  0.5217220000000  0.5635130000000 1.0
C      1  0.5453760000000  0.5990510000000  0.5060210000000 1.0
C      1  0.4533020000000  0.4632090000000  0.5848390000000 1.0
C      1  0.5115040000000  0.5424190000000  0.5108270000000 1.0
C      1  0.5936860000000  0.5267670000000  0.5287880000000 1.0
C      1  0.4972770000000  0.4104830000000  0.5458190000000 1.0
C      1  0.4428850000000  0.3927420000000  0.4922470000000 1.0
C      1  0.5490260000000  0.5332740000000  0.6097440000000 1.0
C      1  0.4538620000000  0.5441830000000  0.5814060000000 1.0
C      1  0.4494640000000  0.4666870000000  0.4615010000000 1.0
C      1  0.4086060000000  0.5117650000000  0.4779680000000 1.0
C      1  0.3835630000000  0.4805510000000  0.5478070000000 1.0
C      1  0.4665800000000  0.5130110000000  0.4472250000000 1.0
C      1  0.4752320000000  0.5125910000000  0.5487350000000 1.0
C      1  0.4498870000000  0.5958890000000  0.5246950000000 1.0
C      1  0.4695790000000  0.4712540000000  0.5166840000000 1.0
C      1  0.5211950000000  0.4615900000000  0.4689030000000 1.0
END
