TITL C-4164235-1454-367 8.05635817198597 125000 -13429.50544877 0 0 90 (C1) n - 1
REM
REM in /home/nfs/bkarasulu/CARBON/AIRSS/Generating-Clusters/ReaxFF-fromJPCA2015/Units_Real/with-SteepDescent/Only-C1/SD-CG/Try1-3A/FIRE-CG
REM
REM
REM
REM
REM
REM ./C.cell (11c1c37f851c82e70ff6c80c92926a4b)
REM
REM compiler GCC version 9.2.1 20190827 (Red Hat 9.2.1-1)
REM options -cpp -mtune=generic -march=x86-64 -g -O0 -fpre-include=/usr/include/finclude/math-vector-fortran.h
REM seed -396354438 -298660321 564172221 474907352 453112201 233057439 1074319828 -170418591 -1167912689 -333616146 -743212495 -872104813 -1491029845 1095481305 -572046494 -125882306 1958537728 1810883422 787273220 -1628845420 -1291613435 -1657380530 -1751798997 1651399109 175728907 1206915886 -1811793010 1233747074 605344422 420607224 -1371927875 994826400 -1730065267
REM
CELL 1.54180   50.00000   50.00000   50.00000   90.00000   90.00000   90.00000
LATT -1
SFAC C  
C      1  0.5152840000000  0.5084860000000  0.5720690000000 1.0
C      1  0.4802430000000  0.4413000000000  0.5632150000000 1.0
C      1  0.4288030000000  0.5079320000000  0.5282080000000 1.0
C      1  0.5049930000000  0.5574870000000  0.5559160000000 1.0
C      1  0.5010640000000  0.4719850000000  0.4843800000000 1.0
C      1  0.5034170000000  0.4240550000000  0.4694250000000 1.0
C      1  0.5086280000000  0.4456530000000  0.5622660000000 1.0
C      1  0.4436780000000  0.4816930000000  0.4414650000000 1.0
C      1  0.5490570000000  0.5134420000000  0.4952530000000 1.0
C      1  0.5077580000000  0.5295100000000  0.5080650000000 1.0
C      1  0.4454250000000  0.5380320000000  0.4449600000000 1.0
C      1  0.5751550000000  0.4544450000000  0.5014390000000 1.0
C      1  0.5062880000000  0.4989440000000  0.4764290000000 1.0
C      1  0.4400630000000  0.5740820000000  0.4861250000000 1.0
C      1  0.4963540000000  0.4285200000000  0.5187070000000 1.0
C      1  0.4928120000000  0.5259490000000  0.4822170000000 1.0
C      1  0.4750410000000  0.4265440000000  0.5383590000000 1.0
C      1  0.4610530000000  0.5005350000000  0.5203890000000 1.0
C      1  0.5425990000000  0.4385600000000  0.5397580000000 1.0
C      1  0.4939870000000  0.4625430000000  0.5118570000000 1.0
C      1  0.5261660000000  0.5089160000000  0.4255190000000 1.0
C      1  0.5369580000000  0.4807540000000  0.4291470000000 1.0
C      1  0.4325060000000  0.5064660000000  0.5566240000000 1.0
C      1  0.4686010000000  0.5532370000000  0.4547510000000 1.0
C      1  0.5156830000000  0.4778720000000  0.5225900000000 1.0
C      1  0.4395510000000  0.4814710000000  0.4847620000000 1.0
C      1  0.5462580000000  0.4228110000000  0.4948730000000 1.0
C      1  0.5672710000000  0.5319710000000  0.4533260000000 1.0
C      1  0.5486960000000  0.5374050000000  0.5574230000000 1.0
C      1  0.5209160000000  0.5720570000000  0.5368390000000 1.0
C      1  0.5511820000000  0.4890620000000  0.4535480000000 1.0
C      1  0.4611420000000  0.4989350000000  0.4922150000000 1.0
C      1  0.4696680000000  0.5718490000000  0.5300200000000 1.0
C      1  0.4836990000000  0.5762090000000  0.5051230000000 1.0
C      1  0.4605140000000  0.4299570000000  0.4930060000000 1.0
C      1  0.5789760000000  0.4841460000000  0.4613800000000 1.0
C      1  0.5479940000000  0.5616180000000  0.5405040000000 1.0
C      1  0.4678460000000  0.4729530000000  0.5224210000000 1.0
C      1  0.4424530000000  0.4742430000000  0.5610930000000 1.0
C      1  0.4470520000000  0.5303610000000  0.5571080000000 1.0
C      1  0.5029510000000  0.4508270000000  0.4591410000000 1.0
C      1  0.5574750000000  0.5102270000000  0.5502490000000 1.0
C      1  0.5329370000000  0.4204620000000  0.4709860000000 1.0
C      1  0.4549070000000  0.4434670000000  0.4680250000000 1.0
C      1  0.4870600000000  0.4195800000000  0.4925810000000 1.0
C      1  0.4979560000000  0.5168910000000  0.4268330000000 1.0
C      1  0.4760880000000  0.4478610000000  0.4492630000000 1.0
C      1  0.5115230000000  0.5800770000000  0.5096190000000 1.0
C      1  0.4086840000000  0.5084360000000  0.5066690000000 1.0
C      1  0.4873110000000  0.4927970000000  0.4275780000000 1.0
C      1  0.5827600000000  0.5121740000000  0.4709760000000 1.0
C      1  0.4872280000000  0.5025190000000  0.5638160000000 1.0
C      1  0.5164870000000  0.4264330000000  0.5420350000000 1.0
C      1  0.5360530000000  0.5339500000000  0.5080820000000 1.0
C      1  0.5096680000000  0.5062660000000  0.5245930000000 1.0
C      1  0.5597280000000  0.4319270000000  0.5171350000000 1.0
C      1  0.5407200000000  0.5313860000000  0.4382130000000 1.0
C      1  0.5276010000000  0.4666970000000  0.5471610000000 1.0
C      1  0.5493400000000  0.4431010000000  0.4577440000000 1.0
C      1  0.5782960000000  0.5156240000000  0.4999020000000 1.0
C      1  0.4671980000000  0.4856260000000  0.5757590000000 1.0
C      1  0.4539670000000  0.5488450000000  0.5380850000000 1.0
C      1  0.4756760000000  0.5595520000000  0.5545060000000 1.0
C      1  0.4160610000000  0.5288930000000  0.4857660000000 1.0
C      1  0.4695870000000  0.4714980000000  0.4320130000000 1.0
C      1  0.4634460000000  0.5262620000000  0.4866180000000 1.0
C      1  0.5770070000000  0.5024820000000  0.5271960000000 1.0
C      1  0.5708530000000  0.4582590000000  0.4722310000000 1.0
C      1  0.5352860000000  0.4995850000000  0.4746180000000 1.0
C      1  0.5765870000000  0.4776380000000  0.5164590000000 1.0
C      1  0.4207560000000  0.5267430000000  0.4565380000000 1.0
C      1  0.4523300000000  0.4341300000000  0.5215800000000 1.0
C      1  0.5297820000000  0.4558130000000  0.4411220000000 1.0
C      1  0.5570030000000  0.5547120000000  0.5138080000000 1.0
C      1  0.4683940000000  0.5732800000000  0.4782700000000 1.0
C      1  0.4943230000000  0.5401410000000  0.4495830000000 1.0
C      1  0.4841640000000  0.5111190000000  0.5365800000000 1.0
C      1  0.5373700000000  0.4929840000000  0.5610110000000 1.0
C      1  0.5675800000000  0.5511260000000  0.4732040000000 1.0
C      1  0.4366060000000  0.5095580000000  0.4391790000000 1.0
C      1  0.5214600000000  0.5525510000000  0.4441570000000 1.0
C      1  0.5311230000000  0.5839510000000  0.4872300000000 1.0
C      1  0.4623210000000  0.4594600000000  0.5756600000000 1.0
C      1  0.4357590000000  0.4647510000000  0.4636070000000 1.0
C      1  0.5217010000000  0.5368130000000  0.5686180000000 1.0
C      1  0.4408760000000  0.5436960000000  0.4926450000000 1.0
C      1  0.5589820000000  0.5720980000000  0.4900150000000 1.0
C      1  0.4138610000000  0.4879210000000  0.4882860000000 1.0
C      1  0.4454280000000  0.4595320000000  0.5331620000000 1.0
C      1  0.5249050000000  0.5782880000000  0.4591240000000 1.0
END
