TITL C-4164242-3624-317 -2.09517962485397 125000 -8801.03737406944 0 0 61 (C1) n - 1
REM
REM in /home/nfs/bkarasulu/CARBON/AIRSS/Generating-Clusters/ReaxFF-fromJPCA2015/Units_Real/with-SteepDescent/Only-C1/SD-CG/Try1-3A/FIRE-CG
REM
REM
REM
REM
REM
REM ./C.cell (11c1c37f851c82e70ff6c80c92926a4b)
REM
REM compiler GCC version 9.2.1 20190827 (Red Hat 9.2.1-1)
REM options -cpp -mtune=generic -march=x86-64 -g -O0 -fpre-include=/usr/include/finclude/math-vector-fortran.h
REM seed -1432832251 297056081 821961594 -808181236 -496968672 -1696812819 66472360 -1572759456 1115513946 1040537794 -576299201 569384902 1087567007 -1396059385 153580537 1086957194 -230387913 939723702 101203698 1299050287 -861395481 -1912838704 1162365951 -346233021 1836905872 288388505 -636016183 -1292718259 -210702807 1778279306 180885176 1939175024 185160226
REM
CELL 1.54180   50.00000   50.00000   50.00000   90.00000   90.00000   90.00000
LATT -1
SFAC C  
C      1  0.5427530000000  0.4814700000000  0.4550840000000 1.0
C      1  0.4538560000000  0.5249370000000  0.4654850000000 1.0
C      1  0.4466410000000  0.4976800000000  0.4586990000000 1.0
C      1  0.5274190000000  0.4924510000000  0.4328580000000 1.0
C      1  0.5292490000000  0.5024820000000  0.5562920000000 1.0
C      1  0.4340690000000  0.5176860000000  0.5071240000000 1.0
C      1  0.5553470000000  0.5478900000000  0.4890490000000 1.0
C      1  0.5173510000000  0.5209240000000  0.4418990000000 1.0
C      1  0.5111950000000  0.4519400000000  0.5599660000000 1.0
C      1  0.4837650000000  0.5102630000000  0.5374970000000 1.0
C      1  0.5061690000000  0.5019440000000  0.4890180000000 1.0
C      1  0.5525570000000  0.4731190000000  0.5371390000000 1.0
C      1  0.4905820000000  0.5197040000000  0.5863570000000 1.0
C      1  0.4331550000000  0.4883560000000  0.5068870000000 1.0
C      1  0.5038010000000  0.4317540000000  0.5409180000000 1.0
C      1  0.5628420000000  0.4965950000000  0.4700200000000 1.0
C      1  0.5144990000000  0.4584480000000  0.4972580000000 1.0
C      1  0.4442880000000  0.5420870000000  0.5242060000000 1.0
C      1  0.4572170000000  0.4548740000000  0.5431370000000 1.0
C      1  0.4817530000000  0.5702000000000  0.4948480000000 1.0
C      1  0.4650600000000  0.4587470000000  0.4799200000000 1.0
C      1  0.4827920000000  0.4462220000000  0.5555230000000 1.0
C      1  0.5436170000000  0.5390100000000  0.4502170000000 1.0
C      1  0.4543120000000  0.4379650000000  0.4979820000000 1.0
C      1  0.5694870000000  0.4746700000000  0.5172040000000 1.0
C      1  0.5418080000000  0.5439200000000  0.5416890000000 1.0
C      1  0.5029620000000  0.4202490000000  0.4887830000000 1.0
C      1  0.5185230000000  0.5213580000000  0.5777450000000 1.0
C      1  0.4590640000000  0.5182410000000  0.4933820000000 1.0
C      1  0.5085170000000  0.5768960000000  0.5025090000000 1.0
C      1  0.5354620000000  0.5169670000000  0.5308920000000 1.0
C      1  0.5619200000000  0.4565930000000  0.4824920000000 1.0
C      1  0.5042790000000  0.4816090000000  0.4198400000000 1.0
C      1  0.4933690000000  0.4201370000000  0.4613900000000 1.0
C      1  0.5773400000000  0.4795640000000  0.4898550000000 1.0
C      1  0.4718530000000  0.5435240000000  0.4471010000000 1.0
C      1  0.4506830000000  0.4385620000000  0.5209070000000 1.0
C      1  0.4786170000000  0.4465640000000  0.4550290000000 1.0
C      1  0.4419130000000  0.4796120000000  0.4806130000000 1.0
C      1  0.4914630000000  0.5311490000000  0.4277240000000 1.0
C      1  0.5250950000000  0.5768060000000  0.5185420000000 1.0
C      1  0.4840690000000  0.4658310000000  0.4352690000000 1.0
C      1  0.4518870000000  0.4791590000000  0.5274620000000 1.0
C      1  0.4705330000000  0.5159040000000  0.5632440000000 1.0
C      1  0.5346780000000  0.4587260000000  0.4747270000000 1.0
C      1  0.4533150000000  0.5342180000000  0.5501410000000 1.0
C      1  0.4725460000000  0.4951610000000  0.5155260000000 1.0
C      1  0.4982790000000  0.5090100000000  0.4627150000000 1.0
C      1  0.4778740000000  0.5587670000000  0.4689260000000 1.0
C      1  0.4711140000000  0.5530070000000  0.5172870000000 1.0
C      1  0.5467700000000  0.5651050000000  0.5062570000000 1.0
C      1  0.5118730000000  0.4327120000000  0.5118400000000 1.0
C      1  0.5324350000000  0.4734360000000  0.5563840000000 1.0
C      1  0.4752810000000  0.4938350000000  0.4464860000000 1.0
C      1  0.5623710000000  0.5274400000000  0.4683570000000 1.0
C      1  0.4949320000000  0.5362850000000  0.5266870000000 1.0
C      1  0.5153470000000  0.5592160000000  0.5429680000000 1.0
C      1  0.4848330000000  0.5044580000000  0.4190180000000 1.0
C      1  0.5285430000000  0.5472810000000  0.5669820000000 1.0
C      1  0.5157280000000  0.5205340000000  0.5099090000000 1.0
C      1  0.4909460000000  0.4767450000000  0.4967350000000 1.0
END
