TITL C-4164233-775-40 2.87132660936593 125000 -21649.8470432372 0 0 145 (C1) n - 1
REM
REM in /home/nfs/bkarasulu/CARBON/AIRSS/Generating-Clusters/ReaxFF-fromJPCA2015/Units_Real/with-SteepDescent/Only-C1/SD-CG/Try1-3A/FIRE-CG
REM
REM
REM
REM
REM
REM ./C.cell (11c1c37f851c82e70ff6c80c92926a4b)
REM
REM compiler GCC version 9.2.1 20190827 (Red Hat 9.2.1-1)
REM options -cpp -mtune=generic -march=x86-64 -g -O0 -fpre-include=/usr/include/finclude/math-vector-fortran.h
REM seed -1645204953 -1760399715 318772195 -768361626 -743475053 1127463988 -2059659602 -1695166138 -96346921 -1469131782 -259078471 320854869 1227213016 -980913929 2036216247 -1478246430 656896549 -1864033914 -1093273262 -1324474197 -166709735 -1541076124 -561830664 -1471242943 -2007303976 -1107527228 1064958893 833851292 -1038045327 -1228934007 -2265056 -1420176204 -1191222812
REM
CELL 1.54180   50.00000   50.00000   50.00000   90.00000   90.00000   90.00000
LATT -1
SFAC C  
C      1  0.4341610000000  0.5055280000000  0.4938410000000 1.0
C      1  0.5294310000000  0.4381110000000  0.5537140000000 1.0
C      1  0.4979960000000  0.5006010000000  0.5976510000000 1.0
C      1  0.4482530000000  0.5704560000000  0.5599820000000 1.0
C      1  0.5706750000000  0.4323340000000  0.4710940000000 1.0
C      1  0.5182660000000  0.5836310000000  0.5535230000000 1.0
C      1  0.5347430000000  0.5369690000000  0.4455030000000 1.0
C      1  0.5305150000000  0.5085910000000  0.5470280000000 1.0
C      1  0.5592990000000  0.5018280000000  0.4744290000000 1.0
C      1  0.4722250000000  0.4028210000000  0.5331030000000 1.0
C      1  0.5581590000000  0.4058440000000  0.5109570000000 1.0
C      1  0.5504740000000  0.4612280000000  0.5135800000000 1.0
C      1  0.5081490000000  0.5180000000000  0.4849410000000 1.0
C      1  0.4611990000000  0.4972640000000  0.4926730000000 1.0
C      1  0.5016920000000  0.5939680000000  0.4326300000000 1.0
C      1  0.4312410000000  0.5377280000000  0.4196480000000 1.0
C      1  0.5691650000000  0.4797010000000  0.4522770000000 1.0
C      1  0.5781620000000  0.4501270000000  0.5102450000000 1.0
C      1  0.4919150000000  0.5612270000000  0.4920350000000 1.0
C      1  0.4288170000000  0.5477000000000  0.5115930000000 1.0
C      1  0.4706370000000  0.5740960000000  0.5411700000000 1.0
C      1  0.5536330000000  0.5697460000000  0.5201010000000 1.0
C      1  0.4912140000000  0.5017840000000  0.5703870000000 1.0
C      1  0.4113640000000  0.4838790000000  0.5350180000000 1.0
C      1  0.4370350000000  0.5742060000000  0.4692230000000 1.0
C      1  0.5089310000000  0.4889760000000  0.5506890000000 1.0
C      1  0.5395800000000  0.5490640000000  0.4708640000000 1.0
C      1  0.4909450000000  0.4750510000000  0.4141600000000 1.0
C      1  0.5437140000000  0.4908700000000  0.5884440000000 1.0
C      1  0.6000650000000  0.5638230000000  0.5365390000000 1.0
C      1  0.5424040000000  0.4235000000000  0.4692580000000 1.0
C      1  0.4603140000000  0.4694490000000  0.4904020000000 1.0
C      1  0.4760180000000  0.5953680000000  0.4460820000000 1.0
C      1  0.4804950000000  0.4947430000000  0.4578060000000 1.0
C      1  0.4959510000000  0.4317420000000  0.4428680000000 1.0
C      1  0.5015060000000  0.5325210000000  0.6066820000000 1.0
C      1  0.5119440000000  0.4599350000000  0.5715810000000 1.0
C      1  0.4804370000000  0.5473170000000  0.5353790000000 1.0
C      1  0.5812660000000  0.4895680000000  0.5604660000000 1.0
C      1  0.5344910000000  0.4074490000000  0.4917060000000 1.0
C      1  0.4629360000000  0.5080480000000  0.5647470000000 1.0
C      1  0.5331480000000  0.6037200000000  0.5076620000000 1.0
C      1  0.4820170000000  0.4687940000000  0.4715610000000 1.0
C      1  0.5623530000000  0.4183210000000  0.5361820000000 1.0
C      1  0.4132000000000  0.4851800000000  0.4344570000000 1.0
C      1  0.5607420000000  0.4916810000000  0.4064050000000 1.0
C      1  0.4826930000000  0.5497370000000  0.5951610000000 1.0
C      1  0.5007700000000  0.4010100000000  0.5283420000000 1.0
C      1  0.4434300000000  0.4285400000000  0.5124050000000 1.0
C      1  0.4579910000000  0.4985680000000  0.4239080000000 1.0
C      1  0.4089550000000  0.4543740000000  0.5321890000000 1.0
C      1  0.5776440000000  0.5536210000000  0.5296400000000 1.0
C      1  0.5723960000000  0.4636360000000  0.5588100000000 1.0
C      1  0.5545450000000  0.5382500000000  0.4237050000000 1.0
C      1  0.4444620000000  0.5191690000000  0.4391150000000 1.0
C      1  0.4600070000000  0.4712180000000  0.5308300000000 1.0
C      1  0.5832640000000  0.4582110000000  0.4674160000000 1.0
C      1  0.5302380000000  0.5327860000000  0.5597060000000 1.0
C      1  0.4979810000000  0.4894640000000  0.4375160000000 1.0
C      1  0.5060870000000  0.5352510000000  0.4374690000000 1.0
C      1  0.4811490000000  0.4071450000000  0.4856200000000 1.0
C      1  0.4534800000000  0.4778150000000  0.5993400000000 1.0
C      1  0.4542170000000  0.5765740000000  0.4438690000000 1.0
C      1  0.5202090000000  0.5724400000000  0.4307450000000 1.0
C      1  0.4816580000000  0.4482750000000  0.4234230000000 1.0
C      1  0.5314570000000  0.5004380000000  0.4726510000000 1.0
C      1  0.4603770000000  0.4058040000000  0.5066160000000 1.0
C      1  0.5203000000000  0.5486890000000  0.4941010000000 1.0
C      1  0.5747200000000  0.5221330000000  0.4888970000000 1.0
C      1  0.5613770000000  0.4375900000000  0.5573380000000 1.0
C      1  0.4491120000000  0.4283420000000  0.4484920000000 1.0
C      1  0.4920340000000  0.5216890000000  0.4600370000000 1.0
C      1  0.5499080000000  0.5322840000000  0.5817890000000 1.0
C      1  0.4602860000000  0.5313250000000  0.5481020000000 1.0
C      1  0.4856850000000  0.5890370000000  0.4966110000000 1.0
C      1  0.5282320000000  0.5366380000000  0.5995190000000 1.0
C      1  0.5539390000000  0.5876200000000  0.4969650000000 1.0
C      1  0.5222110000000  0.4417000000000  0.4564530000000 1.0
C      1  0.5147440000000  0.5533330000000  0.5431120000000 1.0
C      1  0.4531580000000  0.4492180000000  0.4282820000000 1.0
C      1  0.5810200000000  0.5480060000000  0.4753400000000 1.0
C      1  0.4197960000000  0.4799100000000  0.5638130000000 1.0
C      1  0.5356510000000  0.4868940000000  0.5135250000000 1.0
C      1  0.4455150000000  0.4360300000000  0.5678780000000 1.0
C      1  0.4716510000000  0.5190520000000  0.4037430000000 1.0
C      1  0.4592180000000  0.4518560000000  0.5121500000000 1.0
C      1  0.4761000000000  0.4187240000000  0.4591260000000 1.0
C      1  0.5972810000000  0.4654220000000  0.4930110000000 1.0
C      1  0.5412900000000  0.4649900000000  0.4393190000000 1.0
C      1  0.5405170000000  0.4705760000000  0.4101290000000 1.0
C      1  0.4145950000000  0.4337530000000  0.5111950000000 1.0
C      1  0.4760990000000  0.5408580000000  0.5052830000000 1.0
C      1  0.5186630000000  0.4083870000000  0.5510470000000 1.0
C      1  0.5056900000000  0.4546320000000  0.4798430000000 1.0
C      1  0.4001180000000  0.5099490000000  0.4435610000000 1.0
C      1  0.5068900000000  0.4577600000000  0.5088300000000 1.0
C      1  0.5921160000000  0.5014800000000  0.5344130000000 1.0
C      1  0.4398310000000  0.4933440000000  0.5792630000000 1.0
C      1  0.4615940000000  0.4512390000000  0.5878740000000 1.0
C      1  0.4084020000000  0.5343390000000  0.4588530000000 1.0
C      1  0.5292180000000  0.5976940000000  0.4385000000000 1.0
C      1  0.4427170000000  0.6041620000000  0.4796750000000 1.0
C      1  0.4996410000000  0.5266460000000  0.4095680000000 1.0
C      1  0.5588190000000  0.5711960000000  0.4690360000000 1.0
C      1  0.4463560000000  0.5490530000000  0.4897030000000 1.0
C      1  0.5483650000000  0.5763940000000  0.4397060000000 1.0
C      1  0.4851580000000  0.5094130000000  0.5030280000000 1.0
C      1  0.5285470000000  0.4454020000000  0.5239770000000 1.0
C      1  0.4542530000000  0.5407960000000  0.4049060000000 1.0
C      1  0.4619980000000  0.4134590000000  0.5588560000000 1.0
C      1  0.4210800000000  0.4503910000000  0.5588230000000 1.0
C      1  0.4608050000000  0.4913350000000  0.5420580000000 1.0
C      1  0.4833340000000  0.5951180000000  0.5251030000000 1.0
C      1  0.5984680000000  0.4854230000000  0.5127290000000 1.0
C      1  0.5794530000000  0.4945380000000  0.4277820000000 1.0
C      1  0.5086380000000  0.3971280000000  0.5762260000000 1.0
C      1  0.4796950000000  0.4850650000000  0.6056420000000 1.0
C      1  0.5235080000000  0.4865520000000  0.4488520000000 1.0
C      1  0.4105990000000  0.4332050000000  0.4833980000000 1.0
C      1  0.5873400000000  0.5360030000000  0.4514150000000 1.0
C      1  0.5199410000000  0.5101290000000  0.3968960000000 1.0
C      1  0.5785450000000  0.4229630000000  0.4981040000000 1.0
C      1  0.5820970000000  0.5241310000000  0.4268430000000 1.0
C      1  0.4396700000000  0.4753390000000  0.4251490000000 1.0
C      1  0.5469910000000  0.5094720000000  0.5254330000000 1.0
C      1  0.4153520000000  0.5621050000000  0.4514020000000 1.0
C      1  0.4709820000000  0.6049180000000  0.4743480000000 1.0
C      1  0.5302540000000  0.5548140000000  0.5193640000000 1.0
C      1  0.5474240000000  0.5182920000000  0.4029930000000 1.0
C      1  0.5738010000000  0.5218130000000  0.5200500000000 1.0
C      1  0.4316140000000  0.5666240000000  0.4272260000000 1.0
C      1  0.5067630000000  0.4031670000000  0.4997470000000 1.0
C      1  0.4658690000000  0.5633310000000  0.5808300000000 1.0
C      1  0.5157480000000  0.4809070000000  0.3994240000000 1.0
C      1  0.4178810000000  0.5070230000000  0.5180640000000 1.0
C      1  0.4346610000000  0.5449840000000  0.5526510000000 1.0
C      1  0.5199250000000  0.4783980000000  0.5944920000000 1.0
C      1  0.4266050000000  0.4308390000000  0.4644740000000 1.0
C      1  0.4339370000000  0.5242340000000  0.4710270000000 1.0
C      1  0.4158460000000  0.5342730000000  0.5316500000000 1.0
C      1  0.4837040000000  0.4154370000000  0.5787000000000 1.0
C      1  0.5056370000000  0.4861690000000  0.5193300000000 1.0
C      1  0.5652040000000  0.5049990000000  0.5815610000000 1.0
C      1  0.5121410000000  0.6009260000000  0.5315820000000 1.0
C      1  0.4897900000000  0.4441250000000  0.5830280000000 1.0
END
