TITL C-4164245-3996-663 -1.29113863682908 125000 -16808.4407153843 0 0 114 (C1) n - 1
REM
REM in /home/nfs/bkarasulu/CARBON/AIRSS/Generating-Clusters/ReaxFF-fromJPCA2015/Units_Real/with-SteepDescent/Only-C1/SD-CG/Try1-3A/FIRE-CG
REM
REM
REM
REM
REM
REM ./C.cell (11c1c37f851c82e70ff6c80c92926a4b)
REM
REM compiler GCC version 9.2.1 20190827 (Red Hat 9.2.1-1)
REM options -cpp -mtune=generic -march=x86-64 -g -O0 -fpre-include=/usr/include/finclude/math-vector-fortran.h
REM seed 833601436 1068361620 1526298866 582882478 -1264592893 1602870595 1918336152 -354546729 1728455293 -1084001105 -2015276402 -822875629 1591444704 -1858044371 439918788 1125332027 -2005421860 -1625298439 -345841311 -1842985782 -522355955 -1409495257 2125659623 1403433006 -452053234 791166726 68152936 -1597075969 -594645653 475276666 1040469689 -1866862295 -1330121885
REM
CELL 1.54180   50.00000   50.00000   50.00000   90.00000   90.00000   90.00000
LATT -1
SFAC C  
C      1  0.5792790000000  0.4956780000000  0.5596140000000 1.0
C      1  0.4269780000000  0.4645170000000  0.4650350000000 1.0
C      1  0.5298200000000  0.5738210000000  0.5371650000000 1.0
C      1  0.4479930000000  0.4658100000000  0.5640610000000 1.0
C      1  0.5472330000000  0.5344540000000  0.5705190000000 1.0
C      1  0.5459600000000  0.5655890000000  0.4875010000000 1.0
C      1  0.4984840000000  0.4887300000000  0.4401920000000 1.0
C      1  0.5010420000000  0.4753440000000  0.4875360000000 1.0
C      1  0.5401600000000  0.4264240000000  0.4973760000000 1.0
C      1  0.5091030000000  0.5708230000000  0.5570510000000 1.0
C      1  0.5845900000000  0.4692120000000  0.4478240000000 1.0
C      1  0.5461140000000  0.4449540000000  0.5446950000000 1.0
C      1  0.4070770000000  0.5188810000000  0.4905300000000 1.0
C      1  0.4492600000000  0.5552830000000  0.5265470000000 1.0
C      1  0.4591030000000  0.4608480000000  0.4275510000000 1.0
C      1  0.4843280000000  0.5544300000000  0.4931540000000 1.0
C      1  0.4876860000000  0.4705400000000  0.4206100000000 1.0
C      1  0.5879070000000  0.5307630000000  0.5208550000000 1.0
C      1  0.4377850000000  0.4609430000000  0.4957040000000 1.0
C      1  0.5113640000000  0.5897350000000  0.4887420000000 1.0
C      1  0.5363270000000  0.4742730000000  0.5161030000000 1.0
C      1  0.4748710000000  0.5310680000000  0.5750980000000 1.0
C      1  0.5506500000000  0.5505040000000  0.5454570000000 1.0
C      1  0.4301930000000  0.4211670000000  0.5044540000000 1.0
C      1  0.4237760000000  0.5268160000000  0.4679100000000 1.0
C      1  0.4176140000000  0.5069320000000  0.5682510000000 1.0
C      1  0.5729970000000  0.5229150000000  0.5667480000000 1.0
C      1  0.4753980000000  0.5464010000000  0.5375060000000 1.0
C      1  0.4662050000000  0.5053810000000  0.5863360000000 1.0
C      1  0.5302730000000  0.5326260000000  0.4502830000000 1.0
C      1  0.5054360000000  0.5030690000000  0.5591130000000 1.0
C      1  0.4372680000000  0.4768780000000  0.4405500000000 1.0
C      1  0.5415050000000  0.4505620000000  0.4604870000000 1.0
C      1  0.4429970000000  0.5077100000000  0.4476520000000 1.0
C      1  0.4038450000000  0.4785620000000  0.4642010000000 1.0
C      1  0.4270760000000  0.5393880000000  0.5359550000000 1.0
C      1  0.4784950000000  0.5185790000000  0.5491320000000 1.0
C      1  0.5437060000000  0.4995540000000  0.4125900000000 1.0
C      1  0.4853180000000  0.4785760000000  0.4641030000000 1.0
C      1  0.4392400000000  0.5503730000000  0.4718710000000 1.0
C      1  0.5760380000000  0.4549870000000  0.4953220000000 1.0
C      1  0.4955620000000  0.5431720000000  0.5174380000000 1.0
C      1  0.4674190000000  0.4978490000000  0.5242100000000 1.0
C      1  0.4841640000000  0.5344930000000  0.4233580000000 1.0
C      1  0.5073950000000  0.5809430000000  0.4590380000000 1.0
C      1  0.4842360000000  0.5856280000000  0.4985970000000 1.0
C      1  0.5909260000000  0.4722520000000  0.4775080000000 1.0
C      1  0.4954770000000  0.4412510000000  0.5149290000000 1.0
C      1  0.4858190000000  0.4291550000000  0.5414850000000 1.0
C      1  0.5394790000000  0.4721950000000  0.4161490000000 1.0
C      1  0.4917580000000  0.5279040000000  0.4725590000000 1.0
C      1  0.5312560000000  0.5438540000000  0.4753220000000 1.0
C      1  0.4537090000000  0.5462550000000  0.4996860000000 1.0
C      1  0.5984200000000  0.5005180000000  0.4841750000000 1.0
C      1  0.5199950000000  0.5253590000000  0.5735660000000 1.0
C      1  0.4594660000000  0.5174290000000  0.5035920000000 1.0
C      1  0.5026620000000  0.5207810000000  0.4427250000000 1.0
C      1  0.5311970000000  0.5812400000000  0.5088600000000 1.0
C      1  0.4011540000000  0.5017790000000  0.5437450000000 1.0
C      1  0.5641810000000  0.4648690000000  0.5225520000000 1.0
C      1  0.5398640000000  0.4169360000000  0.5386640000000 1.0
C      1  0.5330910000000  0.4981990000000  0.4774380000000 1.0
C      1  0.4722030000000  0.5120540000000  0.4817000000000 1.0
C      1  0.4339700000000  0.4632740000000  0.5377550000000 1.0
C      1  0.4957310000000  0.5623330000000  0.4230010000000 1.0
C      1  0.3949880000000  0.4990310000000  0.4757750000000 1.0
C      1  0.4531750000000  0.4135740000000  0.4572770000000 1.0
C      1  0.5808940000000  0.5171510000000  0.4662770000000 1.0
C      1  0.5172520000000  0.5208300000000  0.4868650000000 1.0
C      1  0.5158260000000  0.5231480000000  0.5168040000000 1.0
C      1  0.4833730000000  0.4041560000000  0.5278640000000 1.0
C      1  0.4768830000000  0.4622780000000  0.5716900000000 1.0
C      1  0.4880730000000  0.4880770000000  0.5786930000000 1.0
C      1  0.5596750000000  0.4357730000000  0.4805840000000 1.0
C      1  0.5584000000000  0.5098570000000  0.4837180000000 1.0
C      1  0.5261810000000  0.4508790000000  0.5656860000000 1.0
C      1  0.4810880000000  0.5745150000000  0.4454160000000 1.0
C      1  0.4536410000000  0.4332280000000  0.4347010000000 1.0
C      1  0.4919030000000  0.4769710000000  0.5156900000000 1.0
C      1  0.5211530000000  0.5690860000000  0.4364750000000 1.0
C      1  0.4308910000000  0.4101320000000  0.4765440000000 1.0
C      1  0.4618680000000  0.4945110000000  0.4670360000000 1.0
C      1  0.4569110000000  0.5562780000000  0.4494000000000 1.0
C      1  0.4215790000000  0.5373400000000  0.5648510000000 1.0
C      1  0.4812300000000  0.5759150000000  0.5509060000000 1.0
C      1  0.4419480000000  0.4912000000000  0.5763720000000 1.0
C      1  0.5470100000000  0.5245990000000  0.4152950000000 1.0
C      1  0.4576040000000  0.5313740000000  0.4339480000000 1.0
C      1  0.5731720000000  0.5435260000000  0.4546810000000 1.0
C      1  0.5732590000000  0.5663650000000  0.4729630000000 1.0
C      1  0.5475490000000  0.5468520000000  0.4339420000000 1.0
C      1  0.5579270000000  0.4621440000000  0.4383220000000 1.0
C      1  0.4980540000000  0.4435370000000  0.5650670000000 1.0
C      1  0.5837500000000  0.4860090000000  0.5322720000000 1.0
C      1  0.5004220000000  0.5466480000000  0.5746060000000 1.0
C      1  0.5601750000000  0.4859020000000  0.5767360000000 1.0
C      1  0.5200420000000  0.4211730000000  0.5138700000000 1.0
C      1  0.5971340000000  0.5037310000000  0.5137670000000 1.0
C      1  0.5151390000000  0.4905000000000  0.5285630000000 1.0
C      1  0.4761300000000  0.5858500000000  0.5254020000000 1.0
C      1  0.4540670000000  0.4363200000000  0.4971760000000 1.0
C      1  0.5138550000000  0.4571570000000  0.4187600000000 1.0
C      1  0.5194210000000  0.4385000000000  0.4423200000000 1.0
C      1  0.4395570000000  0.4864090000000  0.5201830000000 1.0
C      1  0.5293120000000  0.4720880000000  0.4864290000000 1.0
C      1  0.4809760000000  0.4142730000000  0.4698200000000 1.0
C      1  0.5799700000000  0.5418070000000  0.5462840000000 1.0
C      1  0.5413470000000  0.5324040000000  0.5238480000000 1.0
C      1  0.5620490000000  0.5255420000000  0.5081240000000 1.0
C      1  0.4783530000000  0.4244930000000  0.4991050000000 1.0
C      1  0.4998670000000  0.4261430000000  0.4559710000000 1.0
C      1  0.4206510000000  0.4475050000000  0.5166510000000 1.0
C      1  0.4171660000000  0.5131130000000  0.5205210000000 1.0
C      1  0.5394840000000  0.4692820000000  0.5873080000000 1.0
END
