TITL C-4164239-2837-239 18.4309234596603 125000 -20903.4928889396 0 0 141 (C1) n - 1
REM
REM in /home/nfs/bkarasulu/CARBON/AIRSS/Generating-Clusters/ReaxFF-fromJPCA2015/Units_Real/with-SteepDescent/Only-C1/SD-CG/Try1-3A/FIRE-CG
REM
REM
REM
REM
REM
REM ./C.cell (11c1c37f851c82e70ff6c80c92926a4b)
REM
REM compiler GCC version 9.2.1 20190827 (Red Hat 9.2.1-1)
REM options -cpp -mtune=generic -march=x86-64 -g -O0 -fpre-include=/usr/include/finclude/math-vector-fortran.h
REM seed 1757616720 182116173 1779022437 2094596929 -1185731627 2031838467 1216770481 -1110699135 -1736054998 1651246228 -1902389503 513018735 1048030103 151969506 -1853659517 699268669 -1006322836 585628375 833945732 -1416850218 -1188628150 1221131503 -1952427638 -839531683 2135216014 -1576084851 1730383521 -45393649 -2011050158 -1622129338 -1382629141 -1258180075 -1441875841
REM
CELL 1.54180   50.00000   50.00000   50.00000   90.00000   90.00000   90.00000
LATT -1
SFAC C  
C      1  0.5362550000000  0.4840540000000  0.4485500000000 1.0
C      1  0.4890090000000  0.4074950000000  0.4684920000000 1.0
C      1  0.5392550000000  0.5121260000000  0.4528320000000 1.0
C      1  0.5426630000000  0.5805030000000  0.5743680000000 1.0
C      1  0.5122020000000  0.4549880000000  0.4655330000000 1.0
C      1  0.4990260000000  0.4361530000000  0.5092410000000 1.0
C      1  0.5312790000000  0.5260070000000  0.5387370000000 1.0
C      1  0.5564270000000  0.5230870000000  0.5570030000000 1.0
C      1  0.5898930000000  0.4489330000000  0.5263970000000 1.0
C      1  0.5108490000000  0.5642000000000  0.5755120000000 1.0
C      1  0.4614060000000  0.5946470000000  0.5223370000000 1.0
C      1  0.4959160000000  0.5895880000000  0.4818750000000 1.0
C      1  0.5963300000000  0.4995580000000  0.5345750000000 1.0
C      1  0.6036840000000  0.4732230000000  0.5216030000000 1.0
C      1  0.4865740000000  0.4120490000000  0.5482850000000 1.0
C      1  0.4625830000000  0.4003460000000  0.4794910000000 1.0
C      1  0.5809770000000  0.5495740000000  0.4685060000000 1.0
C      1  0.4562810000000  0.4546550000000  0.4966340000000 1.0
C      1  0.5463000000000  0.4770870000000  0.5856460000000 1.0
C      1  0.4943620000000  0.5353600000000  0.5202800000000 1.0
C      1  0.5856490000000  0.4969210000000  0.4335880000000 1.0
C      1  0.5041630000000  0.5390370000000  0.5949470000000 1.0
C      1  0.4585150000000  0.4386480000000  0.4240230000000 1.0
C      1  0.4660520000000  0.4271250000000  0.5331000000000 1.0
C      1  0.5103640000000  0.4286100000000  0.4821430000000 1.0
C      1  0.5538060000000  0.5220540000000  0.5865290000000 1.0
C      1  0.6088820000000  0.5007490000000  0.4770780000000 1.0
C      1  0.5311060000000  0.4384800000000  0.5663340000000 1.0
C      1  0.5125510000000  0.5016380000000  0.5465930000000 1.0
C      1  0.5100090000000  0.4198420000000  0.4220150000000 1.0
C      1  0.5232510000000  0.4802930000000  0.4731990000000 1.0
C      1  0.4255490000000  0.5271500000000  0.4399970000000 1.0
C      1  0.5232040000000  0.4589660000000  0.4388350000000 1.0
C      1  0.5629430000000  0.5136410000000  0.4691090000000 1.0
C      1  0.5250210000000  0.4601440000000  0.5864460000000 1.0
C      1  0.4965510000000  0.4714300000000  0.5886990000000 1.0
C      1  0.4401380000000  0.5698220000000  0.5620030000000 1.0
C      1  0.4501500000000  0.4776740000000  0.5095240000000 1.0
C      1  0.5599050000000  0.4766730000000  0.5042650000000 1.0
C      1  0.5658700000000  0.5714650000000  0.5231240000000 1.0
C      1  0.4640340000000  0.4523340000000  0.4505540000000 1.0
C      1  0.5227900000000  0.4761290000000  0.5383620000000 1.0
C      1  0.5673400000000  0.4701590000000  0.4066660000000 1.0
C      1  0.4382320000000  0.4050200000000  0.4947440000000 1.0
C      1  0.4470010000000  0.5688730000000  0.4741080000000 1.0
C      1  0.4302100000000  0.5091230000000  0.4179460000000 1.0
C      1  0.5671750000000  0.4937310000000  0.5848480000000 1.0
C      1  0.4083900000000  0.4830400000000  0.4503580000000 1.0
C      1  0.5213190000000  0.5574420000000  0.5468780000000 1.0
C      1  0.4077920000000  0.4620090000000  0.4709220000000 1.0
C      1  0.3985900000000  0.5221960000000  0.4853280000000 1.0
C      1  0.4478230000000  0.5201820000000  0.4930990000000 1.0
C      1  0.5915780000000  0.5569560000000  0.4934570000000 1.0
C      1  0.4833520000000  0.5171920000000  0.4068150000000 1.0
C      1  0.5243830000000  0.5241740000000  0.4013410000000 1.0
C      1  0.4524220000000  0.5208300000000  0.5215050000000 1.0
C      1  0.5719880000000  0.4999220000000  0.4081600000000 1.0
C      1  0.5536600000000  0.4437560000000  0.5475180000000 1.0
C      1  0.4022220000000  0.5115870000000  0.5116740000000 1.0
C      1  0.5327750000000  0.5427240000000  0.4857080000000 1.0
C      1  0.4212420000000  0.4793810000000  0.4241540000000 1.0
C      1  0.4515270000000  0.4810390000000  0.5912530000000 1.0
C      1  0.4725180000000  0.4802940000000  0.4438120000000 1.0
C      1  0.5280840000000  0.5293440000000  0.5926630000000 1.0
C      1  0.4462590000000  0.4544870000000  0.4726040000000 1.0
C      1  0.4091360000000  0.5114790000000  0.4569410000000 1.0
C      1  0.5544000000000  0.5493730000000  0.4110400000000 1.0
C      1  0.4380040000000  0.4573450000000  0.4192160000000 1.0
C      1  0.4783090000000  0.4922390000000  0.5986790000000 1.0
C      1  0.5113970000000  0.3984230000000  0.5381960000000 1.0
C      1  0.5425250000000  0.5700790000000  0.4244960000000 1.0
C      1  0.5535530000000  0.4128960000000  0.5067590000000 1.0
C      1  0.4849460000000  0.5883800000000  0.5412340000000 1.0
C      1  0.5402430000000  0.4199360000000  0.4816630000000 1.0
C      1  0.4569820000000  0.5374870000000  0.5876040000000 1.0
C      1  0.4715330000000  0.4352530000000  0.5070330000000 1.0
C      1  0.4439090000000  0.4926990000000  0.4851170000000 1.0
C      1  0.5713310000000  0.4516730000000  0.4586970000000 1.0
C      1  0.4813850000000  0.4664500000000  0.5643480000000 1.0
C      1  0.5619130000000  0.5082860000000  0.5004540000000 1.0
C      1  0.4255480000000  0.5697870000000  0.4948570000000 1.0
C      1  0.4653640000000  0.5252820000000  0.4683770000000 1.0
C      1  0.4951500000000  0.5770400000000  0.4492150000000 1.0
C      1  0.4236850000000  0.4264970000000  0.5098290000000 1.0
C      1  0.5319690000000  0.4047370000000  0.5203890000000 1.0
C      1  0.4749910000000  0.5670070000000  0.4835810000000 1.0
C      1  0.4597170000000  0.4978580000000  0.4613580000000 1.0
C      1  0.5873610000000  0.5506750000000  0.5208230000000 1.0
C      1  0.4535130000000  0.4596550000000  0.5718180000000 1.0
C      1  0.4326810000000  0.5250100000000  0.5757230000000 1.0
C      1  0.4943220000000  0.4113730000000  0.4422890000000 1.0
C      1  0.4860410000000  0.4346940000000  0.4094600000000 1.0
C      1  0.4934690000000  0.5216240000000  0.4660510000000 1.0
C      1  0.4119070000000  0.4447630000000  0.4904270000000 1.0
C      1  0.5855680000000  0.5210560000000  0.5185060000000 1.0
C      1  0.4749200000000  0.6053200000000  0.4986940000000 1.0
C      1  0.6041150000000  0.4764370000000  0.4913010000000 1.0
C      1  0.4481960000000  0.5499270000000  0.4506930000000 1.0
C      1  0.5488290000000  0.5789590000000  0.4998500000000 1.0
C      1  0.4563590000000  0.5174030000000  0.4125880000000 1.0
C      1  0.5097240000000  0.5796660000000  0.5285160000000 1.0
C      1  0.4866890000000  0.4876240000000  0.4188110000000 1.0
C      1  0.4368190000000  0.4347010000000  0.5346660000000 1.0
C      1  0.4292990000000  0.4957910000000  0.5780050000000 1.0
C      1  0.4612850000000  0.4950900000000  0.5303790000000 1.0
C      1  0.4314860000000  0.4574490000000  0.5521690000000 1.0
C      1  0.5132330000000  0.5581960000000  0.4348820000000 1.0
C      1  0.5042760000000  0.5383270000000  0.4115490000000 1.0
C      1  0.5706550000000  0.4285700000000  0.5290530000000 1.0
C      1  0.4090500000000  0.5468320000000  0.4928320000000 1.0
C      1  0.4928710000000  0.4858370000000  0.5049500000000 1.0
C      1  0.5519460000000  0.4295440000000  0.4565490000000 1.0
C      1  0.5198650000000  0.5850920000000  0.5024130000000 1.0
C      1  0.4178360000000  0.4836620000000  0.5546040000000 1.0
C      1  0.4725830000000  0.5632780000000  0.4420230000000 1.0
C      1  0.4094440000000  0.5084350000000  0.5383880000000 1.0
C      1  0.4802230000000  0.5579640000000  0.5099940000000 1.0
C      1  0.4607130000000  0.5666310000000  0.5804730000000 1.0
C      1  0.5523310000000  0.5238840000000  0.4000690000000 1.0
C      1  0.5389650000000  0.5261850000000  0.5089380000000 1.0
C      1  0.4847110000000  0.4923690000000  0.5485060000000 1.0
C      1  0.5040740000000  0.4635730000000  0.5186650000000 1.0
C      1  0.5016080000000  0.5113430000000  0.5091950000000 1.0
C      1  0.5772480000000  0.4628920000000  0.4852080000000 1.0
C      1  0.5346270000000  0.4329020000000  0.4326570000000 1.0
C      1  0.4856570000000  0.5778820000000  0.5681020000000 1.0
C      1  0.5774070000000  0.5031930000000  0.5566350000000 1.0
C      1  0.5053690000000  0.5015080000000  0.4820910000000 1.0
C      1  0.4191140000000  0.5336550000000  0.5519640000000 1.0
C      1  0.5798060000000  0.4682730000000  0.4352770000000 1.0
C      1  0.4352850000000  0.5789750000000  0.5215140000000 1.0
C      1  0.4686460000000  0.5419250000000  0.5300080000000 1.0
C      1  0.5114830000000  0.4173880000000  0.5621660000000 1.0
C      1  0.5543200000000  0.5607560000000  0.4763150000000 1.0
C      1  0.5509160000000  0.4684080000000  0.5306640000000 1.0
C      1  0.5183610000000  0.5336060000000  0.4582940000000 1.0
C      1  0.4217690000000  0.5628760000000  0.5430740000000 1.0
C      1  0.5498210000000  0.5713440000000  0.5492450000000 1.0
C      1  0.4896000000000  0.4624460000000  0.4074960000000 1.0
C      1  0.5904460000000  0.5169560000000  0.4582270000000 1.0
C      1  0.4795080000000  0.5219520000000  0.5962020000000 1.0
END
