TITL C-4164238-4211-248 19.494167332274 125000 -23775.9567839275 0 0 159 (C1) n - 1
REM
REM in /home/nfs/bkarasulu/CARBON/AIRSS/Generating-Clusters/ReaxFF-fromJPCA2015/Units_Real/with-SteepDescent/Only-C1/SD-CG/Try1-3A/FIRE-CG
REM
REM
REM
REM
REM
REM ./C.cell (11c1c37f851c82e70ff6c80c92926a4b)
REM
REM compiler GCC version 9.2.1 20190827 (Red Hat 9.2.1-1)
REM options -cpp -mtune=generic -march=x86-64 -g -O0 -fpre-include=/usr/include/finclude/math-vector-fortran.h
REM seed -179241823 -1217216693 1906571846 -1268337601 -969786712 -1759491486 882892153 -1650590063 -2028194840 1930373103 191813292 1906869527 1203158661 -866310091 1322306638 472389680 86482745 1877522825 -1455091023 -822734571 1325811119 -301627047 -2128629657 -448380905 -43037927 896070159 91566910 1720261798 -511384900 -202883241 -70274917 1124211203 2093039501
REM
CELL 1.54180   50.00000   50.00000   50.00000   90.00000   90.00000   90.00000
LATT -1
SFAC C  
C      1  0.4540540000000  0.5484220000000  0.4903160000000 1.0
C      1  0.5410160000000  0.4102540000000  0.5295540000000 1.0
C      1  0.4708000000000  0.4499660000000  0.5709510000000 1.0
C      1  0.5545860000000  0.5761290000000  0.4360010000000 1.0
C      1  0.4302600000000  0.4912580000000  0.4426360000000 1.0
C      1  0.5658440000000  0.5244380000000  0.4543190000000 1.0
C      1  0.4181950000000  0.5125650000000  0.4242110000000 1.0
C      1  0.4432910000000  0.5091860000000  0.4065720000000 1.0
C      1  0.4368160000000  0.4809910000000  0.5859490000000 1.0
C      1  0.5865180000000  0.4636710000000  0.5304090000000 1.0
C      1  0.5194090000000  0.5631270000000  0.5586520000000 1.0
C      1  0.5590050000000  0.4813180000000  0.4908600000000 1.0
C      1  0.5587250000000  0.5006850000000  0.4683730000000 1.0
C      1  0.4848370000000  0.5432530000000  0.5278850000000 1.0
C      1  0.5067660000000  0.4254380000000  0.4142990000000 1.0
C      1  0.4636790000000  0.5734730000000  0.4288800000000 1.0
C      1  0.4954790000000  0.5132240000000  0.3997790000000 1.0
C      1  0.5685160000000  0.5842160000000  0.4789970000000 1.0
C      1  0.4898790000000  0.4080930000000  0.5444200000000 1.0
C      1  0.4890880000000  0.5321300000000  0.5877100000000 1.0
C      1  0.5033720000000  0.5003380000000  0.5650160000000 1.0
C      1  0.4336960000000  0.5815770000000  0.4299500000000 1.0
C      1  0.5102670000000  0.5389740000000  0.4575930000000 1.0
C      1  0.4083420000000  0.5275780000000  0.4459850000000 1.0
C      1  0.5817820000000  0.4428290000000  0.4937580000000 1.0
C      1  0.4593440000000  0.5597480000000  0.4681080000000 1.0
C      1  0.5302000000000  0.5064780000000  0.6017900000000 1.0
C      1  0.5354120000000  0.4533970000000  0.4953280000000 1.0
C      1  0.4056210000000  0.5311500000000  0.5517810000000 1.0
C      1  0.5684220000000  0.5654530000000  0.5412300000000 1.0
C      1  0.5482000000000  0.5099970000000  0.4050620000000 1.0
C      1  0.4715320000000  0.4119470000000  0.4784510000000 1.0
C      1  0.4607030000000  0.5397420000000  0.5417860000000 1.0
C      1  0.5257730000000  0.5207780000000  0.4425520000000 1.0
C      1  0.4790920000000  0.4247350000000  0.4265420000000 1.0
C      1  0.4648530000000  0.4751500000000  0.5861350000000 1.0
C      1  0.4194060000000  0.4362200000000  0.4701470000000 1.0
C      1  0.5475470000000  0.5314420000000  0.4257870000000 1.0
C      1  0.5369680000000  0.5508130000000  0.5786640000000 1.0
C      1  0.4587440000000  0.6107710000000  0.4964720000000 1.0
C      1  0.5119190000000  0.5427270000000  0.5392000000000 1.0
C      1  0.3922810000000  0.5387330000000  0.5254970000000 1.0
C      1  0.4884200000000  0.6073030000000  0.4940120000000 1.0
C      1  0.5212850000000  0.4988610000000  0.4000020000000 1.0
C      1  0.5723260000000  0.5569040000000  0.4929790000000 1.0
C      1  0.4496070000000  0.5150450000000  0.5423250000000 1.0
C      1  0.4794990000000  0.5460550000000  0.5004470000000 1.0
C      1  0.4577590000000  0.5859760000000  0.5381710000000 1.0
C      1  0.4203050000000  0.4801020000000  0.5614190000000 1.0
C      1  0.5060580000000  0.3837640000000  0.5137710000000 1.0
C      1  0.4426470000000  0.5084000000000  0.6015840000000 1.0
C      1  0.5162020000000  0.4437560000000  0.4740990000000 1.0
C      1  0.4827300000000  0.4095650000000  0.4522250000000 1.0
C      1  0.4996440000000  0.5411420000000  0.4067680000000 1.0
C      1  0.5726840000000  0.5178350000000  0.5897320000000 1.0
C      1  0.4054770000000  0.5657550000000  0.5278610000000 1.0
C      1  0.5186020000000  0.4584850000000  0.5946200000000 1.0
C      1  0.4169820000000  0.4853460000000  0.4677020000000 1.0
C      1  0.4723380000000  0.5261070000000  0.4400240000000 1.0
C      1  0.5220710000000  0.4616840000000  0.5465670000000 1.0
C      1  0.5646720000000  0.4484680000000  0.4420970000000 1.0
C      1  0.5137220000000  0.5063180000000  0.4963160000000 1.0
C      1  0.5848330000000  0.5213420000000  0.5236370000000 1.0
C      1  0.5186560000000  0.3723670000000  0.4908730000000 1.0
C      1  0.5225240000000  0.5171570000000  0.5493730000000 1.0
C      1  0.5192630000000  0.4409690000000  0.5680510000000 1.0
C      1  0.4937960000000  0.5761060000000  0.5651930000000 1.0
C      1  0.5138880000000  0.4614220000000  0.5181790000000 1.0
C      1  0.5868150000000  0.4815240000000  0.5518340000000 1.0
C      1  0.5416510000000  0.5942840000000  0.4823780000000 1.0
C      1  0.5384890000000  0.5196970000000  0.5031080000000 1.0
C      1  0.4230840000000  0.5075770000000  0.5513790000000 1.0
C      1  0.5789860000000  0.4388890000000  0.5229790000000 1.0
C      1  0.5167030000000  0.4889740000000  0.4736050000000 1.0
C      1  0.5282390000000  0.5788450000000  0.4308940000000 1.0
C      1  0.4585870000000  0.4452720000000  0.4232170000000 1.0
C      1  0.6009190000000  0.4813400000000  0.4661030000000 1.0
C      1  0.5190330000000  0.5318940000000  0.5926740000000 1.0
C      1  0.5669410000000  0.4893800000000  0.4129450000000 1.0
C      1  0.4277770000000  0.4292270000000  0.4972020000000 1.0
C      1  0.5121500000000  0.4868480000000  0.5901480000000 1.0
C      1  0.5626850000000  0.4220350000000  0.5437660000000 1.0
C      1  0.5925310000000  0.5101330000000  0.5486550000000 1.0
C      1  0.4170220000000  0.5798960000000  0.5051270000000 1.0
C      1  0.5645430000000  0.5515500000000  0.5679800000000 1.0
C      1  0.5915030000000  0.4909470000000  0.4270320000000 1.0
C      1  0.4193860000000  0.5567770000000  0.5520880000000 1.0
C      1  0.5492130000000  0.5814270000000  0.5283380000000 1.0
C      1  0.5370920000000  0.4253170000000  0.5049990000000 1.0
C      1  0.5476900000000  0.4721610000000  0.4291730000000 1.0
C      1  0.5873640000000  0.4718540000000  0.4902210000000 1.0
C      1  0.5861240000000  0.5310800000000  0.5703730000000 1.0
C      1  0.5563110000000  0.4220370000000  0.4433240000000 1.0
C      1  0.5134140000000  0.4102710000000  0.5006870000000 1.0
C      1  0.4834630000000  0.5000140000000  0.4448000000000 1.0
C      1  0.3936830000000  0.5230800000000  0.5011800000000 1.0
C      1  0.5830380000000  0.5495610000000  0.5206860000000 1.0
C      1  0.4866100000000  0.4489010000000  0.5105020000000 1.0
C      1  0.5445920000000  0.4767540000000  0.5532840000000 1.0
C      1  0.5713160000000  0.4344500000000  0.4668020000000 1.0
C      1  0.4961050000000  0.5960380000000  0.4676070000000 1.0
C      1  0.4911810000000  0.4299950000000  0.5639980000000 1.0
C      1  0.5028580000000  0.5997890000000  0.5183120000000 1.0
C      1  0.4501290000000  0.5618830000000  0.5557570000000 1.0
C      1  0.5414160000000  0.4495100000000  0.6112290000000 1.0
C      1  0.5610060000000  0.4470330000000  0.5876870000000 1.0
C      1  0.4655750000000  0.4370720000000  0.5270410000000 1.0
C      1  0.4901640000000  0.4873880000000  0.5419080000000 1.0
C      1  0.4655510000000  0.4960290000000  0.5282980000000 1.0
C      1  0.4770800000000  0.5557930000000  0.5765920000000 1.0
C      1  0.4562210000000  0.5037860000000  0.4516550000000 1.0
C      1  0.4721710000000  0.4689760000000  0.4140330000000 1.0
C      1  0.4723950000000  0.4689880000000  0.4876700000000 1.0
C      1  0.4351780000000  0.5298620000000  0.4836930000000 1.0
C      1  0.5003150000000  0.4671880000000  0.4659140000000 1.0
C      1  0.5579970000000  0.4967340000000  0.5977990000000 1.0
C      1  0.6091940000000  0.4894160000000  0.4442090000000 1.0
C      1  0.5037080000000  0.4882470000000  0.5166770000000 1.0
C      1  0.5771400000000  0.5740190000000  0.4525970000000 1.0
C      1  0.4162910000000  0.4487750000000  0.5165630000000 1.0
C      1  0.5250250000000  0.5529180000000  0.4173840000000 1.0
C      1  0.5427710000000  0.5449450000000  0.4948790000000 1.0
C      1  0.5591940000000  0.5045160000000  0.5141120000000 1.0
C      1  0.4735680000000  0.5474030000000  0.4192620000000 1.0
C      1  0.5499840000000  0.4293380000000  0.5681960000000 1.0
C      1  0.4690310000000  0.4969390000000  0.4026610000000 1.0
C      1  0.4035370000000  0.4606310000000  0.4743500000000 1.0
C      1  0.5214550000000  0.4750770000000  0.4163920000000 1.0
C      1  0.4095350000000  0.5703430000000  0.4786720000000 1.0
C      1  0.4326370000000  0.5014220000000  0.4918690000000 1.0
C      1  0.4982520000000  0.5318020000000  0.4835580000000 1.0
C      1  0.4070260000000  0.5381370000000  0.4751660000000 1.0
C      1  0.5160490000000  0.3962640000000  0.5380800000000 1.0
C      1  0.4570060000000  0.4894710000000  0.5029110000000 1.0
C      1  0.5438380000000  0.5015500000000  0.5391440000000 1.0
C      1  0.5245850000000  0.3813890000000  0.4662760000000 1.0
C      1  0.4704360000000  0.5055210000000  0.5932520000000 1.0
C      1  0.5123350000000  0.4110230000000  0.4570200000000 1.0
C      1  0.4555610000000  0.4562840000000  0.4683480000000 1.0
C      1  0.3991840000000  0.4683530000000  0.5027050000000 1.0
C      1  0.5651710000000  0.4748020000000  0.5753090000000 1.0
C      1  0.4044560000000  0.4972710000000  0.5067220000000 1.0
C      1  0.5317290000000  0.5952160000000  0.5119140000000 1.0
C      1  0.5807580000000  0.5463720000000  0.4640330000000 1.0
C      1  0.4244220000000  0.4567830000000  0.5438470000000 1.0
C      1  0.4514120000000  0.4099040000000  0.4992880000000 1.0
C      1  0.4421500000000  0.4451960000000  0.4498560000000 1.0
C      1  0.4855280000000  0.5917300000000  0.5407980000000 1.0
C      1  0.4503550000000  0.4456870000000  0.5506340000000 1.0
C      1  0.5199100000000  0.5526580000000  0.4802010000000 1.0
C      1  0.4958620000000  0.4735180000000  0.4323370000000 1.0
C      1  0.5347630000000  0.4953260000000  0.4535200000000 1.0
C      1  0.4423530000000  0.5935830000000  0.5142620000000 1.0
C      1  0.4650140000000  0.4083620000000  0.5257980000000 1.0
C      1  0.5280700000000  0.4161390000000  0.4328300000000 1.0
C      1  0.4739230000000  0.5784940000000  0.4562190000000 1.0
C      1  0.4201150000000  0.5781950000000  0.4550810000000 1.0
C      1  0.4951410000000  0.4285050000000  0.4906450000000 1.0
C      1  0.5230040000000  0.5917610000000  0.4601150000000 1.0
END
