TITL C-4164233-775-399 25.3759649832309 125000 -25416.9651338243 0 0 170 (C1) n - 1
REM
REM in /home/nfs/bkarasulu/CARBON/AIRSS/Generating-Clusters/ReaxFF-fromJPCA2015/Units_Real/with-SteepDescent/Only-C1/SD-CG/Try1-3A/FIRE-CG
REM
REM
REM
REM
REM
REM ./C.cell (11c1c37f851c82e70ff6c80c92926a4b)
REM
REM compiler GCC version 9.2.1 20190827 (Red Hat 9.2.1-1)
REM options -cpp -mtune=generic -march=x86-64 -g -O0 -fpre-include=/usr/include/finclude/math-vector-fortran.h
REM seed 339221016 -13277903 1837981005 -1497125888 745573880 94882765 1899840629 -1470666876 -274010549 1610390457 -1776496714 2082080452 1298017923 1795375461 1488531154 268950247 167054132 -744697711 1755842899 -1860758603 -1995573420 -936592213 -346577491 1281988895 -170074989 846451741 -2066733828 367777435 -1590898621 1981735259 -692202796 894141102 1354390064
REM
CELL 1.54180   50.00000   50.00000   50.00000   90.00000   90.00000   90.00000
LATT -1
SFAC C  
C      1  0.4642090000000  0.4337640000000  0.4827590000000 1.0
C      1  0.5336120000000  0.4695610000000  0.3935630000000 1.0
C      1  0.4103330000000  0.4332630000000  0.4947930000000 1.0
C      1  0.5218210000000  0.4764660000000  0.5565930000000 1.0
C      1  0.4461320000000  0.4923280000000  0.5045710000000 1.0
C      1  0.5459550000000  0.5452120000000  0.4290930000000 1.0
C      1  0.5714330000000  0.5916550000000  0.5277020000000 1.0
C      1  0.5098890000000  0.5129120000000  0.5172710000000 1.0
C      1  0.5654190000000  0.5192560000000  0.5105260000000 1.0
C      1  0.4032530000000  0.5060000000000  0.5044840000000 1.0
C      1  0.6068460000000  0.4939370000000  0.4871150000000 1.0
C      1  0.4857520000000  0.5586350000000  0.5085390000000 1.0
C      1  0.5495740000000  0.5433560000000  0.5057990000000 1.0
C      1  0.4394190000000  0.5781060000000  0.5580730000000 1.0
C      1  0.4722870000000  0.6052370000000  0.4909680000000 1.0
C      1  0.4233850000000  0.4380720000000  0.5384640000000 1.0
C      1  0.4089670000000  0.4559750000000  0.5185980000000 1.0
C      1  0.5748470000000  0.4266320000000  0.5003890000000 1.0
C      1  0.4278140000000  0.5791000000000  0.5125090000000 1.0
C      1  0.4445950000000  0.5589700000000  0.5809280000000 1.0
C      1  0.5742190000000  0.5033410000000  0.5750450000000 1.0
C      1  0.4987990000000  0.5887500000000  0.5502010000000 1.0
C      1  0.4082290000000  0.5032050000000  0.4433620000000 1.0
C      1  0.5257600000000  0.4504760000000  0.4435960000000 1.0
C      1  0.5145600000000  0.4310670000000  0.5257710000000 1.0
C      1  0.5390230000000  0.4786570000000  0.5125550000000 1.0
C      1  0.5277090000000  0.4904510000000  0.6024080000000 1.0
C      1  0.4783850000000  0.5206170000000  0.4437970000000 1.0
C      1  0.4894030000000  0.5347140000000  0.3982590000000 1.0
C      1  0.5974390000000  0.5211680000000  0.4792450000000 1.0
C      1  0.6020400000000  0.4689620000000  0.5228780000000 1.0
C      1  0.5034610000000  0.4640360000000  0.3927300000000 1.0
C      1  0.4563170000000  0.4762140000000  0.5462190000000 1.0
C      1  0.5705760000000  0.4514390000000  0.5562420000000 1.0
C      1  0.5046950000000  0.5077530000000  0.4446350000000 1.0
C      1  0.4475950000000  0.4097420000000  0.4747970000000 1.0
C      1  0.4226300000000  0.4695460000000  0.4628150000000 1.0
C      1  0.5694830000000  0.4748230000000  0.5760790000000 1.0
C      1  0.4758830000000  0.4896630000000  0.5606420000000 1.0
C      1  0.4122930000000  0.5587780000000  0.4960820000000 1.0
C      1  0.5194080000000  0.5713610000000  0.4828770000000 1.0
C      1  0.4986220000000  0.4826020000000  0.5745090000000 1.0
C      1  0.6006820000000  0.5402550000000  0.5017350000000 1.0
C      1  0.5375270000000  0.4574770000000  0.4713320000000 1.0
C      1  0.5338640000000  0.5480550000000  0.4032080000000 1.0
C      1  0.5297950000000  0.4218210000000  0.4406290000000 1.0
C      1  0.6089810000000  0.4964490000000  0.5155340000000 1.0
C      1  0.5692700000000  0.4815070000000  0.4325120000000 1.0
C      1  0.5146270000000  0.4031440000000  0.5333010000000 1.0
C      1  0.4359530000000  0.4612430000000  0.4217320000000 1.0
C      1  0.5389300000000  0.4736510000000  0.4229160000000 1.0
C      1  0.4895840000000  0.4452400000000  0.4082010000000 1.0
C      1  0.5517350000000  0.6067120000000  0.4942460000000 1.0
C      1  0.4861280000000  0.5627830000000  0.5560440000000 1.0
C      1  0.4907790000000  0.5962850000000  0.4405090000000 1.0
C      1  0.4754760000000  0.4275140000000  0.4241760000000 1.0
C      1  0.5359890000000  0.5023140000000  0.5544460000000 1.0
C      1  0.4821980000000  0.4389710000000  0.5828050000000 1.0
C      1  0.5325510000000  0.5468050000000  0.5511960000000 1.0
C      1  0.4588770000000  0.5071070000000  0.4234000000000 1.0
C      1  0.4916840000000  0.4085610000000  0.4467390000000 1.0
C      1  0.4553030000000  0.4727590000000  0.4598150000000 1.0
C      1  0.4044310000000  0.5333530000000  0.5124740000000 1.0
C      1  0.4873230000000  0.5418810000000  0.4846150000000 1.0
C      1  0.5739300000000  0.5372080000000  0.4350610000000 1.0
C      1  0.5738580000000  0.5083740000000  0.4339310000000 1.0
C      1  0.4099150000000  0.4946030000000  0.5536520000000 1.0
C      1  0.5361150000000  0.3969790000000  0.5146260000000 1.0
C      1  0.4145390000000  0.4407290000000  0.4670740000000 1.0
C      1  0.5874970000000  0.5616870000000  0.4859680000000 1.0
C      1  0.4996860000000  0.4551710000000  0.4554730000000 1.0
C      1  0.5142580000000  0.4403090000000  0.5838730000000 1.0
C      1  0.4918830000000  0.4429260000000  0.5359440000000 1.0
C      1  0.5221540000000  0.6117940000000  0.4809640000000 1.0
C      1  0.5910560000000  0.4511280000000  0.5016990000000 1.0
C      1  0.4888760000000  0.5705880000000  0.4244260000000 1.0
C      1  0.4253260000000  0.5728010000000  0.4466260000000 1.0
C      1  0.5485800000000  0.5567890000000  0.5312880000000 1.0
C      1  0.5400060000000  0.5226180000000  0.3937690000000 1.0
C      1  0.5732750000000  0.5481940000000  0.5659490000000 1.0
C      1  0.4366990000000  0.4561930000000  0.5566010000000 1.0
C      1  0.4929050000000  0.5452610000000  0.6050670000000 1.0
C      1  0.5683000000000  0.5145210000000  0.4819650000000 1.0
C      1  0.5138150000000  0.5984810000000  0.5249040000000 1.0
C      1  0.4229190000000  0.4761290000000  0.5727670000000 1.0
C      1  0.4377400000000  0.4147890000000  0.5277490000000 1.0
C      1  0.5525190000000  0.4266720000000  0.5480210000000 1.0
C      1  0.5419190000000  0.5542040000000  0.4804810000000 1.0
C      1  0.4423230000000  0.5515790000000  0.4345300000000 1.0
C      1  0.4134900000000  0.4755820000000  0.4353720000000 1.0
C      1  0.5485260000000  0.4970120000000  0.4706360000000 1.0
C      1  0.5827940000000  0.5542820000000  0.4583110000000 1.0
C      1  0.4591330000000  0.5890550000000  0.5381810000000 1.0
C      1  0.5852900000000  0.5244780000000  0.5567830000000 1.0
C      1  0.5090070000000  0.4553950000000  0.4826190000000 1.0
C      1  0.4779380000000  0.3972730000000  0.4693720000000 1.0
C      1  0.4912110000000  0.3927050000000  0.4945630000000 1.0
C      1  0.4053630000000  0.5641280000000  0.4689440000000 1.0
C      1  0.5185880000000  0.4327740000000  0.4979240000000 1.0
C      1  0.5909350000000  0.4700800000000  0.4783950000000 1.0
C      1  0.4643210000000  0.4593700000000  0.5901710000000 1.0
C      1  0.4990870000000  0.6122380000000  0.4982370000000 1.0
C      1  0.4459100000000  0.4342260000000  0.4289050000000 1.0
C      1  0.5149450000000  0.5265110000000  0.5428660000000 1.0
C      1  0.5088360000000  0.5731930000000  0.5091660000000 1.0
C      1  0.5568390000000  0.4932310000000  0.5308990000000 1.0
C      1  0.5522120000000  0.4751300000000  0.4870890000000 1.0
C      1  0.4162190000000  0.5222970000000  0.5608390000000 1.0
C      1  0.5072200000000  0.5216620000000  0.4909750000000 1.0
C      1  0.4095940000000  0.5412080000000  0.5396880000000 1.0
C      1  0.4697330000000  0.5615180000000  0.5323100000000 1.0
C      1  0.5741950000000  0.5660560000000  0.5433660000000 1.0
C      1  0.4514450000000  0.5963910000000  0.5103370000000 1.0
C      1  0.5121750000000  0.4856950000000  0.5191090000000 1.0
C      1  0.5450280000000  0.4619100000000  0.5691190000000 1.0
C      1  0.5762920000000  0.4703480000000  0.5350380000000 1.0
C      1  0.5283220000000  0.4252210000000  0.5627510000000 1.0
C      1  0.4689580000000  0.5555740000000  0.5935560000000 1.0
C      1  0.5579910000000  0.4141020000000  0.5219520000000 1.0
C      1  0.5298290000000  0.5422780000000  0.4556860000000 1.0
C      1  0.5247940000000  0.4607900000000  0.6040110000000 1.0
C      1  0.5104340000000  0.6045210000000  0.4579070000000 1.0
C      1  0.4710720000000  0.5142060000000  0.5490610000000 1.0
C      1  0.5829460000000  0.4625400000000  0.4505870000000 1.0
C      1  0.4750610000000  0.5113170000000  0.3971720000000 1.0
C      1  0.4647710000000  0.5193840000000  0.4723690000000 1.0
C      1  0.4682080000000  0.6035950000000  0.4604200000000 1.0
C      1  0.4723480000000  0.4476750000000  0.4588750000000 1.0
C      1  0.4323140000000  0.4667280000000  0.5028550000000 1.0
C      1  0.4139170000000  0.5018570000000  0.4730550000000 1.0
C      1  0.4783730000000  0.4554890000000  0.5140340000000 1.0
C      1  0.5737080000000  0.4172050000000  0.4727350000000 1.0
C      1  0.4202390000000  0.5689700000000  0.5392080000000 1.0
C      1  0.5041910000000  0.5562680000000  0.4632410000000 1.0
C      1  0.4290010000000  0.4119910000000  0.5001060000000 1.0
C      1  0.4984060000000  0.4930550000000  0.3982510000000 1.0
C      1  0.4713940000000  0.5514290000000  0.4381020000000 1.0
C      1  0.4792050000000  0.5167440000000  0.6052030000000 1.0
C      1  0.4360970000000  0.5299570000000  0.5813140000000 1.0
C      1  0.4324470000000  0.4233630000000  0.4517980000000 1.0
C      1  0.4034900000000  0.4870890000000  0.5257500000000 1.0
C      1  0.5957130000000  0.5222950000000  0.5254490000000 1.0
C      1  0.5205920000000  0.5509180000000  0.5978000000000 1.0
C      1  0.5042070000000  0.5574870000000  0.4023440000000 1.0
C      1  0.5456780000000  0.5091370000000  0.5825510000000 1.0
C      1  0.5457740000000  0.6057470000000  0.5221940000000 1.0
C      1  0.4768670000000  0.4277230000000  0.5558850000000 1.0
C      1  0.4532250000000  0.4473440000000  0.5044430000000 1.0
C      1  0.4989930000000  0.4957500000000  0.6004050000000 1.0
C      1  0.5427950000000  0.5426550000000  0.5794520000000 1.0
C      1  0.4867680000000  0.3955050000000  0.5231060000000 1.0
C      1  0.5791480000000  0.4335770000000  0.4491180000000 1.0
C      1  0.5414530000000  0.4967270000000  0.3880820000000 1.0
C      1  0.4525910000000  0.5102170000000  0.5954900000000 1.0
C      1  0.5562760000000  0.4149260000000  0.4485790000000 1.0
C      1  0.5172960000000  0.4025300000000  0.4563750000000 1.0
C      1  0.5748520000000  0.5886990000000  0.4984800000000 1.0
C      1  0.5216590000000  0.5112540000000  0.4674110000000 1.0
C      1  0.4451120000000  0.4809830000000  0.5917790000000 1.0
C      1  0.4676110000000  0.4913850000000  0.4841850000000 1.0
C      1  0.4354740000000  0.5215280000000  0.4674560000000 1.0
C      1  0.4316670000000  0.5228860000000  0.4373470000000 1.0
C      1  0.4647610000000  0.4071150000000  0.5384320000000 1.0
C      1  0.5164040000000  0.4957240000000  0.4220790000000 1.0
C      1  0.5200000000000  0.4038530000000  0.4895920000000 1.0
C      1  0.4506750000000  0.5012890000000  0.5319200000000 1.0
C      1  0.4933220000000  0.4761870000000  0.5000350000000 1.0
C      1  0.4461580000000  0.5888970000000  0.4539870000000 1.0
C      1  0.4571180000000  0.4787620000000  0.4306880000000 1.0
C      1  0.4901150000000  0.5343850000000  0.5546670000000 1.0
END
