TITL C-4164234-2335-181 -0.639159225181724 125000 -11160.5402039699 0 0 74 (C1) n - 1
REM
REM in /home/nfs/bkarasulu/CARBON/AIRSS/Generating-Clusters/ReaxFF-fromJPCA2015/Units_Real/with-SteepDescent/Only-C1/SD-CG/Try1-3A/FIRE-CG
REM
REM
REM
REM
REM
REM ./C.cell (11c1c37f851c82e70ff6c80c92926a4b)
REM
REM compiler GCC version 9.2.1 20190827 (Red Hat 9.2.1-1)
REM options -cpp -mtune=generic -march=x86-64 -g -O0 -fpre-include=/usr/include/finclude/math-vector-fortran.h
REM seed 163765706 429629455 1161936797 -1843821124 2050202458 -768447360 -461390220 -1827252054 291375006 1901725760 -577968638 1056513016 1069162497 -189503153 -814519245 1894310550 -719123319 -1778717062 1876717263 -1700812858 -634866291 -420467083 1819653458 1842953669 1127604371 1888105498 -1465335443 889557125 1895866279 -1355126516 1170051101 -342551531 -1690846993
REM
CELL 1.54180   50.00000   50.00000   50.00000   90.00000   90.00000   90.00000
LATT -1
SFAC C  
C      1  0.5490140000000  0.4381090000000  0.4619210000000 1.0
C      1  0.5682340000000  0.4798320000000  0.4768160000000 1.0
C      1  0.4848980000000  0.4965380000000  0.5708690000000 1.0
C      1  0.4987030000000  0.4711670000000  0.4994950000000 1.0
C      1  0.5114810000000  0.5398520000000  0.5632970000000 1.0
C      1  0.4395680000000  0.4918810000000  0.5488550000000 1.0
C      1  0.5406280000000  0.4796900000000  0.4343340000000 1.0
C      1  0.5527630000000  0.5215370000000  0.4489340000000 1.0
C      1  0.5336280000000  0.5481960000000  0.5441050000000 1.0
C      1  0.4753320000000  0.4598850000000  0.5409760000000 1.0
C      1  0.5091780000000  0.4431060000000  0.4549550000000 1.0
C      1  0.5066960000000  0.5237070000000  0.4602390000000 1.0
C      1  0.4220650000000  0.5341970000000  0.4864980000000 1.0
C      1  0.4886630000000  0.4684780000000  0.5641150000000 1.0
C      1  0.4787090000000  0.4883540000000  0.5122600000000 1.0
C      1  0.4949950000000  0.4518410000000  0.5221590000000 1.0
C      1  0.4456920000000  0.5457650000000  0.5309840000000 1.0
C      1  0.5219620000000  0.4972090000000  0.4180600000000 1.0
C      1  0.5712990000000  0.5094550000000  0.5458270000000 1.0
C      1  0.5579180000000  0.5706550000000  0.5101430000000 1.0
C      1  0.4388740000000  0.4889110000000  0.4873970000000 1.0
C      1  0.5371620000000  0.4530040000000  0.5485920000000 1.0
C      1  0.5698570000000  0.5506700000000  0.4892510000000 1.0
C      1  0.5590530000000  0.4928720000000  0.4524970000000 1.0
C      1  0.4682330000000  0.4974340000000  0.4243430000000 1.0
C      1  0.5466090000000  0.4461550000000  0.5085040000000 1.0
C      1  0.5754280000000  0.5246050000000  0.4952180000000 1.0
C      1  0.5315870000000  0.5650050000000  0.5202020000000 1.0
C      1  0.4982330000000  0.4245410000000  0.5125650000000 1.0
C      1  0.5593540000000  0.4532520000000  0.4829290000000 1.0
C      1  0.4681190000000  0.4380920000000  0.4756520000000 1.0
C      1  0.5258800000000  0.4255030000000  0.4722230000000 1.0
C      1  0.5579900000000  0.5344910000000  0.5512720000000 1.0
C      1  0.5497160000000  0.5437320000000  0.4677390000000 1.0
C      1  0.5140180000000  0.4564180000000  0.5667740000000 1.0
C      1  0.4482470000000  0.5180980000000  0.4321590000000 1.0
C      1  0.4672870000000  0.5051590000000  0.4921570000000 1.0
C      1  0.4570770000000  0.5372760000000  0.5575980000000 1.0
C      1  0.4842410000000  0.5424910000000  0.5605940000000 1.0
C      1  0.5360380000000  0.4695430000000  0.5730070000000 1.0
C      1  0.4584350000000  0.5689830000000  0.4884160000000 1.0
C      1  0.5176190000000  0.4993820000000  0.5053760000000 1.0
C      1  0.5524450000000  0.4656950000000  0.5283210000000 1.0
C      1  0.4478490000000  0.4395400000000  0.4969000000000 1.0
C      1  0.5686160000000  0.4890000000000  0.5264390000000 1.0
C      1  0.5775980000000  0.4967730000000  0.4994380000000 1.0
C      1  0.5339970000000  0.4523750000000  0.4417210000000 1.0
C      1  0.4176670000000  0.5087030000000  0.4738750000000 1.0
C      1  0.4719290000000  0.4838290000000  0.4532110000000 1.0
C      1  0.4443350000000  0.4808660000000  0.4601960000000 1.0
C      1  0.4293190000000  0.5025150000000  0.4477550000000 1.0
C      1  0.4266080000000  0.5285970000000  0.5160450000000 1.0
C      1  0.5259220000000  0.5190360000000  0.4378170000000 1.0
C      1  0.5578690000000  0.5126510000000  0.5693050000000 1.0
C      1  0.4397030000000  0.5522360000000  0.4720490000000 1.0
C      1  0.4723790000000  0.4214870000000  0.4986950000000 1.0
C      1  0.4884460000000  0.4591070000000  0.4686750000000 1.0
C      1  0.4941880000000  0.4972030000000  0.4171160000000 1.0
C      1  0.4846520000000  0.5719580000000  0.4753420000000 1.0
C      1  0.5013530000000  0.5210410000000  0.5123500000000 1.0
C      1  0.5097930000000  0.5115960000000  0.5737490000000 1.0
C      1  0.4753390000000  0.5594280000000  0.4521980000000 1.0
C      1  0.5348960000000  0.4976270000000  0.5761240000000 1.0
C      1  0.5093540000000  0.5623660000000  0.4929450000000 1.0
C      1  0.4830040000000  0.5082700000000  0.4679300000000 1.0
C      1  0.4941530000000  0.5487850000000  0.5134400000000 1.0
C      1  0.4477470000000  0.4666920000000  0.5353910000000 1.0
C      1  0.4283960000000  0.5015020000000  0.5247760000000 1.0
C      1  0.5215100000000  0.5437590000000  0.4746510000000 1.0
C      1  0.4657100000000  0.5581980000000  0.5148210000000 1.0
C      1  0.4592640000000  0.5083080000000  0.5643820000000 1.0
C      1  0.5249150000000  0.4270710000000  0.5011610000000 1.0
C      1  0.4380350000000  0.4643830000000  0.5080990000000 1.0
C      1  0.4525280000000  0.5443340000000  0.4457740000000 1.0
END
