TITL C-4164234-2335-699 48.2647859577868 125000 -17091.2065539061 0 0 117 (C1) n - 1
REM
REM in /home/nfs/bkarasulu/CARBON/AIRSS/Generating-Clusters/ReaxFF-fromJPCA2015/Units_Real/with-SteepDescent/Only-C1/SD-CG/Try1-3A/FIRE-CG
REM
REM
REM
REM
REM
REM ./C.cell (11c1c37f851c82e70ff6c80c92926a4b)
REM
REM compiler GCC version 9.2.1 20190827 (Red Hat 9.2.1-1)
REM options -cpp -mtune=generic -march=x86-64 -g -O0 -fpre-include=/usr/include/finclude/math-vector-fortran.h
REM seed 1742363634 902709815 721226249 339901799 -748818138 1888399035 2135054439 -1030785278 272490350 440491176 911540317 633764941 1317675810 -1198809439 1263759889 1603596832 2069287978 629768221 1877760605 -409136032 -1133824836 1922055040 -10585410 -1985688128 2091435555 1541682798 -431112362 -1862042794 -1856959418 1937748957 917228813 -1299732193 694013406
REM
CELL 1.54180   50.00000   50.00000   50.00000   90.00000   90.00000   90.00000
LATT -1
SFAC C  
C      1  0.5270620000000  0.5309070000000  0.5379860000000 1.0
C      1  0.4998740000000  0.4830450000000  0.5516750000000 1.0
C      1  0.4733570000000  0.4685590000000  0.6055040000000 1.0
C      1  0.5142770000000  0.5255240000000  0.4122780000000 1.0
C      1  0.4791070000000  0.4914630000000  0.4010160000000 1.0
C      1  0.4912140000000  0.5487390000000  0.6089750000000 1.0
C      1  0.5634890000000  0.5296940000000  0.4727520000000 1.0
C      1  0.5579710000000  0.5705070000000  0.4926710000000 1.0
C      1  0.4484030000000  0.5699240000000  0.5483960000000 1.0
C      1  0.5016370000000  0.4700720000000  0.4874890000000 1.0
C      1  0.4097120000000  0.4911930000000  0.4821340000000 1.0
C      1  0.5715840000000  0.5590500000000  0.5141530000000 1.0
C      1  0.4257310000000  0.4484210000000  0.4677150000000 1.0
C      1  0.4814920000000  0.5826510000000  0.4515970000000 1.0
C      1  0.5330750000000  0.5802780000000  0.4612440000000 1.0
C      1  0.4179850000000  0.4796910000000  0.5086810000000 1.0
C      1  0.5881060000000  0.4867010000000  0.4672930000000 1.0
C      1  0.5807850000000  0.5080830000000  0.5397690000000 1.0
C      1  0.5923320000000  0.4855550000000  0.4966240000000 1.0
C      1  0.4881450000000  0.5355230000000  0.5501380000000 1.0
C      1  0.4398200000000  0.5598410000000  0.4596110000000 1.0
C      1  0.4781710000000  0.4668400000000  0.4129230000000 1.0
C      1  0.4535880000000  0.4181050000000  0.4946940000000 1.0
C      1  0.5088780000000  0.5291830000000  0.4652450000000 1.0
C      1  0.5337830000000  0.5353230000000  0.4803590000000 1.0
C      1  0.5880560000000  0.5104530000000  0.5110150000000 1.0
C      1  0.5525930000000  0.4618550000000  0.4362520000000 1.0
C      1  0.4642780000000  0.4970920000000  0.5255090000000 1.0
C      1  0.4187310000000  0.5495130000000  0.4773310000000 1.0
C      1  0.4932530000000  0.5085470000000  0.4185700000000 1.0
C      1  0.4923210000000  0.5449120000000  0.4838400000000 1.0
C      1  0.5132050000000  0.4176260000000  0.4804450000000 1.0
C      1  0.4632700000000  0.5225280000000  0.5447480000000 1.0
C      1  0.5038490000000  0.4744320000000  0.5793930000000 1.0
C      1  0.5588260000000  0.5555390000000  0.5427400000000 1.0
C      1  0.5309190000000  0.4208640000000  0.5263730000000 1.0
C      1  0.4777470000000  0.5033800000000  0.5029100000000 1.0
C      1  0.4743670000000  0.4954770000000  0.4592810000000 1.0
C      1  0.5524740000000  0.4248220000000  0.5049100000000 1.0
C      1  0.5804640000000  0.4680050000000  0.4458900000000 1.0
C      1  0.4313880000000  0.4936440000000  0.5696930000000 1.0
C      1  0.5050340000000  0.5873310000000  0.4683560000000 1.0
C      1  0.5052130000000  0.5505740000000  0.5875680000000 1.0
C      1  0.5370430000000  0.5051410000000  0.5908060000000 1.0
C      1  0.5040760000000  0.4395750000000  0.4387020000000 1.0
C      1  0.4778750000000  0.4824710000000  0.4833030000000 1.0
C      1  0.5053260000000  0.4223440000000  0.5091460000000 1.0
C      1  0.5137650000000  0.5222390000000  0.5867230000000 1.0
C      1  0.4236530000000  0.4769270000000  0.4620730000000 1.0
C      1  0.5802550000000  0.5361360000000  0.4992960000000 1.0
C      1  0.4339710000000  0.5189960000000  0.4974640000000 1.0
C      1  0.4480470000000  0.4910510000000  0.4447450000000 1.0
C      1  0.5279410000000  0.4612230000000  0.5185790000000 1.0
C      1  0.5626650000000  0.5112170000000  0.5772860000000 1.0
C      1  0.5380270000000  0.5641810000000  0.4821460000000 1.0
C      1  0.5856930000000  0.4326180000000  0.5089930000000 1.0
C      1  0.5204640000000  0.4780320000000  0.4691110000000 1.0
C      1  0.5362730000000  0.4986170000000  0.5118570000000 1.0
C      1  0.4421860000000  0.5453590000000  0.5311890000000 1.0
C      1  0.5066740000000  0.4605010000000  0.4205550000000 1.0
C      1  0.4637910000000  0.4173270000000  0.5362070000000 1.0
C      1  0.5290490000000  0.4819930000000  0.5352720000000 1.0
C      1  0.4371200000000  0.4988290000000  0.5153640000000 1.0
C      1  0.5298020000000  0.5585840000000  0.5427680000000 1.0
C      1  0.5596350000000  0.5225910000000  0.4199800000000 1.0
C      1  0.5012420000000  0.5034310000000  0.4531020000000 1.0
C      1  0.5569940000000  0.5516480000000  0.4265500000000 1.0
C      1  0.4320920000000  0.4368030000000  0.4957200000000 1.0
C      1  0.4293190000000  0.4544730000000  0.5181850000000 1.0
C      1  0.5088800000000  0.5510970000000  0.4253610000000 1.0
C      1  0.4506180000000  0.4576520000000  0.5400540000000 1.0
C      1  0.4817080000000  0.5590930000000  0.4348280000000 1.0
C      1  0.4945760000000  0.4231670000000  0.4588110000000 1.0
C      1  0.4996760000000  0.5620220000000  0.5556020000000 1.0
C      1  0.5367010000000  0.4520670000000  0.4591380000000 1.0
C      1  0.5240150000000  0.5236310000000  0.5103800000000 1.0
C      1  0.4482230000000  0.5184570000000  0.4297750000000 1.0
C      1  0.5511450000000  0.4532610000000  0.5056290000000 1.0
C      1  0.4649810000000  0.4314410000000  0.4683650000000 1.0
C      1  0.4556100000000  0.5841080000000  0.4670400000000 1.0
C      1  0.4277250000000  0.5500790000000  0.5570140000000 1.0
C      1  0.5011640000000  0.4557540000000  0.5116830000000 1.0
C      1  0.4891860000000  0.4531670000000  0.5907930000000 1.0
C      1  0.4137090000000  0.5202650000000  0.4774640000000 1.0
C      1  0.4799480000000  0.4709830000000  0.5330700000000 1.0
C      1  0.5701040000000  0.5306800000000  0.5554750000000 1.0
C      1  0.4448760000000  0.4424150000000  0.4458870000000 1.0
C      1  0.5315900000000  0.4778340000000  0.5830240000000 1.0
C      1  0.4559620000000  0.4334800000000  0.5574030000000 1.0
C      1  0.4375470000000  0.4714630000000  0.5557870000000 1.0
C      1  0.4830590000000  0.4302700000000  0.5712600000000 1.0
C      1  0.4646210000000  0.4593600000000  0.4784490000000 1.0
C      1  0.5398610000000  0.4281130000000  0.4762080000000 1.0
C      1  0.5418870000000  0.4908120000000  0.4847280000000 1.0
C      1  0.4647470000000  0.5136960000000  0.4073640000000 1.0
C      1  0.4759320000000  0.5767720000000  0.5431850000000 1.0
C      1  0.4557780000000  0.5447070000000  0.4399230000000 1.0
C      1  0.5806720000000  0.4607580000000  0.5096670000000 1.0
C      1  0.4267630000000  0.5257360000000  0.5712160000000 1.0
C      1  0.5624870000000  0.5021070000000  0.4677220000000 1.0
C      1  0.4610820000000  0.5890070000000  0.4943560000000 1.0
C      1  0.4980530000000  0.5728860000000  0.4928240000000 1.0
C      1  0.5081090000000  0.4308320000000  0.5587830000000 1.0
C      1  0.4754100000000  0.4104440000000  0.5125920000000 1.0
C      1  0.5322680000000  0.4772360000000  0.4206870000000 1.0
C      1  0.5462090000000  0.4686460000000  0.5590690000000 1.0
C      1  0.4498720000000  0.5136370000000  0.5689860000000 1.0
C      1  0.4792170000000  0.5852570000000  0.5144540000000 1.0
C      1  0.5726190000000  0.5336750000000  0.4434600000000 1.0
C      1  0.5327410000000  0.4371800000000  0.5500930000000 1.0
C      1  0.5083160000000  0.5161780000000  0.5566770000000 1.0
C      1  0.4370670000000  0.5468210000000  0.4997830000000 1.0
C      1  0.5690640000000  0.4887490000000  0.5593700000000 1.0
C      1  0.4549380000000  0.4645940000000  0.4300840000000 1.0
C      1  0.4946160000000  0.5256100000000  0.5051030000000 1.0
C      1  0.5356890000000  0.5060710000000  0.4155760000000 1.0
C      1  0.5324310000000  0.5649560000000  0.4349300000000 1.0
END
