TITL C-4164247-2821-52 -3.57527336255006 125000 -13043.0984671058 0 0 88 (C1) n - 1
REM
REM in /home/nfs/bkarasulu/CARBON/AIRSS/Generating-Clusters/ReaxFF-fromJPCA2015/Units_Real/with-SteepDescent/Only-C1/SD-CG/Try1-3A/FIRE-CG
REM
REM
REM
REM
REM
REM ./C.cell (11c1c37f851c82e70ff6c80c92926a4b)
REM
REM compiler GCC version 9.2.1 20190827 (Red Hat 9.2.1-1)
REM options -cpp -mtune=generic -march=x86-64 -g -O0 -fpre-include=/usr/include/finclude/math-vector-fortran.h
REM seed 623542298 -498660406 -1376351160 935630029 -1948552014 935191945 -784392312 442330714 895133853 -959341548 1803751050 -1221681958 -157145403 645633577 -1187957796 248175155 1762674718 -465082036 29246169 1902655176 -354269522 -2112932859 -1883862614 1298413845 -114755976 -119365737 1285024557 1868500858 -1643060148 1656931511 1223866504 -1915946395 696063599
REM
CELL 1.54180   50.00000   50.00000   50.00000   90.00000   90.00000   90.00000
LATT -1
SFAC C  
C      1  0.5074480000000  0.5299670000000  0.4607870000000 1.0
C      1  0.4806550000000  0.4957400000000  0.5336910000000 1.0
C      1  0.4711060000000  0.5793160000000  0.5104000000000 1.0
C      1  0.5362380000000  0.4217870000000  0.4763640000000 1.0
C      1  0.4907400000000  0.5772840000000  0.4884140000000 1.0
C      1  0.5215350000000  0.4086020000000  0.4953220000000 1.0
C      1  0.4314570000000  0.5202320000000  0.5274250000000 1.0
C      1  0.4606640000000  0.5557830000000  0.4484430000000 1.0
C      1  0.4489870000000  0.4677760000000  0.5574430000000 1.0
C      1  0.5620010000000  0.5261880000000  0.5378460000000 1.0
C      1  0.4821320000000  0.5677400000000  0.5350720000000 1.0
C      1  0.4379240000000  0.4482970000000  0.4744750000000 1.0
C      1  0.4776640000000  0.4372440000000  0.5255560000000 1.0
C      1  0.5116510000000  0.5034010000000  0.5414200000000 1.0
C      1  0.5085420000000  0.5624990000000  0.4517830000000 1.0
C      1  0.5733110000000  0.5445710000000  0.5013630000000 1.0
C      1  0.4816890000000  0.4820610000000  0.5086010000000 1.0
C      1  0.4830770000000  0.5726280000000  0.4608380000000 1.0
C      1  0.5328200000000  0.5032350000000  0.4159180000000 1.0
C      1  0.4290300000000  0.5202440000000  0.4978790000000 1.0
C      1  0.5555440000000  0.5517950000000  0.5251970000000 1.0
C      1  0.5370790000000  0.5292500000000  0.4257690000000 1.0
C      1  0.5474740000000  0.5478030000000  0.4441640000000 1.0
C      1  0.4974520000000  0.5312680000000  0.5074370000000 1.0
C      1  0.4659420000000  0.5120820000000  0.5796440000000 1.0
C      1  0.4625700000000  0.5170420000000  0.5393000000000 1.0
C      1  0.5579210000000  0.5302920000000  0.4805080000000 1.0
C      1  0.4654960000000  0.5307540000000  0.4326590000000 1.0
C      1  0.4360760000000  0.4900750000000  0.4522940000000 1.0
C      1  0.5738230000000  0.4828020000000  0.4741500000000 1.0
C      1  0.4776210000000  0.5392130000000  0.5278280000000 1.0
C      1  0.5270900000000  0.4982390000000  0.4946210000000 1.0
C      1  0.5133600000000  0.4921490000000  0.5821440000000 1.0
C      1  0.5684360000000  0.4530630000000  0.5123100000000 1.0
C      1  0.4423740000000  0.5734130000000  0.5077440000000 1.0
C      1  0.5567190000000  0.4596300000000  0.4844570000000 1.0
C      1  0.4861840000000  0.5222340000000  0.4821580000000 1.0
C      1  0.5577690000000  0.4308930000000  0.5278730000000 1.0
C      1  0.5098760000000  0.5637520000000  0.5432920000000 1.0
C      1  0.5883900000000  0.4938370000000  0.4970820000000 1.0
C      1  0.4966860000000  0.4349920000000  0.5116190000000 1.0
C      1  0.5288400000000  0.5639830000000  0.5209070000000 1.0
C      1  0.4721760000000  0.4975680000000  0.4859260000000 1.0
C      1  0.4925680000000  0.4181220000000  0.4917380000000 1.0
C      1  0.5111430000000  0.4459790000000  0.4490380000000 1.0
C      1  0.4916490000000  0.4500110000000  0.5690660000000 1.0
C      1  0.5456490000000  0.4839480000000  0.4339400000000 1.0
C      1  0.4927180000000  0.5217880000000  0.4353290000000 1.0
C      1  0.5323440000000  0.5665370000000  0.4665970000000 1.0
C      1  0.4270720000000  0.4666160000000  0.5220500000000 1.0
C      1  0.4405300000000  0.4956930000000  0.4815730000000 1.0
C      1  0.5310060000000  0.5208510000000  0.4775800000000 1.0
C      1  0.5205590000000  0.5151390000000  0.5167560000000 1.0
C      1  0.5307390000000  0.4731640000000  0.5679210000000 1.0
C      1  0.5067200000000  0.5452860000000  0.5668560000000 1.0
C      1  0.4543540000000  0.4806200000000  0.4343070000000 1.0
C      1  0.4362270000000  0.4620000000000  0.4480470000000 1.0
C      1  0.5362440000000  0.4117340000000  0.5214780000000 1.0
C      1  0.4899240000000  0.4314530000000  0.4625640000000 1.0
C      1  0.5348680000000  0.4864500000000  0.5422280000000 1.0
C      1  0.5936670000000  0.5230000000000  0.5010920000000 1.0
C      1  0.4241060000000  0.4760890000000  0.5480760000000 1.0
C      1  0.5028670000000  0.5076520000000  0.4124260000000 1.0
C      1  0.4610300000000  0.4841360000000  0.5791390000000 1.0
C      1  0.5674450000000  0.5275280000000  0.4531510000000 1.0
C      1  0.5279200000000  0.4699240000000  0.4926260000000 1.0
C      1  0.5622260000000  0.4963650000000  0.5385850000000 1.0
C      1  0.4689660000000  0.4468620000000  0.5502700000000 1.0
C      1  0.4249600000000  0.5720610000000  0.5307530000000 1.0
C      1  0.4171440000000  0.4949130000000  0.5288260000000 1.0
C      1  0.4450550000000  0.5430720000000  0.4667920000000 1.0
C      1  0.4327870000000  0.4692400000000  0.4944160000000 1.0
C      1  0.5199860000000  0.5704830000000  0.4929240000000 1.0
C      1  0.5502540000000  0.4386410000000  0.4603490000000 1.0
C      1  0.5160270000000  0.5183460000000  0.5693870000000 1.0
C      1  0.5651830000000  0.4970930000000  0.4507470000000 1.0
C      1  0.4535090000000  0.5060100000000  0.4190990000000 1.0
C      1  0.5200360000000  0.4460500000000  0.5632960000000 1.0
C      1  0.5785060000000  0.4786370000000  0.5209180000000 1.0
C      1  0.5348160000000  0.4265630000000  0.5465720000000 1.0
C      1  0.5354880000000  0.4559370000000  0.4402180000000 1.0
C      1  0.4231750000000  0.5495310000000  0.5341320000000 1.0
C      1  0.5047620000000  0.4616960000000  0.5060160000000 1.0
C      1  0.4337900000000  0.5474450000000  0.4901060000000 1.0
C      1  0.4765440000000  0.4951150000000  0.4027530000000 1.0
C      1  0.4794870000000  0.5378940000000  0.5794510000000 1.0
C      1  0.4885880000000  0.4752270000000  0.5840450000000 1.0
C      1  0.4637940000000  0.4383790000000  0.4686460000000 1.0
END
