TITL C-4164247-2821-640 3.56754520068012 125000 -17810.5553686228 0 0 120 (C1) n - 1
REM
REM in /home/nfs/bkarasulu/CARBON/AIRSS/Generating-Clusters/ReaxFF-fromJPCA2015/Units_Real/with-SteepDescent/Only-C1/SD-CG/Try1-3A/FIRE-CG
REM
REM
REM
REM
REM
REM ./C.cell (11c1c37f851c82e70ff6c80c92926a4b)
REM
REM compiler GCC version 9.2.1 20190827 (Red Hat 9.2.1-1)
REM options -cpp -mtune=generic -march=x86-64 -g -O0 -fpre-include=/usr/include/finclude/math-vector-fortran.h
REM seed 807825755 -2094087220 -1220179891 75839894 1121299103 125834803 2057789978 -47821593 -1048444970 1460742169 1399240297 2113250249 901973447 1205602767 -1462897530 1646491296 1279182999 1275465648 -604353922 962544981 18005725 -1948612808 1050526557 367099821 -1891551780 -442814289 -1861916007 -1735591942 1549109898 1993373370 678158010 258977980 -1746750522
REM
CELL 1.54180   50.00000   50.00000   50.00000   90.00000   90.00000   90.00000
LATT -1
SFAC C  
C      1  0.5167950000000  0.4500280000000  0.4808380000000 1.0
C      1  0.4881000000000  0.5069230000000  0.5872000000000 1.0
C      1  0.5408460000000  0.4253500000000  0.5487210000000 1.0
C      1  0.5655420000000  0.5354330000000  0.5097190000000 1.0
C      1  0.5288530000000  0.4257640000000  0.5762200000000 1.0
C      1  0.4112790000000  0.5450380000000  0.5493290000000 1.0
C      1  0.5500600000000  0.5211100000000  0.5296700000000 1.0
C      1  0.4702050000000  0.4118490000000  0.4764220000000 1.0
C      1  0.4473310000000  0.4819100000000  0.5791680000000 1.0
C      1  0.4212270000000  0.4791860000000  0.4540860000000 1.0
C      1  0.4474770000000  0.4144710000000  0.4955720000000 1.0
C      1  0.4663170000000  0.4552450000000  0.4248460000000 1.0
C      1  0.4594040000000  0.4557730000000  0.5704430000000 1.0
C      1  0.5052370000000  0.5846090000000  0.4935940000000 1.0
C      1  0.5706820000000  0.4905320000000  0.4405710000000 1.0
C      1  0.4538740000000  0.5319200000000  0.5620310000000 1.0
C      1  0.5117090000000  0.4631970000000  0.3993820000000 1.0
C      1  0.5591340000000  0.5011840000000  0.5680430000000 1.0
C      1  0.4577830000000  0.5853860000000  0.5171180000000 1.0
C      1  0.4778400000000  0.4301870000000  0.4404450000000 1.0
C      1  0.5684020000000  0.4242210000000  0.4996540000000 1.0
C      1  0.4806190000000  0.4601230000000  0.5882840000000 1.0
C      1  0.4593810000000  0.4446970000000  0.5424460000000 1.0
C      1  0.5337010000000  0.5438110000000  0.5755280000000 1.0
C      1  0.5546680000000  0.5521570000000  0.5578120000000 1.0
C      1  0.4123550000000  0.5594940000000  0.5233980000000 1.0
C      1  0.5541390000000  0.4652200000000  0.4321300000000 1.0
C      1  0.5233060000000  0.5251670000000  0.5377960000000 1.0
C      1  0.5899120000000  0.5115180000000  0.4796660000000 1.0
C      1  0.4679170000000  0.5206590000000  0.4457500000000 1.0
C      1  0.4103140000000  0.5068260000000  0.4633630000000 1.0
C      1  0.4979500000000  0.5195200000000  0.4421150000000 1.0
C      1  0.4216190000000  0.5293770000000  0.4533890000000 1.0
C      1  0.4811800000000  0.5829070000000  0.4739930000000 1.0
C      1  0.5966970000000  0.5076670000000  0.5082410000000 1.0
C      1  0.4903980000000  0.4206410000000  0.5270590000000 1.0
C      1  0.5539980000000  0.4420660000000  0.4523640000000 1.0
C      1  0.4567880000000  0.5714710000000  0.5734800000000 1.0
C      1  0.5350180000000  0.5785980000000  0.4841270000000 1.0
C      1  0.5893370000000  0.5295670000000  0.5256850000000 1.0
C      1  0.4546920000000  0.5006030000000  0.4240600000000 1.0
C      1  0.5389430000000  0.4583230000000  0.4014230000000 1.0
C      1  0.4365100000000  0.5526730000000  0.4520060000000 1.0
C      1  0.4323990000000  0.4863290000000  0.5532440000000 1.0
C      1  0.5876920000000  0.4868990000000  0.4635350000000 1.0
C      1  0.4736670000000  0.4082170000000  0.5060260000000 1.0
C      1  0.5396950000000  0.4237070000000  0.5060020000000 1.0
C      1  0.4130850000000  0.5024370000000  0.5145420000000 1.0
C      1  0.5733900000000  0.4384350000000  0.4734490000000 1.0
C      1  0.5055290000000  0.4656420000000  0.4422850000000 1.0
C      1  0.5705980000000  0.5266070000000  0.5509490000000 1.0
C      1  0.4992960000000  0.5108380000000  0.4156390000000 1.0
C      1  0.4840650000000  0.5840260000000  0.5326970000000 1.0
C      1  0.4775460000000  0.4729960000000  0.4474780000000 1.0
C      1  0.5915380000000  0.4610060000000  0.4780570000000 1.0
C      1  0.5290530000000  0.4746180000000  0.5568220000000 1.0
C      1  0.5796150000000  0.4837710000000  0.5124550000000 1.0
C      1  0.4229520000000  0.5219570000000  0.5355980000000 1.0
C      1  0.5951690000000  0.4597920000000  0.5072790000000 1.0
C      1  0.4649030000000  0.5103190000000  0.4754320000000 1.0
C      1  0.4228420000000  0.4756660000000  0.5136280000000 1.0
C      1  0.5276530000000  0.5503500000000  0.4198890000000 1.0
C      1  0.4795920000000  0.5113610000000  0.5302910000000 1.0
C      1  0.5051100000000  0.4705340000000  0.5983460000000 1.0
C      1  0.5599660000000  0.5169570000000  0.4363120000000 1.0
C      1  0.5579760000000  0.4732990000000  0.5567370000000 1.0
C      1  0.4635310000000  0.5512510000000  0.4417070000000 1.0
C      1  0.5213800000000  0.4174930000000  0.5276270000000 1.0
C      1  0.4847490000000  0.5692550000000  0.4489830000000 1.0
C      1  0.5149380000000  0.5671660000000  0.4399870000000 1.0
C      1  0.5674160000000  0.5293240000000  0.4813770000000 1.0
C      1  0.4976610000000  0.5587480000000  0.5147520000000 1.0
C      1  0.5515450000000  0.4801320000000  0.5019060000000 1.0
C      1  0.4926480000000  0.4645970000000  0.4897780000000 1.0
C      1  0.5268090000000  0.4333810000000  0.4586810000000 1.0
C      1  0.4607140000000  0.4593720000000  0.4661810000000 1.0
C      1  0.4566200000000  0.5806570000000  0.4888460000000 1.0
C      1  0.5027570000000  0.6028500000000  0.5181760000000 1.0
C      1  0.4620990000000  0.5084760000000  0.5803060000000 1.0
C      1  0.4065900000000  0.5193770000000  0.4906340000000 1.0
C      1  0.5455990000000  0.5325040000000  0.4602040000000 1.0
C      1  0.4394700000000  0.5556910000000  0.4833610000000 1.0
C      1  0.5060310000000  0.4361630000000  0.4382510000000 1.0
C      1  0.4851140000000  0.5730700000000  0.5642460000000 1.0
C      1  0.4834870000000  0.4675690000000  0.4026220000000 1.0
C      1  0.4853820000000  0.5310140000000  0.5074710000000 1.0
C      1  0.4844760000000  0.4463720000000  0.5349370000000 1.0
C      1  0.5384740000000  0.4537040000000  0.4995190000000 1.0
C      1  0.4318740000000  0.4393150000000  0.4959420000000 1.0
C      1  0.4406570000000  0.5650610000000  0.5279930000000 1.0
C      1  0.4547900000000  0.4969790000000  0.5350140000000 1.0
C      1  0.5445640000000  0.5686290000000  0.5357390000000 1.0
C      1  0.4368690000000  0.4524360000000  0.5214030000000 1.0
C      1  0.5636020000000  0.4459900000000  0.5450700000000 1.0
C      1  0.4399960000000  0.4777360000000  0.4324370000000 1.0
C      1  0.4135170000000  0.5472500000000  0.4970560000000 1.0
C      1  0.5043820000000  0.5044130000000  0.5430750000000 1.0
C      1  0.5078030000000  0.5585390000000  0.5735730000000 1.0
C      1  0.4876230000000  0.4929530000000  0.4809250000000 1.0
C      1  0.5093710000000  0.5108780000000  0.4883280000000 1.0
C      1  0.4768020000000  0.4958690000000  0.4063550000000 1.0
C      1  0.5286460000000  0.4813680000000  0.4341530000000 1.0
C      1  0.5131780000000  0.5004410000000  0.5941710000000 1.0
C      1  0.4338490000000  0.5518630000000  0.5689040000000 1.0
C      1  0.5521370000000  0.5775980000000  0.5079080000000 1.0
C      1  0.4586300000000  0.5304550000000  0.4945350000000 1.0
C      1  0.4762250000000  0.4367040000000  0.4676450000000 1.0
C      1  0.5284180000000  0.4964640000000  0.5051240000000 1.0
C      1  0.5372660000000  0.5141880000000  0.5817600000000 1.0
C      1  0.5212780000000  0.4551110000000  0.5780580000000 1.0
C      1  0.5150040000000  0.4822260000000  0.5276440000000 1.0
C      1  0.4932400000000  0.4660110000000  0.5182900000000 1.0
C      1  0.4480000000000  0.5362850000000  0.5323580000000 1.0
C      1  0.5421240000000  0.5241350000000  0.4148830000000 1.0
C      1  0.5365300000000  0.5637950000000  0.4591840000000 1.0
C      1  0.5803860000000  0.4391980000000  0.5223420000000 1.0
C      1  0.5175450000000  0.5206200000000  0.4626980000000 1.0
C      1  0.4330420000000  0.4577230000000  0.4702830000000 1.0
C      1  0.5245600000000  0.5004830000000  0.4114750000000 1.0
C      1  0.5197300000000  0.5529590000000  0.5322400000000 1.0
END
