TITL C-4164235-1454-27 32.5454612228844 125000 -26582.6397362187 0 0 179 (C1) n - 1
REM
REM in /home/nfs/bkarasulu/CARBON/AIRSS/Generating-Clusters/ReaxFF-fromJPCA2015/Units_Real/with-SteepDescent/Only-C1/SD-CG/Try1-3A/FIRE-CG
REM
REM
REM
REM
REM
REM ./C.cell (11c1c37f851c82e70ff6c80c92926a4b)
REM
REM compiler GCC version 9.2.1 20190827 (Red Hat 9.2.1-1)
REM options -cpp -mtune=generic -march=x86-64 -g -O0 -fpre-include=/usr/include/finclude/math-vector-fortran.h
REM seed -2053741904 -316805148 -1704491772 2094408899 -1111019961 478759032 -1874534821 -860824684 -1395173205 1664974830 -740046668 625741849 -66655572 -113781105 1968589129 302993833 159566507 -541236273 61377729 1466295504 1247061065 1134946873 1636665182 1824125607 71394894 -92469887 -1998854922 1012617907 -412003354 1757979880 2023055905 -1013418598 -1616691505
REM
CELL 1.54180   50.00000   50.00000   50.00000   90.00000   90.00000   90.00000
LATT -1
SFAC C  
C      1  0.5475220000000  0.5168880000000  0.5117110000000 1.0
C      1  0.5494280000000  0.4863580000000  0.5478740000000 1.0
C      1  0.5608880000000  0.5235220000000  0.4266060000000 1.0
C      1  0.3820280000000  0.5178290000000  0.4847970000000 1.0
C      1  0.5174150000000  0.5866920000000  0.4328550000000 1.0
C      1  0.4298630000000  0.5866640000000  0.4818740000000 1.0
C      1  0.4256540000000  0.5365660000000  0.5694020000000 1.0
C      1  0.4513390000000  0.4940180000000  0.4635080000000 1.0
C      1  0.5052870000000  0.5267030000000  0.5385430000000 1.0
C      1  0.6050230000000  0.5152610000000  0.4831930000000 1.0
C      1  0.5284880000000  0.5331740000000  0.6089900000000 1.0
C      1  0.4703920000000  0.4163240000000  0.5621940000000 1.0
C      1  0.4757130000000  0.4586110000000  0.6095110000000 1.0
C      1  0.5478420000000  0.5498280000000  0.4189100000000 1.0
C      1  0.4924600000000  0.5900900000000  0.4480180000000 1.0
C      1  0.5312680000000  0.5599030000000  0.5675780000000 1.0
C      1  0.4572720000000  0.4571030000000  0.5025780000000 1.0
C      1  0.4912030000000  0.4453900000000  0.4703610000000 1.0
C      1  0.4926980000000  0.5176030000000  0.4308070000000 1.0
C      1  0.4716860000000  0.4962270000000  0.5286130000000 1.0
C      1  0.4118080000000  0.4693160000000  0.5881690000000 1.0
C      1  0.4568780000000  0.5672010000000  0.4808250000000 1.0
C      1  0.5423220000000  0.4054410000000  0.5085920000000 1.0
C      1  0.4734510000000  0.5619600000000  0.4124130000000 1.0
C      1  0.4805450000000  0.3951060000000  0.5252210000000 1.0
C      1  0.4816000000000  0.6044950000000  0.4993640000000 1.0
C      1  0.4110560000000  0.5177730000000  0.5217290000000 1.0
C      1  0.4912480000000  0.4831770000000  0.5443970000000 1.0
C      1  0.5982880000000  0.5190960000000  0.5526570000000 1.0
C      1  0.4704450000000  0.3994340000000  0.4508250000000 1.0
C      1  0.4966960000000  0.4091330000000  0.5047980000000 1.0
C      1  0.4569470000000  0.5490770000000  0.4573890000000 1.0
C      1  0.5842860000000  0.4372110000000  0.5179190000000 1.0
C      1  0.4689610000000  0.5923210000000  0.5250030000000 1.0
C      1  0.5297310000000  0.5558520000000  0.4918570000000 1.0
C      1  0.5754640000000  0.4553760000000  0.5587390000000 1.0
C      1  0.5274510000000  0.4462710000000  0.5823560000000 1.0
C      1  0.5824220000000  0.5638850000000  0.4707530000000 1.0
C      1  0.5020230000000  0.4505800000000  0.4435140000000 1.0
C      1  0.4689660000000  0.5856150000000  0.4296340000000 1.0
C      1  0.5443670000000  0.5739770000000  0.4361570000000 1.0
C      1  0.4944530000000  0.4658680000000  0.4078410000000 1.0
C      1  0.5692270000000  0.4314320000000  0.5412430000000 1.0
C      1  0.5210230000000  0.4199850000000  0.5748420000000 1.0
C      1  0.4866750000000  0.4898750000000  0.5729910000000 1.0
C      1  0.5291840000000  0.4627490000000  0.5572150000000 1.0
C      1  0.5782520000000  0.5773750000000  0.5579890000000 1.0
C      1  0.4719260000000  0.5171990000000  0.5759440000000 1.0
C      1  0.6074420000000  0.5146940000000  0.5121410000000 1.0
C      1  0.4448470000000  0.4085090000000  0.5502750000000 1.0
C      1  0.5402050000000  0.5223690000000  0.4540610000000 1.0
C      1  0.4385970000000  0.5626670000000  0.5679310000000 1.0
C      1  0.3892220000000  0.4777340000000  0.4909590000000 1.0
C      1  0.5271330000000  0.5337440000000  0.5549990000000 1.0
C      1  0.5651240000000  0.5939540000000  0.5094540000000 1.0
C      1  0.5879220000000  0.4419210000000  0.4682120000000 1.0
C      1  0.4191200000000  0.4235150000000  0.5565430000000 1.0
C      1  0.5047370000000  0.4297380000000  0.5229620000000 1.0
C      1  0.4829790000000  0.5338830000000  0.4528060000000 1.0
C      1  0.5642260000000  0.4973660000000  0.5923050000000 1.0
C      1  0.5039210000000  0.5620380000000  0.4196440000000 1.0
C      1  0.5159690000000  0.4451150000000  0.5410940000000 1.0
C      1  0.4241280000000  0.5684240000000  0.5411930000000 1.0
C      1  0.4810040000000  0.5446030000000  0.5848180000000 1.0
C      1  0.4245210000000  0.5982570000000  0.4560230000000 1.0
C      1  0.5635320000000  0.4753430000000  0.4851190000000 1.0
C      1  0.5304730000000  0.4950190000000  0.3954040000000 1.0
C      1  0.4141440000000  0.5393210000000  0.5427410000000 1.0
C      1  0.5463840000000  0.5054490000000  0.4839880000000 1.0
C      1  0.4426130000000  0.4725800000000  0.4465440000000 1.0
C      1  0.4603570000000  0.5370650000000  0.4072230000000 1.0
C      1  0.4927080000000  0.3996460000000  0.5518450000000 1.0
C      1  0.5236090000000  0.4015590000000  0.5544330000000 1.0
C      1  0.5784000000000  0.5535840000000  0.5170290000000 1.0
C      1  0.5002340000000  0.5610580000000  0.4986480000000 1.0
C      1  0.5061480000000  0.5991570000000  0.5565930000000 1.0
C      1  0.4450620000000  0.4028140000000  0.4716390000000 1.0
C      1  0.6000290000000  0.4960870000000  0.5352570000000 1.0
C      1  0.5206160000000  0.4652020000000  0.3972920000000 1.0
C      1  0.4915420000000  0.5173070000000  0.4790600000000 1.0
C      1  0.5128690000000  0.5185140000000  0.3952620000000 1.0
C      1  0.6065320000000  0.4873980000000  0.4743700000000 1.0
C      1  0.5280160000000  0.5469280000000  0.4649910000000 1.0
C      1  0.4535930000000  0.4109400000000  0.4305070000000 1.0
C      1  0.5555660000000  0.4976580000000  0.4078720000000 1.0
C      1  0.4335360000000  0.5426770000000  0.4457880000000 1.0
C      1  0.4192830000000  0.5048430000000  0.4225890000000 1.0
C      1  0.4733130000000  0.4830210000000  0.4005520000000 1.0
C      1  0.5269320000000  0.4402920000000  0.4108660000000 1.0
C      1  0.5453140000000  0.4607940000000  0.6021340000000 1.0
C      1  0.4002540000000  0.5035440000000  0.4449090000000 1.0
C      1  0.5706630000000  0.4753260000000  0.4575380000000 1.0
C      1  0.4295200000000  0.4988260000000  0.4803850000000 1.0
C      1  0.4512540000000  0.4007570000000  0.5227130000000 1.0
C      1  0.5089670000000  0.4879880000000  0.4592880000000 1.0
C      1  0.5001420000000  0.4292820000000  0.4264570000000 1.0
C      1  0.5523130000000  0.5979540000000  0.4827940000000 1.0
C      1  0.5843950000000  0.4241830000000  0.4918510000000 1.0
C      1  0.5271060000000  0.4812750000000  0.6131010000000 1.0
C      1  0.4025460000000  0.4527030000000  0.4938960000000 1.0
C      1  0.5407570000000  0.5064650000000  0.6060080000000 1.0
C      1  0.4833480000000  0.5836860000000  0.4787960000000 1.0
C      1  0.3867200000000  0.5043860000000  0.5081870000000 1.0
C      1  0.4375150000000  0.5856780000000  0.5219600000000 1.0
C      1  0.5214890000000  0.5094020000000  0.5235140000000 1.0
C      1  0.4850310000000  0.5364940000000  0.4973950000000 1.0
C      1  0.5490250000000  0.5145920000000  0.5539440000000 1.0
C      1  0.4637780000000  0.5460070000000  0.5298210000000 1.0
C      1  0.5043320000000  0.6232110000000  0.4970130000000 1.0
C      1  0.5573970000000  0.5912370000000  0.5378200000000 1.0
C      1  0.5467270000000  0.4548920000000  0.4950360000000 1.0
C      1  0.5674040000000  0.4695900000000  0.5856040000000 1.0
C      1  0.5629880000000  0.4704990000000  0.4153560000000 1.0
C      1  0.4534040000000  0.4637170000000  0.4075550000000 1.0
C      1  0.4652310000000  0.4381010000000  0.4239960000000 1.0
C      1  0.5182300000000  0.5088340000000  0.4402300000000 1.0
C      1  0.4979140000000  0.4062930000000  0.4451800000000 1.0
C      1  0.4734140000000  0.4644790000000  0.5784470000000 1.0
C      1  0.5176470000000  0.5020010000000  0.4818930000000 1.0
C      1  0.4079730000000  0.4849650000000  0.5646010000000 1.0
C      1  0.4669720000000  0.5676370000000  0.5733030000000 1.0
C      1  0.4668480000000  0.4452470000000  0.5567950000000 1.0
C      1  0.5712910000000  0.5937470000000  0.5780820000000 1.0
C      1  0.5862840000000  0.5208050000000  0.4425080000000 1.0
C      1  0.5299970000000  0.6164950000000  0.4829560000000 1.0
C      1  0.5924840000000  0.4930270000000  0.4498330000000 1.0
C      1  0.4128900000000  0.4287320000000  0.5049910000000 1.0
C      1  0.4785100000000  0.5906550000000  0.5569670000000 1.0
C      1  0.4545180000000  0.4477200000000  0.4499670000000 1.0
C      1  0.5937880000000  0.4637490000000  0.4874480000000 1.0
C      1  0.5504850000000  0.5459290000000  0.5103330000000 1.0
C      1  0.5765510000000  0.4778870000000  0.5401920000000 1.0
C      1  0.4843620000000  0.5659520000000  0.5244400000000 1.0
C      1  0.4528850000000  0.4534710000000  0.5311140000000 1.0
C      1  0.5744360000000  0.5229250000000  0.5722760000000 1.0
C      1  0.4311340000000  0.4778570000000  0.4202290000000 1.0
C      1  0.4278680000000  0.4066250000000  0.4477700000000 1.0
C      1  0.5659850000000  0.4315030000000  0.4459420000000 1.0
C      1  0.5503030000000  0.4747100000000  0.4412400000000 1.0
C      1  0.5215310000000  0.4645800000000  0.5053730000000 1.0
C      1  0.4252970000000  0.4636100000000  0.5319620000000 1.0
C      1  0.4086030000000  0.4384370000000  0.5328400000000 1.0
C      1  0.4061720000000  0.4851910000000  0.4676160000000 1.0
C      1  0.4162340000000  0.4448320000000  0.5745340000000 1.0
C      1  0.5200120000000  0.3980920000000  0.4910210000000 1.0
C      1  0.5755060000000  0.5528210000000  0.5753860000000 1.0
C      1  0.4973760000000  0.4590400000000  0.4941250000000 1.0
C      1  0.4158460000000  0.4911910000000  0.5386470000000 1.0
C      1  0.4988650000000  0.4759180000000  0.6095340000000 1.0
C      1  0.5283420000000  0.5576930000000  0.5949760000000 1.0
C      1  0.5251360000000  0.4653500000000  0.4502760000000 1.0
C      1  0.5851090000000  0.5751400000000  0.4982650000000 1.0
C      1  0.5223920000000  0.4023840000000  0.4618100000000 1.0
C      1  0.5144490000000  0.4833330000000  0.5265020000000 1.0
C      1  0.5548740000000  0.4412610000000  0.4194150000000 1.0
C      1  0.5458030000000  0.4111150000000  0.5367400000000 1.0
C      1  0.5603710000000  0.5794320000000  0.4600680000000 1.0
C      1  0.5239590000000  0.5437000000000  0.4041280000000 1.0
C      1  0.4185420000000  0.5392560000000  0.4688950000000 1.0
C      1  0.4635690000000  0.4426490000000  0.4774900000000 1.0
C      1  0.5037340000000  0.5523690000000  0.4496650000000 1.0
C      1  0.4728740000000  0.4819410000000  0.5024220000000 1.0
C      1  0.5323070000000  0.5845190000000  0.5515500000000 1.0
C      1  0.4417590000000  0.5142160000000  0.5830590000000 1.0
C      1  0.4764850000000  0.5223430000000  0.5413450000000 1.0
C      1  0.5541440000000  0.4273730000000  0.4924210000000 1.0
C      1  0.6003040000000  0.5374840000000  0.5293910000000 1.0
C      1  0.4568720000000  0.5415310000000  0.5017810000000 1.0
C      1  0.4817380000000  0.5144840000000  0.4030820000000 1.0
C      1  0.5034530000000  0.5467230000000  0.6032300000000 1.0
C      1  0.4747920000000  0.4953840000000  0.4777350000000 1.0
C      1  0.3925870000000  0.5277650000000  0.4606490000000 1.0
C      1  0.4365720000000  0.4096910000000  0.4991890000000 1.0
C      1  0.4355370000000  0.5292660000000  0.4205820000000 1.0
C      1  0.5447190000000  0.4173160000000  0.4521970000000 1.0
C      1  0.4314120000000  0.4920430000000  0.5984700000000 1.0
C      1  0.5928100000000  0.5365890000000  0.4653390000000 1.0
C      1  0.4442040000000  0.5933340000000  0.4413310000000 1.0
C      1  0.4295700000000  0.5252480000000  0.4938180000000 1.0
END
