TITL C-4164238-4211-50 -3.0511772544846 125000 -8872.40808082922 0 0 61 (C1) n - 1
REM
REM in /home/nfs/bkarasulu/CARBON/AIRSS/Generating-Clusters/ReaxFF-fromJPCA2015/Units_Real/with-SteepDescent/Only-C1/SD-CG/Try1-3A/FIRE-CG
REM
REM
REM
REM
REM
REM ./C.cell (11c1c37f851c82e70ff6c80c92926a4b)
REM
REM compiler GCC version 9.2.1 20190827 (Red Hat 9.2.1-1)
REM options -cpp -mtune=generic -march=x86-64 -g -O0 -fpre-include=/usr/include/finclude/math-vector-fortran.h
REM seed -477753125 -1819837763 1962701525 -1091386213 1128569396 719721130 1101355464 -2038332181 -1354535823 560396107 412502014 -738858150 -1918158143 -941863218 -85264429 654722299 1071303985 -714165496 1307082991 918291376 2040068057 -845828866 1526082988 -15139579 1002942158 167737330 455505879 67947323 -1498860595 -1630068871 -476729955 -2036434842 -795601821
REM
CELL 1.54180   50.00000   50.00000   50.00000   90.00000   90.00000   90.00000
LATT -1
SFAC C  
C      1  0.5623570000000  0.4693080000000  0.5261030000000 1.0
C      1  0.5191230000000  0.4722130000000  0.5647000000000 1.0
C      1  0.4876900000000  0.5897170000000  0.5076570000000 1.0
C      1  0.5406220000000  0.5136760000000  0.5195260000000 1.0
C      1  0.5562250000000  0.5183490000000  0.4623720000000 1.0
C      1  0.4695540000000  0.4188250000000  0.4958890000000 1.0
C      1  0.5356350000000  0.4816370000000  0.4710780000000 1.0
C      1  0.4969090000000  0.4559800000000  0.4579220000000 1.0
C      1  0.4982480000000  0.5085630000000  0.4665420000000 1.0
C      1  0.5623730000000  0.5443870000000  0.4921590000000 1.0
C      1  0.4625860000000  0.4379670000000  0.4758650000000 1.0
C      1  0.5231210000000  0.4244300000000  0.5492870000000 1.0
C      1  0.4917650000000  0.5451980000000  0.5647780000000 1.0
C      1  0.4860130000000  0.5569840000000  0.5370510000000 1.0
C      1  0.5330280000000  0.4906940000000  0.4306940000000 1.0
C      1  0.4638010000000  0.4697370000000  0.5387700000000 1.0
C      1  0.5300290000000  0.5620420000000  0.5281790000000 1.0
C      1  0.5282430000000  0.4896630000000  0.4994950000000 1.0
C      1  0.4840600000000  0.4247630000000  0.5224420000000 1.0
C      1  0.5421550000000  0.5384260000000  0.4707780000000 1.0
C      1  0.4541680000000  0.5094820000000  0.5032050000000 1.0
C      1  0.5052470000000  0.4470020000000  0.5583070000000 1.0
C      1  0.4338130000000  0.4883430000000  0.4975090000000 1.0
C      1  0.5746790000000  0.4928280000000  0.5163670000000 1.0
C      1  0.5037220000000  0.5349300000000  0.4344700000000 1.0
C      1  0.5123690000000  0.5245100000000  0.5604550000000 1.0
C      1  0.4692710000000  0.5710050000000  0.4929250000000 1.0
C      1  0.4356300000000  0.5260170000000  0.4649890000000 1.0
C      1  0.5679470000000  0.5193850000000  0.5119510000000 1.0
C      1  0.4849420000000  0.5379770000000  0.5146860000000 1.0
C      1  0.4489960000000  0.4814610000000  0.4489680000000 1.0
C      1  0.4891460000000  0.5112370000000  0.5255100000000 1.0
C      1  0.5288070000000  0.5334820000000  0.5371510000000 1.0
C      1  0.5117970000000  0.4821810000000  0.4535460000000 1.0
C      1  0.5491720000000  0.4724560000000  0.5554520000000 1.0
C      1  0.5117930000000  0.4354700000000  0.4734010000000 1.0
C      1  0.5518040000000  0.5670680000000  0.5083520000000 1.0
C      1  0.4801260000000  0.4449620000000  0.5425360000000 1.0
C      1  0.4406830000000  0.5605050000000  0.5002990000000 1.0
C      1  0.4415760000000  0.5344570000000  0.5149850000000 1.0
C      1  0.5024650000000  0.4959230000000  0.5632540000000 1.0
C      1  0.4218540000000  0.5491680000000  0.4799240000000 1.0
C      1  0.5546080000000  0.4928410000000  0.4516970000000 1.0
C      1  0.5268510000000  0.4378600000000  0.4994950000000 1.0
C      1  0.4994500000000  0.4926360000000  0.5057600000000 1.0
C      1  0.5569720000000  0.4830290000000  0.5769560000000 1.0
C      1  0.4598140000000  0.5038620000000  0.4360840000000 1.0
C      1  0.5415800000000  0.4619850000000  0.5070140000000 1.0
C      1  0.4626050000000  0.5369410000000  0.4614390000000 1.0
C      1  0.5194980000000  0.5139640000000  0.4260560000000 1.0
C      1  0.4731200000000  0.5289120000000  0.4358390000000 1.0
C      1  0.4798330000000  0.5001640000000  0.4870100000000 1.0
C      1  0.4458290000000  0.4728240000000  0.5173320000000 1.0
C      1  0.4784200000000  0.4947510000000  0.5473930000000 1.0
C      1  0.5139240000000  0.4206710000000  0.5208440000000 1.0
C      1  0.5049790000000  0.5784370000000  0.5292870000000 1.0
C      1  0.4678570000000  0.4564720000000  0.4569080000000 1.0
C      1  0.4329110000000  0.4961040000000  0.4677480000000 1.0
C      1  0.5097430000000  0.5357070000000  0.4648280000000 1.0
C      1  0.4831190000000  0.5459830000000  0.4850510000000 1.0
C      1  0.4953460000000  0.4144470000000  0.4837260000000 1.0
END
