TITL C-4164243-3780-701 16.7458791141064 125000 -26231.0659593217 0 0 174 (C1) n - 1
REM
REM in /home/nfs/bkarasulu/CARBON/AIRSS/Generating-Clusters/ReaxFF-fromJPCA2015/Units_Real/with-SteepDescent/Only-C1/SD-CG/Try1-3A/FIRE-CG
REM
REM
REM
REM
REM
REM ./C.cell (11c1c37f851c82e70ff6c80c92926a4b)
REM
REM compiler GCC version 9.2.1 20190827 (Red Hat 9.2.1-1)
REM options -cpp -mtune=generic -march=x86-64 -g -O0 -fpre-include=/usr/include/finclude/math-vector-fortran.h
REM seed 1823174926 -493388499 20786451 -742516600 1711421977 -123575560 371541859 999662392 -1938921404 -296581909 -1253819477 -2041837854 1418313610 1439876805 804442756 -772632787 -989431745 -1116273701 1319920286 274128964 -518895800 218005159 -1544309019 1799146864 1645435987 543303291 2055451878 1200523369 1179192953 -1722124247 690074885 -1191277403 1340527723
REM
CELL 1.54180   50.00000   50.00000   50.00000   90.00000   90.00000   90.00000
LATT -1
SFAC C  
C      1  0.5433810000000  0.5245720000000  0.4578490000000 1.0
C      1  0.5187120000000  0.3948090000000  0.5075850000000 1.0
C      1  0.5723290000000  0.4955170000000  0.5257740000000 1.0
C      1  0.4773540000000  0.4677370000000  0.6088550000000 1.0
C      1  0.6086790000000  0.4949620000000  0.5022490000000 1.0
C      1  0.6086470000000  0.5340740000000  0.5344750000000 1.0
C      1  0.4743790000000  0.4984940000000  0.5621990000000 1.0
C      1  0.4729880000000  0.5445810000000  0.4644680000000 1.0
C      1  0.5350730000000  0.4263910000000  0.5733390000000 1.0
C      1  0.4125380000000  0.4977230000000  0.5443610000000 1.0
C      1  0.5831490000000  0.4636890000000  0.4697500000000 1.0
C      1  0.5572920000000  0.4290940000000  0.4989150000000 1.0
C      1  0.4539340000000  0.4342950000000  0.4376080000000 1.0
C      1  0.4912940000000  0.5191870000000  0.5414070000000 1.0
C      1  0.4937640000000  0.4820960000000  0.5826430000000 1.0
C      1  0.4247270000000  0.5021060000000  0.5724890000000 1.0
C      1  0.5403640000000  0.4906130000000  0.4010280000000 1.0
C      1  0.4932360000000  0.5084260000000  0.4444410000000 1.0
C      1  0.4771110000000  0.4028140000000  0.5753290000000 1.0
C      1  0.5740540000000  0.5225760000000  0.4854130000000 1.0
C      1  0.5080450000000  0.4164690000000  0.4899920000000 1.0
C      1  0.5201340000000  0.5625190000000  0.5148460000000 1.0
C      1  0.4590610000000  0.5708710000000  0.5022730000000 1.0
C      1  0.5088490000000  0.5724740000000  0.5757370000000 1.0
C      1  0.4048820000000  0.5092570000000  0.4654590000000 1.0
C      1  0.5251440000000  0.4168630000000  0.4299790000000 1.0
C      1  0.5475760000000  0.5381240000000  0.4052270000000 1.0
C      1  0.4924380000000  0.4608200000000  0.4976890000000 1.0
C      1  0.4807510000000  0.5734000000000  0.5388120000000 1.0
C      1  0.5257370000000  0.5473250000000  0.5682980000000 1.0
C      1  0.4749610000000  0.5001430000000  0.4936760000000 1.0
C      1  0.5104350000000  0.4638420000000  0.5200590000000 1.0
C      1  0.5538630000000  0.4855810000000  0.5070590000000 1.0
C      1  0.5827970000000  0.4471260000000  0.5088630000000 1.0
C      1  0.4756090000000  0.5447850000000  0.5355760000000 1.0
C      1  0.5974450000000  0.5315220000000  0.5610240000000 1.0
C      1  0.5225590000000  0.4553430000000  0.4666340000000 1.0
C      1  0.4117540000000  0.4516160000000  0.5502250000000 1.0
C      1  0.4565920000000  0.5169970000000  0.4774720000000 1.0
C      1  0.5493710000000  0.4046250000000  0.5106550000000 1.0
C      1  0.5480840000000  0.5398180000000  0.5848120000000 1.0
C      1  0.4641760000000  0.5542860000000  0.5831510000000 1.0
C      1  0.5219900000000  0.4368090000000  0.4082300000000 1.0
C      1  0.5326090000000  0.4805840000000  0.5248250000000 1.0
C      1  0.4623940000000  0.4784830000000  0.5434160000000 1.0
C      1  0.4082240000000  0.5117070000000  0.4058070000000 1.0
C      1  0.4173040000000  0.5702770000000  0.5343330000000 1.0
C      1  0.4641460000000  0.5563400000000  0.4007690000000 1.0
C      1  0.5143730000000  0.5929540000000  0.4462170000000 1.0
C      1  0.4976420000000  0.5009980000000  0.3955690000000 1.0
C      1  0.5278340000000  0.6044380000000  0.5093210000000 1.0
C      1  0.4011960000000  0.4713090000000  0.5018230000000 1.0
C      1  0.5404540000000  0.4685650000000  0.5965330000000 1.0
C      1  0.4785370000000  0.5338310000000  0.4365530000000 1.0
C      1  0.4413030000000  0.4915750000000  0.5265060000000 1.0
C      1  0.4082580000000  0.5383970000000  0.4611590000000 1.0
C      1  0.5015600000000  0.6010290000000  0.4957650000000 1.0
C      1  0.5358860000000  0.5819300000000  0.4320520000000 1.0
C      1  0.5138450000000  0.5971650000000  0.5626020000000 1.0
C      1  0.5544220000000  0.4120610000000  0.4333330000000 1.0
C      1  0.4257480000000  0.4547660000000  0.5771560000000 1.0
C      1  0.5579820000000  0.5991130000000  0.5099350000000 1.0
C      1  0.5819600000000  0.4495700000000  0.5372230000000 1.0
C      1  0.4197020000000  0.5472120000000  0.5519570000000 1.0
C      1  0.5154160000000  0.5220760000000  0.4678290000000 1.0
C      1  0.4773340000000  0.5377800000000  0.6061270000000 1.0
C      1  0.5304670000000  0.5343790000000  0.5162150000000 1.0
C      1  0.4568690000000  0.4264290000000  0.4647690000000 1.0
C      1  0.4431900000000  0.4124750000000  0.5428950000000 1.0
C      1  0.4854610000000  0.4151300000000  0.4690680000000 1.0
C      1  0.4425790000000  0.4334250000000  0.5874900000000 1.0
C      1  0.4362880000000  0.4385910000000  0.5110160000000 1.0
C      1  0.4972490000000  0.6011510000000  0.4636500000000 1.0
C      1  0.5311150000000  0.4340380000000  0.4853100000000 1.0
C      1  0.4497050000000  0.5122760000000  0.5722420000000 1.0
C      1  0.5864160000000  0.4559280000000  0.4416380000000 1.0
C      1  0.4747340000000  0.4549680000000  0.4275940000000 1.0
C      1  0.5581390000000  0.5339340000000  0.5061990000000 1.0
C      1  0.5629190000000  0.4987060000000  0.5529610000000 1.0
C      1  0.5234490000000  0.4554600000000  0.6165600000000 1.0
C      1  0.4662110000000  0.5122620000000  0.6110150000000 1.0
C      1  0.5039580000000  0.4575140000000  0.5731140000000 1.0
C      1  0.4093350000000  0.5563940000000  0.5075660000000 1.0
C      1  0.5184150000000  0.4225390000000  0.5507590000000 1.0
C      1  0.5493740000000  0.5740430000000  0.4784120000000 1.0
C      1  0.6015460000000  0.5221530000000  0.4932520000000 1.0
C      1  0.5534510000000  0.4483750000000  0.5793940000000 1.0
C      1  0.4137640000000  0.5291440000000  0.5093390000000 1.0
C      1  0.5202120000000  0.5662120000000  0.4860380000000 1.0
C      1  0.5710530000000  0.5297900000000  0.4218720000000 1.0
C      1  0.4207420000000  0.4289780000000  0.5338470000000 1.0
C      1  0.4412980000000  0.5198950000000  0.5069630000000 1.0
C      1  0.5307150000000  0.4863920000000  0.4281100000000 1.0
C      1  0.5059640000000  0.4497590000000  0.5455280000000 1.0
C      1  0.4776940000000  0.4806890000000  0.4514840000000 1.0
C      1  0.3968640000000  0.4948750000000  0.4868660000000 1.0
C      1  0.4322990000000  0.4802330000000  0.5894480000000 1.0
C      1  0.5390990000000  0.4731340000000  0.4526400000000 1.0
C      1  0.5000700000000  0.5505660000000  0.4204070000000 1.0
C      1  0.6003090000000  0.5479620000000  0.5096450000000 1.0
C      1  0.5256760000000  0.5858450000000  0.5330590000000 1.0
C      1  0.5039960000000  0.5278200000000  0.6043650000000 1.0
C      1  0.4429960000000  0.4672780000000  0.5098400000000 1.0
C      1  0.4489200000000  0.5671960000000  0.4748350000000 1.0
C      1  0.4429560000000  0.5391100000000  0.5711420000000 1.0
C      1  0.5154220000000  0.5180780000000  0.4979650000000 1.0
C      1  0.5013530000000  0.4667480000000  0.6303560000000 1.0
C      1  0.4492960000000  0.5966890000000  0.4596500000000 1.0
C      1  0.5738910000000  0.5473770000000  0.5713750000000 1.0
C      1  0.4953280000000  0.4467380000000  0.4074300000000 1.0
C      1  0.4170700000000  0.4596360000000  0.4793570000000 1.0
C      1  0.5486070000000  0.4440640000000  0.3980110000000 1.0
C      1  0.5828790000000  0.4853540000000  0.5704590000000 1.0
C      1  0.6042890000000  0.5029260000000  0.5620720000000 1.0
C      1  0.4540910000000  0.4872450000000  0.6103360000000 1.0
C      1  0.5027770000000  0.3826740000000  0.5278030000000 1.0
C      1  0.4208840000000  0.5354300000000  0.4123140000000 1.0
C      1  0.4268280000000  0.4421580000000  0.4266680000000 1.0
C      1  0.4791830000000  0.5742180000000  0.5689870000000 1.0
C      1  0.4665900000000  0.4730220000000  0.4967400000000 1.0
C      1  0.4027080000000  0.4720490000000  0.5323190000000 1.0
C      1  0.5574410000000  0.4798120000000  0.4739270000000 1.0
C      1  0.5692810000000  0.5715020000000  0.5554990000000 1.0
C      1  0.4238560000000  0.4887980000000  0.4045490000000 1.0
C      1  0.4523210000000  0.4927500000000  0.4606590000000 1.0
C      1  0.5301530000000  0.5193400000000  0.5991250000000 1.0
C      1  0.5073160000000  0.4992620000000  0.4224880000000 1.0
C      1  0.4861960000000  0.4198760000000  0.5963130000000 1.0
C      1  0.4739860000000  0.4520550000000  0.5393970000000 1.0
C      1  0.5205820000000  0.5256150000000  0.5478890000000 1.0
C      1  0.5781910000000  0.5039740000000  0.4322410000000 1.0
C      1  0.4937350000000  0.4059480000000  0.5483960000000 1.0
C      1  0.5064080000000  0.5254710000000  0.3828780000000 1.0
C      1  0.4665330000000  0.4394340000000  0.6029840000000 1.0
C      1  0.5286800000000  0.5568410000000  0.4177010000000 1.0
C      1  0.5570020000000  0.5723130000000  0.4505340000000 1.0
C      1  0.4964010000000  0.4658430000000  0.4703590000000 1.0
C      1  0.5725060000000  0.5759770000000  0.4975800000000 1.0
C      1  0.5129210000000  0.4362690000000  0.5919570000000 1.0
C      1  0.5791640000000  0.4282700000000  0.4351120000000 1.0
C      1  0.5333890000000  0.4975240000000  0.5537870000000 1.0
C      1  0.4527030000000  0.5306960000000  0.4116170000000 1.0
C      1  0.4737590000000  0.4618590000000  0.3997640000000 1.0
C      1  0.5643060000000  0.5059110000000  0.4617590000000 1.0
C      1  0.4560020000000  0.5444120000000  0.5156490000000 1.0
C      1  0.5661260000000  0.4231650000000  0.4092780000000 1.0
C      1  0.4062930000000  0.5259530000000  0.5357960000000 1.0
C      1  0.4339150000000  0.4359680000000  0.4815120000000 1.0
C      1  0.4495210000000  0.5036350000000  0.3989670000000 1.0
C      1  0.5741540000000  0.5545170000000  0.5141910000000 1.0
C      1  0.4724500000000  0.4882610000000  0.3916950000000 1.0
C      1  0.4946070000000  0.5099240000000  0.5124810000000 1.0
C      1  0.4125170000000  0.5522920000000  0.4354250000000 1.0
C      1  0.5254380000000  0.4914510000000  0.5844040000000 1.0
C      1  0.4341440000000  0.5701710000000  0.4320630000000 1.0
C      1  0.5801420000000  0.4773420000000  0.4217160000000 1.0
C      1  0.4918190000000  0.5495420000000  0.3925360000000 1.0
C      1  0.6057060000000  0.5038820000000  0.5307010000000 1.0
C      1  0.5986460000000  0.4679840000000  0.4939070000000 1.0
C      1  0.5611680000000  0.4705260000000  0.3993950000000 1.0
C      1  0.4694040000000  0.4243650000000  0.5366310000000 1.0
C      1  0.4489470000000  0.4087220000000  0.5719200000000 1.0
C      1  0.4237410000000  0.4824900000000  0.4572350000000 1.0
C      1  0.5038120000000  0.4152030000000  0.4488630000000 1.0
C      1  0.5608730000000  0.5437400000000  0.4459450000000 1.0
C      1  0.4198670000000  0.4707340000000  0.4286060000000 1.0
C      1  0.4584420000000  0.5767440000000  0.4224250000000 1.0
C      1  0.5568010000000  0.5913750000000  0.5383210000000 1.0
C      1  0.4803630000000  0.5883450000000  0.5126820000000 1.0
C      1  0.5014460000000  0.5486500000000  0.4710440000000 1.0
C      1  0.4204010000000  0.5566910000000  0.4805480000000 1.0
C      1  0.4736920000000  0.5980100000000  0.4438600000000 1.0
C      1  0.5343060000000  0.5180640000000  0.3889280000000 1.0
C      1  0.5783520000000  0.4565140000000  0.5656340000000 1.0
END
