TITL C-4164238-4211-547 29.8916785840399 125000 -25508.9150324535 0 0 168 (C1) n - 1
REM
REM in /home/nfs/bkarasulu/CARBON/AIRSS/Generating-Clusters/ReaxFF-fromJPCA2015/Units_Real/with-SteepDescent/Only-C1/SD-CG/Try1-3A/FIRE-CG
REM
REM
REM
REM
REM
REM ./C.cell (11c1c37f851c82e70ff6c80c92926a4b)
REM
REM compiler GCC version 9.2.1 20190827 (Red Hat 9.2.1-1)
REM options -cpp -mtune=generic -march=x86-64 -g -O0 -fpre-include=/usr/include/finclude/math-vector-fortran.h
REM seed 672292470 2073610061 753651842 1460773170 -282977861 -19059391 -50631945 666574039 -461531133 -640396655 498013266 1865377510 2136467425 1480159921 1292132911 -1976077162 1810632170 1126576549 755622435 -1518168654 685841050 1967626397 -503243239 -581624953 -1830771343 -1217170979 -14836862 690405929 1424857801 2049083216 1562271382 1462855119 -860196670
REM
CELL 1.54180   50.00000   50.00000   50.00000   90.00000   90.00000   90.00000
LATT -1
SFAC C  
C      1  0.5103390000000  0.5619070000000  0.5049940000000 1.0
C      1  0.4658710000000  0.4835150000000  0.5615530000000 1.0
C      1  0.5323320000000  0.5508080000000  0.4939350000000 1.0
C      1  0.4818640000000  0.5022210000000  0.3800800000000 1.0
C      1  0.5758820000000  0.5449340000000  0.4400440000000 1.0
C      1  0.3988360000000  0.5192320000000  0.5152810000000 1.0
C      1  0.5090160000000  0.4871070000000  0.6123910000000 1.0
C      1  0.5592590000000  0.4478210000000  0.4300290000000 1.0
C      1  0.4930600000000  0.3961270000000  0.5202670000000 1.0
C      1  0.4710770000000  0.3840100000000  0.5052080000000 1.0
C      1  0.5225270000000  0.6003430000000  0.5642360000000 1.0
C      1  0.5756570000000  0.5807080000000  0.4863320000000 1.0
C      1  0.4058530000000  0.5371870000000  0.4412570000000 1.0
C      1  0.4139520000000  0.4484540000000  0.5349360000000 1.0
C      1  0.4096340000000  0.4685780000000  0.4656130000000 1.0
C      1  0.5408970000000  0.4155460000000  0.5180360000000 1.0
C      1  0.4523630000000  0.5853140000000  0.5414730000000 1.0
C      1  0.5522550000000  0.5655830000000  0.4510340000000 1.0
C      1  0.5498780000000  0.5464220000000  0.5174870000000 1.0
C      1  0.4872210000000  0.5344460000000  0.5398380000000 1.0
C      1  0.5163660000000  0.4475960000000  0.5504060000000 1.0
C      1  0.5855230000000  0.4652610000000  0.4823370000000 1.0
C      1  0.5982780000000  0.5339280000000  0.4549730000000 1.0
C      1  0.6151860000000  0.5004860000000  0.5070200000000 1.0
C      1  0.5362220000000  0.5485840000000  0.4682240000000 1.0
C      1  0.5014360000000  0.4824550000000  0.3851220000000 1.0
C      1  0.4603440000000  0.5573870000000  0.5034880000000 1.0
C      1  0.5270180000000  0.5775290000000  0.4043940000000 1.0
C      1  0.4464050000000  0.3869920000000  0.5207660000000 1.0
C      1  0.5314740000000  0.5210550000000  0.5672430000000 1.0
C      1  0.5456440000000  0.4776940000000  0.5843350000000 1.0
C      1  0.4628760000000  0.5133000000000  0.4886350000000 1.0
C      1  0.4971540000000  0.4552200000000  0.3957380000000 1.0
C      1  0.4291400000000  0.4264970000000  0.5497480000000 1.0
C      1  0.4088010000000  0.4761310000000  0.5436910000000 1.0
C      1  0.5514470000000  0.5000650000000  0.3920620000000 1.0
C      1  0.5363040000000  0.4263300000000  0.5458740000000 1.0
C      1  0.5731630000000  0.4763920000000  0.5730520000000 1.0
C      1  0.5951300000000  0.5628390000000  0.4977290000000 1.0
C      1  0.4552500000000  0.4936070000000  0.5381370000000 1.0
C      1  0.5451320000000  0.4114160000000  0.4689600000000 1.0
C      1  0.3938910000000  0.5175970000000  0.4578810000000 1.0
C      1  0.4472190000000  0.4134440000000  0.4725480000000 1.0
C      1  0.4224670000000  0.5234150000000  0.4214490000000 1.0
C      1  0.5293770000000  0.6042570000000  0.4824580000000 1.0
C      1  0.5329700000000  0.4574020000000  0.4692910000000 1.0
C      1  0.5230560000000  0.4725180000000  0.5656350000000 1.0
C      1  0.5047360000000  0.4851270000000  0.5833330000000 1.0
C      1  0.5032810000000  0.5220140000000  0.5579630000000 1.0
C      1  0.5085870000000  0.5535840000000  0.4067320000000 1.0
C      1  0.4438220000000  0.5398510000000  0.5611740000000 1.0
C      1  0.5516700000000  0.4309230000000  0.5703160000000 1.0
C      1  0.5186240000000  0.5280610000000  0.4640310000000 1.0
C      1  0.4798130000000  0.4170210000000  0.5360340000000 1.0
C      1  0.4700230000000  0.3950170000000  0.4779990000000 1.0
C      1  0.4886600000000  0.6103360000000  0.5151230000000 1.0
C      1  0.4178350000000  0.4949090000000  0.4268800000000 1.0
C      1  0.4589570000000  0.5570710000000  0.4234050000000 1.0
C      1  0.6014790000000  0.5046430000000  0.4578960000000 1.0
C      1  0.5717230000000  0.4962530000000  0.4124430000000 1.0
C      1  0.5729630000000  0.4736290000000  0.4311230000000 1.0
C      1  0.4591430000000  0.4602070000000  0.5783060000000 1.0
C      1  0.4733070000000  0.4495040000000  0.4111440000000 1.0
C      1  0.4916990000000  0.4369760000000  0.6086310000000 1.0
C      1  0.4011300000000  0.4912710000000  0.4501520000000 1.0
C      1  0.5422350000000  0.5705160000000  0.5400540000000 1.0
C      1  0.4487360000000  0.4297510000000  0.4493300000000 1.0
C      1  0.4200870000000  0.3912610000000  0.5056290000000 1.0
C      1  0.5394680000000  0.4376000000000  0.5979540000000 1.0
C      1  0.5408360000000  0.5180420000000  0.5261800000000 1.0
C      1  0.5547090000000  0.4767700000000  0.5170810000000 1.0
C      1  0.4455130000000  0.5357840000000  0.4090390000000 1.0
C      1  0.5188700000000  0.6108900000000  0.5145420000000 1.0
C      1  0.5999930000000  0.4900530000000  0.5328380000000 1.0
C      1  0.5555840000000  0.5898900000000  0.4717270000000 1.0
C      1  0.4976700000000  0.4194950000000  0.4444290000000 1.0
C      1  0.5697460000000  0.4547290000000  0.5308870000000 1.0
C      1  0.5736380000000  0.5162450000000  0.4950650000000 1.0
C      1  0.4915970000000  0.5338850000000  0.6147930000000 1.0
C      1  0.4788800000000  0.6024580000000  0.4894260000000 1.0
C      1  0.5798870000000  0.4977650000000  0.5551690000000 1.0
C      1  0.5037190000000  0.5813610000000  0.4459930000000 1.0
C      1  0.6150310000000  0.5257300000000  0.4968800000000 1.0
C      1  0.5138100000000  0.4298370000000  0.6068010000000 1.0
C      1  0.5224830000000  0.4214030000000  0.4268110000000 1.0
C      1  0.4858880000000  0.4821360000000  0.4560410000000 1.0
C      1  0.4605880000000  0.5155260000000  0.3924560000000 1.0
C      1  0.5987510000000  0.4573730000000  0.5299730000000 1.0
C      1  0.5303050000000  0.5031370000000  0.4736790000000 1.0
C      1  0.4082540000000  0.4888160000000  0.5164190000000 1.0
C      1  0.4460780000000  0.5832660000000  0.4635470000000 1.0
C      1  0.4333440000000  0.4711080000000  0.4256270000000 1.0
C      1  0.4900460000000  0.4628690000000  0.5132980000000 1.0
C      1  0.4619980000000  0.4709280000000  0.4670100000000 1.0
C      1  0.5207420000000  0.5810570000000  0.5243460000000 1.0
C      1  0.4055450000000  0.5373730000000  0.5369080000000 1.0
C      1  0.4700690000000  0.4547200000000  0.6075710000000 1.0
C      1  0.5391140000000  0.4594320000000  0.4149370000000 1.0
C      1  0.4040990000000  0.4657880000000  0.4932380000000 1.0
C      1  0.5521080000000  0.5292380000000  0.3952680000000 1.0
C      1  0.4516820000000  0.4089410000000  0.5390330000000 1.0
C      1  0.4958040000000  0.5301200000000  0.4466090000000 1.0
C      1  0.4907180000000  0.4443890000000  0.5368090000000 1.0
C      1  0.4030930000000  0.5406480000000  0.4959110000000 1.0
C      1  0.4398050000000  0.5761230000000  0.5147690000000 1.0
C      1  0.5016380000000  0.5963450000000  0.4702750000000 1.0
C      1  0.4714090000000  0.4296300000000  0.4322090000000 1.0
C      1  0.4956420000000  0.3970340000000  0.4647820000000 1.0
C      1  0.4358690000000  0.4582580000000  0.4517530000000 1.0
C      1  0.5752940000000  0.4927010000000  0.4533380000000 1.0
C      1  0.5157040000000  0.5165320000000  0.6147170000000 1.0
C      1  0.4931120000000  0.5954010000000  0.5640860000000 1.0
C      1  0.4302690000000  0.4918360000000  0.5910900000000 1.0
C      1  0.4394340000000  0.4832670000000  0.5158820000000 1.0
C      1  0.5552370000000  0.4235760000000  0.4933140000000 1.0
C      1  0.5196370000000  0.3988180000000  0.5077860000000 1.0
C      1  0.5424140000000  0.5753320000000  0.5685200000000 1.0
C      1  0.4851160000000  0.5042880000000  0.5745260000000 1.0
C      1  0.6059130000000  0.4867200000000  0.4816010000000 1.0
C      1  0.4538040000000  0.4973690000000  0.6097110000000 1.0
C      1  0.4656860000000  0.4979180000000  0.4162140000000 1.0
C      1  0.5754560000000  0.4948420000000  0.5144930000000 1.0
C      1  0.4707530000000  0.5187920000000  0.5999920000000 1.0
C      1  0.4185740000000  0.5260170000000  0.5608270000000 1.0
C      1  0.4137370000000  0.5576380000000  0.5166990000000 1.0
C      1  0.5354830000000  0.5287810000000  0.5968460000000 1.0
C      1  0.5466400000000  0.4240490000000  0.4418360000000 1.0
C      1  0.5014250000000  0.4908550000000  0.5120170000000 1.0
C      1  0.5314520000000  0.4950490000000  0.5088360000000 1.0
C      1  0.5092440000000  0.4405990000000  0.4690810000000 1.0
C      1  0.5195260000000  0.4812310000000  0.4555350000000 1.0
C      1  0.5233820000000  0.5302350000000  0.4003950000000 1.0
C      1  0.5315850000000  0.6177310000000  0.5426570000000 1.0
C      1  0.4595120000000  0.5253340000000  0.5385850000000 1.0
C      1  0.5221690000000  0.4977830000000  0.4033180000000 1.0
C      1  0.6118230000000  0.5463300000000  0.4787490000000 1.0
C      1  0.4885810000000  0.5140860000000  0.5015880000000 1.0
C      1  0.5713850000000  0.5268910000000  0.4183010000000 1.0
C      1  0.5587860000000  0.5061500000000  0.4719310000000 1.0
C      1  0.5771840000000  0.5419810000000  0.5072950000000 1.0
C      1  0.4778630000000  0.5751580000000  0.5798310000000 1.0
C      1  0.4505460000000  0.5939810000000  0.4883960000000 1.0
C      1  0.4869550000000  0.5566110000000  0.5981710000000 1.0
C      1  0.5719330000000  0.4492690000000  0.5610130000000 1.0
C      1  0.5201950000000  0.4406030000000  0.4054380000000 1.0
C      1  0.5605560000000  0.4508410000000  0.4811340000000 1.0
C      1  0.4521700000000  0.5676780000000  0.5638240000000 1.0
C      1  0.4441010000000  0.4416470000000  0.5657340000000 1.0
C      1  0.4164250000000  0.4959910000000  0.5666000000000 1.0
C      1  0.5399480000000  0.5550980000000  0.5877280000000 1.0
C      1  0.5212560000000  0.3963610000000  0.4783900000000 1.0
C      1  0.4104360000000  0.5354570000000  0.4695400000000 1.0
C      1  0.4768660000000  0.4807710000000  0.6170090000000 1.0
C      1  0.4476050000000  0.5718380000000  0.4432340000000 1.0
C      1  0.4504210000000  0.5312360000000  0.5082580000000 1.0
C      1  0.4239840000000  0.4170210000000  0.4917440000000 1.0
C      1  0.5274630000000  0.4819410000000  0.4267590000000 1.0
C      1  0.4560240000000  0.4718430000000  0.4122050000000 1.0
C      1  0.4894060000000  0.5450570000000  0.5133450000000 1.0
C      1  0.5347750000000  0.4645370000000  0.6076410000000 1.0
C      1  0.4126380000000  0.4421730000000  0.5060480000000 1.0
C      1  0.5554750000000  0.5136550000000  0.5507310000000 1.0
C      1  0.4978890000000  0.4493270000000  0.4902360000000 1.0
C      1  0.4812620000000  0.5059360000000  0.4402560000000 1.0
C      1  0.4508630000000  0.4863080000000  0.4888520000000 1.0
C      1  0.5303780000000  0.5806100000000  0.4340920000000 1.0
C      1  0.4898820000000  0.5558880000000  0.4323690000000 1.0
C      1  0.4767870000000  0.6012530000000  0.5406500000000 1.0
END
