TITL C-4164239-2837-8 4.169136954452 125000 -12773.6309275576 0 0 86 (C1) n - 1
REM
REM in /home/nfs/bkarasulu/CARBON/AIRSS/Generating-Clusters/ReaxFF-fromJPCA2015/Units_Real/with-SteepDescent/Only-C1/SD-CG/Try1-3A/FIRE-CG
REM
REM
REM
REM
REM
REM ./C.cell (11c1c37f851c82e70ff6c80c92926a4b)
REM
REM compiler GCC version 9.2.1 20190827 (Red Hat 9.2.1-1)
REM options -cpp -mtune=generic -march=x86-64 -g -O0 -fpre-include=/usr/include/finclude/math-vector-fortran.h
REM seed 792892555 1031367327 36265961 -1703736622 -745274273 1737852743 534823439 1270831179 444551820 -1122653965 -389261960 1843982504 1483646708 485052167 -547168487 383115705 -184700451 1675104520 -1898530130 -1583303018 -653663241 -957325476 1347735551 2102707391 -1811209109 1091628183 2004708944 1787964222 -1302373636 -1022788916 -1220272843 512080365 -1065731075
REM
CELL 1.54180   50.00000   50.00000   50.00000   90.00000   90.00000   90.00000
LATT -1
SFAC C  
C      1  0.4555600000000  0.5068960000000  0.4288990000000 1.0
C      1  0.4323120000000  0.4657830000000  0.5729810000000 1.0
C      1  0.5834860000000  0.4707050000000  0.4972880000000 1.0
C      1  0.5595990000000  0.5219920000000  0.4660910000000 1.0
C      1  0.4537900000000  0.4591490000000  0.4549800000000 1.0
C      1  0.5434330000000  0.4996240000000  0.5102040000000 1.0
C      1  0.5614680000000  0.4247860000000  0.5047870000000 1.0
C      1  0.5035750000000  0.5174940000000  0.5771560000000 1.0
C      1  0.4676280000000  0.5386410000000  0.4955800000000 1.0
C      1  0.4515450000000  0.4612440000000  0.5493950000000 1.0
C      1  0.4316610000000  0.5175100000000  0.4674660000000 1.0
C      1  0.5500800000000  0.5034030000000  0.5677920000000 1.0
C      1  0.4619350000000  0.5494530000000  0.5511700000000 1.0
C      1  0.4589950000000  0.4387580000000  0.4729120000000 1.0
C      1  0.5386290000000  0.4600210000000  0.4335670000000 1.0
C      1  0.5081110000000  0.4743560000000  0.4913100000000 1.0
C      1  0.5682260000000  0.4516840000000  0.5147770000000 1.0
C      1  0.5883670000000  0.4995610000000  0.5006790000000 1.0
C      1  0.4867600000000  0.5094310000000  0.5576200000000 1.0
C      1  0.4030710000000  0.4846400000000  0.5116160000000 1.0
C      1  0.5480490000000  0.4567410000000  0.5391990000000 1.0
C      1  0.4912020000000  0.4882690000000  0.4505170000000 1.0
C      1  0.5650190000000  0.5359880000000  0.5293920000000 1.0
C      1  0.5388210000000  0.4290020000000  0.4845240000000 1.0
C      1  0.4083380000000  0.5019070000000  0.5338710000000 1.0
C      1  0.5268270000000  0.4841880000000  0.4197380000000 1.0
C      1  0.5828400000000  0.5046240000000  0.4720180000000 1.0
C      1  0.5050400000000  0.5488640000000  0.5754190000000 1.0
C      1  0.4685330000000  0.5689940000000  0.4944890000000 1.0
C      1  0.4853580000000  0.5338260000000  0.4725580000000 1.0
C      1  0.5821940000000  0.4753200000000  0.4677050000000 1.0
C      1  0.5523170000000  0.5597390000000  0.5163370000000 1.0
C      1  0.5117810000000  0.4168790000000  0.4865420000000 1.0
C      1  0.4433890000000  0.5352180000000  0.5517320000000 1.0
C      1  0.4460020000000  0.5281760000000  0.4443390000000 1.0
C      1  0.5357180000000  0.5560070000000  0.4419980000000 1.0
C      1  0.5450250000000  0.4558360000000  0.4747220000000 1.0
C      1  0.5128340000000  0.4691270000000  0.5721070000000 1.0
C      1  0.4433080000000  0.4817400000000  0.4420410000000 1.0
C      1  0.4924170000000  0.4873300000000  0.5103290000000 1.0
C      1  0.4894320000000  0.5584640000000  0.4361100000000 1.0
C      1  0.5145080000000  0.4474690000000  0.4458030000000 1.0
C      1  0.4668190000000  0.4809770000000  0.5091630000000 1.0
C      1  0.4370550000000  0.4451590000000  0.4915460000000 1.0
C      1  0.4988650000000  0.4640600000000  0.4654140000000 1.0
C      1  0.5547590000000  0.5509510000000  0.4640100000000 1.0
C      1  0.5018040000000  0.5748940000000  0.5309140000000 1.0
C      1  0.5626690000000  0.4595250000000  0.4522670000000 1.0
C      1  0.5680970000000  0.5120210000000  0.5147240000000 1.0
C      1  0.4656810000000  0.5505760000000  0.4497530000000 1.0
C      1  0.5238760000000  0.4965980000000  0.5791740000000 1.0
C      1  0.5227660000000  0.5626410000000  0.5884990000000 1.0
C      1  0.5267240000000  0.5342730000000  0.4238490000000 1.0
C      1  0.4210850000000  0.4733320000000  0.4892990000000 1.0
C      1  0.4851170000000  0.4695680000000  0.5826980000000 1.0
C      1  0.4861610000000  0.5617950000000  0.5534010000000 1.0
C      1  0.4970890000000  0.4382030000000  0.5347300000000 1.0
C      1  0.4393210000000  0.4946680000000  0.5738990000000 1.0
C      1  0.4438070000000  0.5220270000000  0.4930770000000 1.0
C      1  0.5529760000000  0.4780090000000  0.5551340000000 1.0
C      1  0.4254970000000  0.5141620000000  0.5552070000000 1.0
C      1  0.4695880000000  0.4939990000000  0.5740900000000 1.0
C      1  0.5022290000000  0.5121030000000  0.4649210000000 1.0
C      1  0.5193820000000  0.4527120000000  0.5472020000000 1.0
C      1  0.4976970000000  0.4873550000000  0.4216330000000 1.0
C      1  0.4249310000000  0.4889910000000  0.4638810000000 1.0
C      1  0.5372720000000  0.5081110000000  0.4320840000000 1.0
C      1  0.5281550000000  0.5679100000000  0.5269830000000 1.0
C      1  0.4640500000000  0.5690070000000  0.4668830000000 1.0
C      1  0.4676050000000  0.4376260000000  0.5389530000000 1.0
C      1  0.4427050000000  0.4945970000000  0.5059720000000 1.0
C      1  0.5461590000000  0.5254100000000  0.5481210000000 1.0
C      1  0.5334670000000  0.5073260000000  0.4628190000000 1.0
C      1  0.4483530000000  0.4340040000000  0.5161280000000 1.0
C      1  0.5435140000000  0.5644990000000  0.4874610000000 1.0
C      1  0.5272240000000  0.5127980000000  0.5294170000000 1.0
C      1  0.5002790000000  0.5035480000000  0.5333610000000 1.0
C      1  0.5122000000000  0.5692050000000  0.4521530000000 1.0
C      1  0.4525470000000  0.4838790000000  0.5315800000000 1.0
C      1  0.5345030000000  0.4828160000000  0.4872080000000 1.0
C      1  0.4836710000000  0.4231410000000  0.4850010000000 1.0
C      1  0.4817300000000  0.5112350000000  0.4159220000000 1.0
C      1  0.4955700000000  0.5779220000000  0.5016160000000 1.0
C      1  0.4980670000000  0.5360300000000  0.4195500000000 1.0
C      1  0.5163790000000  0.5736330000000  0.4809780000000 1.0
C      1  0.4953700000000  0.4198650000000  0.5115650000000 1.0
END
