TITL C-4164241-3639-736 -11.9251606658066 125000 -9123.2442159262 0 0 62 (C1) n - 1
REM
REM in /home/nfs/bkarasulu/CARBON/AIRSS/Generating-Clusters/ReaxFF-fromJPCA2015/Units_Real/with-SteepDescent/Only-C1/SD-CG/Try1-3A/FIRE-CG
REM
REM
REM
REM
REM
REM ./C.cell (11c1c37f851c82e70ff6c80c92926a4b)
REM
REM compiler GCC version 9.2.1 20190827 (Red Hat 9.2.1-1)
REM options -cpp -mtune=generic -march=x86-64 -g -O0 -fpre-include=/usr/include/finclude/math-vector-fortran.h
REM seed -964262997 -1843018441 1708244334 1563168102 810919547 -1801503181 2090197067 -1965334174 1296246037 841654906 1684316813 748198538 -1462814243 -1909827585 1091020462 -1708409215 507282589 993684215 -1446466425 120315195 1873588216 476166835 -1705399359 -2091034485 -72527254 -717112428 326577211 565194991 1669478181 -759086221 509597828 706273921 1674376469
REM
CELL 1.54180   50.00000   50.00000   50.00000   90.00000   90.00000   90.00000
LATT -1
SFAC C  
C      1  0.5136330000000  0.5219970000000  0.5376550000000 1.0
C      1  0.4927990000000  0.5699240000000  0.4675990000000 1.0
C      1  0.4351040000000  0.4721790000000  0.4552180000000 1.0
C      1  0.5168870000000  0.4240420000000  0.5106420000000 1.0
C      1  0.4946360000000  0.4664830000000  0.5177370000000 1.0
C      1  0.4713600000000  0.5255510000000  0.4415530000000 1.0
C      1  0.4748340000000  0.5408480000000  0.5609330000000 1.0
C      1  0.5491610000000  0.5537150000000  0.5039520000000 1.0
C      1  0.4684500000000  0.5052420000000  0.5326380000000 1.0
C      1  0.4826730000000  0.4593590000000  0.4670370000000 1.0
C      1  0.5094240000000  0.4945040000000  0.5529910000000 1.0
C      1  0.4877840000000  0.4257950000000  0.5031220000000 1.0
C      1  0.5015730000000  0.5250360000000  0.5111940000000 1.0
C      1  0.5625670000000  0.5204720000000  0.4824260000000 1.0
C      1  0.5317510000000  0.4765650000000  0.4492320000000 1.0
C      1  0.5655870000000  0.5291330000000  0.5083400000000 1.0
C      1  0.5040050000000  0.5495090000000  0.4501430000000 1.0
C      1  0.5198030000000  0.4303920000000  0.4657750000000 1.0
C      1  0.5458610000000  0.5306050000000  0.4623840000000 1.0
C      1  0.5143250000000  0.4449350000000  0.5302060000000 1.0
C      1  0.4381550000000  0.5273080000000  0.4975350000000 1.0
C      1  0.5205500000000  0.4496550000000  0.4432820000000 1.0
C      1  0.4718470000000  0.5224080000000  0.4715300000000 1.0
C      1  0.5164610000000  0.5223290000000  0.4565490000000 1.0
C      1  0.4733670000000  0.5302870000000  0.5183690000000 1.0
C      1  0.4772970000000  0.5746580000000  0.5178400000000 1.0
C      1  0.4902930000000  0.4868880000000  0.5345480000000 1.0
C      1  0.4712900000000  0.4465550000000  0.5163040000000 1.0
C      1  0.5318380000000  0.5699830000000  0.5226530000000 1.0
C      1  0.4557750000000  0.5444040000000  0.4832250000000 1.0
C      1  0.5680280000000  0.4740990000000  0.5071660000000 1.0
C      1  0.4934260000000  0.4863710000000  0.4259510000000 1.0
C      1  0.4335580000000  0.4763780000000  0.5206450000000 1.0
C      1  0.5476110000000  0.4597800000000  0.4939240000000 1.0
C      1  0.4467300000000  0.4849160000000  0.4395970000000 1.0
C      1  0.5168970000000  0.4989080000000  0.4376550000000 1.0
C      1  0.5431330000000  0.5567270000000  0.4754850000000 1.0
C      1  0.4668930000000  0.4996740000000  0.4257560000000 1.0
C      1  0.5050380000000  0.5746850000000  0.5162910000000 1.0
C      1  0.4666170000000  0.5531150000000  0.5360340000000 1.0
C      1  0.5360040000000  0.4326100000000  0.4901080000000 1.0
C      1  0.4519500000000  0.4617490000000  0.4741360000000 1.0
C      1  0.4601290000000  0.4851150000000  0.5677920000000 1.0
C      1  0.5645340000000  0.4605710000000  0.5322520000000 1.0
C      1  0.4470910000000  0.4567110000000  0.5037390000000 1.0
C      1  0.4493830000000  0.4707710000000  0.5432650000000 1.0
C      1  0.5292800000000  0.4774140000000  0.4789120000000 1.0
C      1  0.5199220000000  0.5687160000000  0.4628620000000 1.0
C      1  0.5361780000000  0.4798160000000  0.5562700000000 1.0
C      1  0.5621530000000  0.4877650000000  0.5452410000000 1.0
C      1  0.4984660000000  0.5110300000000  0.4844200000000 1.0
C      1  0.4939020000000  0.4598220000000  0.4383090000000 1.0
C      1  0.5374770000000  0.4535230000000  0.5451770000000 1.0
C      1  0.4920650000000  0.4318200000000  0.4748840000000 1.0
C      1  0.4607250000000  0.5151890000000  0.5594170000000 1.0
C      1  0.5247810000000  0.5613820000000  0.5515430000000 1.0
C      1  0.5054160000000  0.5402530000000  0.5591890000000 1.0
C      1  0.4868030000000  0.4873580000000  0.5771870000000 1.0
C      1  0.5651400000000  0.5000660000000  0.5184780000000 1.0
C      1  0.4733410000000  0.5675680000000  0.4893050000000 1.0
C      1  0.5012960000000  0.4801940000000  0.4870550000000 1.0
C      1  0.4269390000000  0.5051410000000  0.5093420000000 1.0
END
