TITL C-4164245-3996-305 14.0357168038872 125000 -22907.3541784037 0 0 153 (C1) n - 1
REM
REM in /home/nfs/bkarasulu/CARBON/AIRSS/Generating-Clusters/ReaxFF-fromJPCA2015/Units_Real/with-SteepDescent/Only-C1/SD-CG/Try1-3A/FIRE-CG
REM
REM
REM
REM
REM
REM ./C.cell (11c1c37f851c82e70ff6c80c92926a4b)
REM
REM compiler GCC version 9.2.1 20190827 (Red Hat 9.2.1-1)
REM options -cpp -mtune=generic -march=x86-64 -g -O0 -fpre-include=/usr/include/finclude/math-vector-fortran.h
REM seed 926435724 -1124685387 -1881811417 -1669899131 439076602 -714249398 -1823945599 -504204464 -2017631941 -1780664366 -1402127283 390270386 855851479 -1491531392 -767816418 1826609384 -2000442558 -1162039626 -1275752841 538283670 -1047871388 215874946 54782104 127164497 -1706275254 -1728841437 -688883500 490388692 2062854 676435890 -1784633906 -175318863 -986658724
REM
CELL 1.54180   50.00000   50.00000   50.00000   90.00000   90.00000   90.00000
LATT -1
SFAC C  
C      1  0.5043930000000  0.4423840000000  0.5930630000000 1.0
C      1  0.5886390000000  0.4523130000000  0.4616900000000 1.0
C      1  0.5082490000000  0.5043060000000  0.3906460000000 1.0
C      1  0.4980240000000  0.5922370000000  0.4645030000000 1.0
C      1  0.4794730000000  0.5383760000000  0.6035240000000 1.0
C      1  0.4560340000000  0.4929090000000  0.6092150000000 1.0
C      1  0.4973780000000  0.5417130000000  0.5665720000000 1.0
C      1  0.5061450000000  0.4780070000000  0.4343320000000 1.0
C      1  0.4825290000000  0.5840380000000  0.4382820000000 1.0
C      1  0.4457910000000  0.4166030000000  0.4811130000000 1.0
C      1  0.4984500000000  0.4490780000000  0.5415640000000 1.0
C      1  0.5104970000000  0.5430960000000  0.4358790000000 1.0
C      1  0.5718400000000  0.4132600000000  0.5315930000000 1.0
C      1  0.5133000000000  0.4369120000000  0.4178710000000 1.0
C      1  0.5648480000000  0.5802550000000  0.4946390000000 1.0
C      1  0.5323730000000  0.4183280000000  0.4599260000000 1.0
C      1  0.4533290000000  0.6098920000000  0.4766690000000 1.0
C      1  0.4880560000000  0.5277030000000  0.4324750000000 1.0
C      1  0.4878200000000  0.4350060000000  0.4328850000000 1.0
C      1  0.5323730000000  0.6114460000000  0.5199720000000 1.0
C      1  0.4650650000000  0.5175640000000  0.5410400000000 1.0
C      1  0.5485070000000  0.5431420000000  0.4658200000000 1.0
C      1  0.5449420000000  0.4613820000000  0.5375880000000 1.0
C      1  0.5609280000000  0.5179980000000  0.5854030000000 1.0
C      1  0.4823620000000  0.5869950000000  0.5129180000000 1.0
C      1  0.4583070000000  0.4656890000000  0.5978310000000 1.0
C      1  0.5172510000000  0.5969640000000  0.5418960000000 1.0
C      1  0.4348630000000  0.4802520000000  0.5534360000000 1.0
C      1  0.5418010000000  0.4662950000000  0.4911320000000 1.0
C      1  0.5114340000000  0.4152530000000  0.4831950000000 1.0
C      1  0.5834080000000  0.5287960000000  0.5387990000000 1.0
C      1  0.4819020000000  0.4104350000000  0.5347860000000 1.0
C      1  0.5298470000000  0.4876200000000  0.6103890000000 1.0
C      1  0.5398850000000  0.5351660000000  0.5770660000000 1.0
C      1  0.5552750000000  0.4912150000000  0.4220730000000 1.0
C      1  0.4971020000000  0.4560810000000  0.4520020000000 1.0
C      1  0.3947120000000  0.5193700000000  0.5192750000000 1.0
C      1  0.5582110000000  0.4497820000000  0.5623690000000 1.0
C      1  0.4874960000000  0.5355880000000  0.5404740000000 1.0
C      1  0.4063560000000  0.5465820000000  0.5229490000000 1.0
C      1  0.3954510000000  0.4918930000000  0.4884590000000 1.0
C      1  0.4232130000000  0.4682850000000  0.4236080000000 1.0
C      1  0.4379070000000  0.5666970000000  0.4463030000000 1.0
C      1  0.4842810000000  0.5599830000000  0.5850440000000 1.0
C      1  0.4861870000000  0.4686060000000  0.4755410000000 1.0
C      1  0.4850640000000  0.4640660000000  0.5855420000000 1.0
C      1  0.4973730000000  0.5651510000000  0.5029620000000 1.0
C      1  0.4447130000000  0.5282410000000  0.5581680000000 1.0
C      1  0.4472360000000  0.4038170000000  0.4554420000000 1.0
C      1  0.5274930000000  0.4876320000000  0.5046650000000 1.0
C      1  0.5456910000000  0.5666690000000  0.4250990000000 1.0
C      1  0.4752170000000  0.4797120000000  0.5134580000000 1.0
C      1  0.5106520000000  0.4041020000000  0.5337770000000 1.0
C      1  0.5827690000000  0.4271620000000  0.4780080000000 1.0
C      1  0.4244630000000  0.5161340000000  0.4332580000000 1.0
C      1  0.5480390000000  0.4685710000000  0.4395720000000 1.0
C      1  0.5415620000000  0.5805230000000  0.5461690000000 1.0
C      1  0.4706810000000  0.5214630000000  0.4835430000000 1.0
C      1  0.5662290000000  0.5303690000000  0.4859650000000 1.0
C      1  0.4800010000000  0.4961600000000  0.4639120000000 1.0
C      1  0.4755780000000  0.4359480000000  0.5224530000000 1.0
C      1  0.5919840000000  0.4776120000000  0.4758210000000 1.0
C      1  0.5041060000000  0.5649120000000  0.4767550000000 1.0
C      1  0.5352350000000  0.4366210000000  0.4368910000000 1.0
C      1  0.5139530000000  0.5185730000000  0.5772570000000 1.0
C      1  0.4393950000000  0.4584310000000  0.5761630000000 1.0
C      1  0.4439320000000  0.4736110000000  0.4722820000000 1.0
C      1  0.4912720000000  0.4765920000000  0.5584770000000 1.0
C      1  0.4259530000000  0.5403730000000  0.4559180000000 1.0
C      1  0.4047630000000  0.5422560000000  0.4766760000000 1.0
C      1  0.5531250000000  0.5904220000000  0.5200380000000 1.0
C      1  0.4663130000000  0.5370910000000  0.4139350000000 1.0
C      1  0.4996340000000  0.4942880000000  0.5052180000000 1.0
C      1  0.5119410000000  0.4654020000000  0.4087320000000 1.0
C      1  0.5085930000000  0.4311450000000  0.5656820000000 1.0
C      1  0.5274270000000  0.6054630000000  0.4696430000000 1.0
C      1  0.4618330000000  0.5673930000000  0.4300880000000 1.0
C      1  0.4615910000000  0.4409090000000  0.4221320000000 1.0
C      1  0.5362720000000  0.4887130000000  0.5452500000000 1.0
C      1  0.5086760000000  0.5084740000000  0.6073770000000 1.0
C      1  0.5489210000000  0.4802720000000  0.4666900000000 1.0
C      1  0.5917040000000  0.4890020000000  0.5682920000000 1.0
C      1  0.5647400000000  0.4582640000000  0.5099680000000 1.0
C      1  0.4843830000000  0.4095820000000  0.4764230000000 1.0
C      1  0.5276740000000  0.4116790000000  0.5569990000000 1.0
C      1  0.5719470000000  0.4991530000000  0.4681350000000 1.0
C      1  0.5821520000000  0.5562880000000  0.4870520000000 1.0
C      1  0.5230970000000  0.5581070000000  0.4115170000000 1.0
C      1  0.6138750000000  0.4718780000000  0.5240930000000 1.0
C      1  0.5577140000000  0.4205380000000  0.4698600000000 1.0
C      1  0.4798790000000  0.5160130000000  0.3932220000000 1.0
C      1  0.4562570000000  0.4834650000000  0.4489060000000 1.0
C      1  0.5838860000000  0.5174470000000  0.5665360000000 1.0
C      1  0.4186350000000  0.4427800000000  0.4386760000000 1.0
C      1  0.4736180000000  0.3955950000000  0.4607030000000 1.0
C      1  0.4486170000000  0.4332330000000  0.5300070000000 1.0
C      1  0.4409540000000  0.5633140000000  0.4913120000000 1.0
C      1  0.4269120000000  0.4458140000000  0.5179330000000 1.0
C      1  0.4027380000000  0.4905960000000  0.5165880000000 1.0
C      1  0.4392890000000  0.5832340000000  0.4700490000000 1.0
C      1  0.4117310000000  0.4901330000000  0.4378090000000 1.0
C      1  0.4634110000000  0.4621080000000  0.4927990000000 1.0
C      1  0.4882950000000  0.5894300000000  0.5419770000000 1.0
C      1  0.4458500000000  0.5170300000000  0.4165740000000 1.0
C      1  0.6105130000000  0.5208790000000  0.5330070000000 1.0
C      1  0.5560220000000  0.4904840000000  0.5945970000000 1.0
C      1  0.4190620000000  0.4705830000000  0.5295210000000 1.0
C      1  0.4928740000000  0.5213510000000  0.5010320000000 1.0
C      1  0.3908920000000  0.5208010000000  0.4902190000000 1.0
C      1  0.5365930000000  0.5064700000000  0.4031930000000 1.0
C      1  0.4565870000000  0.4138160000000  0.5517420000000 1.0
C      1  0.5703350000000  0.4567100000000  0.4404610000000 1.0
C      1  0.5251480000000  0.6232480000000  0.4925280000000 1.0
C      1  0.5764010000000  0.4295910000000  0.5076630000000 1.0
C      1  0.4992640000000  0.5042550000000  0.4436400000000 1.0
C      1  0.4534650000000  0.4713530000000  0.4201750000000 1.0
C      1  0.4132530000000  0.5588620000000  0.4981590000000 1.0
C      1  0.5582680000000  0.5268380000000  0.5181910000000 1.0
C      1  0.4272020000000  0.5594310000000  0.5363430000000 1.0
C      1  0.5062550000000  0.5405560000000  0.5187890000000 1.0
C      1  0.5203620000000  0.4617780000000  0.6054140000000 1.0
C      1  0.5196660000000  0.5432920000000  0.4637480000000 1.0
C      1  0.5199750000000  0.4210160000000  0.5107690000000 1.0
C      1  0.4284560000000  0.5061590000000  0.5682920000000 1.0
C      1  0.4256220000000  0.4346060000000  0.4900120000000 1.0
C      1  0.6110290000000  0.4916350000000  0.5462370000000 1.0
C      1  0.4502020000000  0.4342140000000  0.5704590000000 1.0
C      1  0.5212080000000  0.4477480000000  0.5227260000000 1.0
C      1  0.4658130000000  0.4875020000000  0.5408890000000 1.0
C      1  0.4112150000000  0.4773580000000  0.4666830000000 1.0
C      1  0.4721000000000  0.5742080000000  0.5613220000000 1.0
C      1  0.4953290000000  0.4779630000000  0.3878430000000 1.0
C      1  0.5460680000000  0.5013430000000  0.5218990000000 1.0
C      1  0.4793750000000  0.6030650000000  0.4880890000000 1.0
C      1  0.5363330000000  0.5339930000000  0.4038670000000 1.0
C      1  0.5708640000000  0.4704510000000  0.5792560000000 1.0
C      1  0.4115020000000  0.4471100000000  0.4667870000000 1.0
C      1  0.4686190000000  0.4896840000000  0.3964920000000 1.0
C      1  0.5564710000000  0.4211860000000  0.5563080000000 1.0
C      1  0.4459120000000  0.5597050000000  0.5565430000000 1.0
C      1  0.4807270000000  0.5120240000000  0.6142840000000 1.0
C      1  0.5358470000000  0.5402680000000  0.5275910000000 1.0
C      1  0.5924720000000  0.5504330000000  0.4605540000000 1.0
C      1  0.5746540000000  0.5056570000000  0.4383080000000 1.0
C      1  0.5910150000000  0.4735970000000  0.5045590000000 1.0
C      1  0.4312290000000  0.5047520000000  0.5982620000000 1.0
C      1  0.5423150000000  0.5518730000000  0.5533880000000 1.0
C      1  0.5873020000000  0.5301740000000  0.4433690000000 1.0
C      1  0.5524360000000  0.5902530000000  0.4708550000000 1.0
C      1  0.5133630000000  0.4945420000000  0.5599640000000 1.0
C      1  0.5585400000000  0.5688930000000  0.4498790000000 1.0
C      1  0.4406810000000  0.4251110000000  0.4328020000000 1.0
C      1  0.4498960000000  0.5387280000000  0.4790300000000 1.0
END
