TITL C-4164232-771-671 24.8603660668007 125000 -29551.8573470666 0 0 199 (C1) n - 1
REM
REM in /home/nfs/bkarasulu/CARBON/AIRSS/Generating-Clusters/ReaxFF-fromJPCA2015/Units_Real/with-SteepDescent/Only-C1/SD-CG/Try1-3A/FIRE-CG
REM
REM
REM
REM
REM
REM ./C.cell (11c1c37f851c82e70ff6c80c92926a4b)
REM
REM compiler GCC version 9.2.1 20190827 (Red Hat 9.2.1-1)
REM options -cpp -mtune=generic -march=x86-64 -g -O0 -fpre-include=/usr/include/finclude/math-vector-fortran.h
REM seed -448443553 663661192 -1337864794 1538790045 2046757583 276254710 1074906064 1687470688 -825285755 828142637 -972662507 119268197 -1263331728 470093656 -1304655095 -711602948 -1018203908 -417941286 463419899 -143082820 -1431893381 -143526055 -508302956 826717521 -1518031662 1726889008 1564213513 410670071 48888635 1545529315 -480834300 1295544998 1019531403
REM
CELL 1.54180   50.00000   50.00000   50.00000   90.00000   90.00000   90.00000
LATT -1
SFAC C  
C      1  0.5626580000000  0.4852920000000  0.4859940000000 1.0
C      1  0.3878730000000  0.5382680000000  0.5432390000000 1.0
C      1  0.4590740000000  0.4140410000000  0.5468730000000 1.0
C      1  0.5425490000000  0.5319830000000  0.4086850000000 1.0
C      1  0.5085490000000  0.5701600000000  0.5411160000000 1.0
C      1  0.4827050000000  0.5195600000000  0.4874180000000 1.0
C      1  0.4106910000000  0.4570080000000  0.4712750000000 1.0
C      1  0.4643480000000  0.5504150000000  0.5216080000000 1.0
C      1  0.5270170000000  0.4517080000000  0.6050150000000 1.0
C      1  0.4937060000000  0.5192260000000  0.4386270000000 1.0
C      1  0.4881930000000  0.4615620000000  0.4840130000000 1.0
C      1  0.4989700000000  0.4215360000000  0.4760020000000 1.0
C      1  0.5996460000000  0.4391070000000  0.5257640000000 1.0
C      1  0.6051560000000  0.4622460000000  0.5413470000000 1.0
C      1  0.4790440000000  0.5522280000000  0.5468090000000 1.0
C      1  0.5832830000000  0.4998750000000  0.5828880000000 1.0
C      1  0.5086910000000  0.5977030000000  0.5736480000000 1.0
C      1  0.5060650000000  0.5107590000000  0.4752850000000 1.0
C      1  0.5034280000000  0.4271810000000  0.5257180000000 1.0
C      1  0.4735230000000  0.4779530000000  0.5061970000000 1.0
C      1  0.5117860000000  0.4359260000000  0.4540410000000 1.0
C      1  0.5757150000000  0.4948210000000  0.5318440000000 1.0
C      1  0.4512130000000  0.5172340000000  0.4073920000000 1.0
C      1  0.5359650000000  0.5602590000000  0.5472820000000 1.0
C      1  0.5236920000000  0.5656180000000  0.4962220000000 1.0
C      1  0.5572350000000  0.5428560000000  0.4867770000000 1.0
C      1  0.4855770000000  0.5434180000000  0.6008130000000 1.0
C      1  0.5105670000000  0.5997260000000  0.5425430000000 1.0
C      1  0.4888110000000  0.4610200000000  0.4304770000000 1.0
C      1  0.4020920000000  0.4831320000000  0.4789250000000 1.0
C      1  0.4471510000000  0.3922410000000  0.5077820000000 1.0
C      1  0.4518730000000  0.4045750000000  0.4646730000000 1.0
C      1  0.4749640000000  0.5099290000000  0.5628380000000 1.0
C      1  0.5453810000000  0.5355520000000  0.5967100000000 1.0
C      1  0.4888090000000  0.4355770000000  0.5828220000000 1.0
C      1  0.4551410000000  0.4628490000000  0.5581160000000 1.0
C      1  0.4684570000000  0.5641570000000  0.5899490000000 1.0
C      1  0.5349070000000  0.4969530000000  0.5535340000000 1.0
C      1  0.4909850000000  0.5501090000000  0.4019760000000 1.0
C      1  0.5054630000000  0.3914470000000  0.4297540000000 1.0
C      1  0.5653140000000  0.5318170000000  0.5107590000000 1.0
C      1  0.4515610000000  0.6006280000000  0.5351550000000 1.0
C      1  0.5020540000000  0.5018120000000  0.3939510000000 1.0
C      1  0.4842390000000  0.4360070000000  0.5005210000000 1.0
C      1  0.5024260000000  0.4698790000000  0.5499050000000 1.0
C      1  0.4410140000000  0.4207810000000  0.4444530000000 1.0
C      1  0.5943390000000  0.5517740000000  0.4663060000000 1.0
C      1  0.4149590000000  0.5798830000000  0.5336950000000 1.0
C      1  0.4523890000000  0.4392120000000  0.4016600000000 1.0
C      1  0.4614400000000  0.4660300000000  0.3971910000000 1.0
C      1  0.4938930000000  0.5265340000000  0.5488750000000 1.0
C      1  0.4002480000000  0.5064020000000  0.4727830000000 1.0
C      1  0.5012380000000  0.5077300000000  0.3671740000000 1.0
C      1  0.4678420000000  0.4471700000000  0.6003470000000 1.0
C      1  0.3947760000000  0.5600800000000  0.5257050000000 1.0
C      1  0.5173550000000  0.4851590000000  0.5691760000000 1.0
C      1  0.5222790000000  0.5490450000000  0.5861450000000 1.0
C      1  0.4965800000000  0.4849400000000  0.5231960000000 1.0
C      1  0.5371470000000  0.4856610000000  0.4393320000000 1.0
C      1  0.6054920000000  0.5226920000000  0.5377820000000 1.0
C      1  0.3914970000000  0.5138270000000  0.5279070000000 1.0
C      1  0.3940820000000  0.5496770000000  0.4981500000000 1.0
C      1  0.5720990000000  0.5096170000000  0.5579470000000 1.0
C      1  0.5293750000000  0.5148790000000  0.4903690000000 1.0
C      1  0.4381500000000  0.4872390000000  0.5920730000000 1.0
C      1  0.5233180000000  0.5779870000000  0.5899380000000 1.0
C      1  0.3936870000000  0.5196280000000  0.4976390000000 1.0
C      1  0.5841670000000  0.5372870000000  0.4421660000000 1.0
C      1  0.5375910000000  0.4288760000000  0.5634790000000 1.0
C      1  0.5288690000000  0.4168460000000  0.4889430000000 1.0
C      1  0.4510470000000  0.4775060000000  0.4610770000000 1.0
C      1  0.5566880000000  0.5419800000000  0.4320790000000 1.0
C      1  0.4381640000000  0.5811470000000  0.5520990000000 1.0
C      1  0.4148240000000  0.5468330000000  0.4615370000000 1.0
C      1  0.5587310000000  0.4444390000000  0.4124820000000 1.0
C      1  0.5176130000000  0.4316870000000  0.5860070000000 1.0
C      1  0.6058600000000  0.4899020000000  0.5256710000000 1.0
C      1  0.5314140000000  0.5424430000000  0.4824550000000 1.0
C      1  0.5634920000000  0.5914940000000  0.5253710000000 1.0
C      1  0.5566890000000  0.4911640000000  0.4583100000000 1.0
C      1  0.5200180000000  0.4917510000000  0.5072290000000 1.0
C      1  0.4549420000000  0.5569900000000  0.4764820000000 1.0
C      1  0.4363370000000  0.4958680000000  0.5222390000000 1.0
C      1  0.6061800000000  0.4745440000000  0.4698510000000 1.0
C      1  0.4145830000000  0.4762800000000  0.5270600000000 1.0
C      1  0.4240800000000  0.4810390000000  0.4273270000000 1.0
C      1  0.4945020000000  0.4700040000000  0.4021900000000 1.0
C      1  0.5634300000000  0.4454230000000  0.5750380000000 1.0
C      1  0.5503940000000  0.4676050000000  0.3963090000000 1.0
C      1  0.4305360000000  0.5557950000000  0.4378290000000 1.0
C      1  0.5590630000000  0.4556750000000  0.4996150000000 1.0
C      1  0.5025500000000  0.3786600000000  0.4562430000000 1.0
C      1  0.4636230000000  0.6171200000000  0.4759600000000 1.0
C      1  0.5139010000000  0.4691990000000  0.4465560000000 1.0
C      1  0.5440130000000  0.4585050000000  0.5257990000000 1.0
C      1  0.4813600000000  0.3931280000000  0.4732660000000 1.0
C      1  0.5961680000000  0.5435920000000  0.5176330000000 1.0
C      1  0.5003010000000  0.4952460000000  0.4534080000000 1.0
C      1  0.5499920000000  0.5774530000000  0.4556380000000 1.0
C      1  0.6170220000000  0.5127680000000  0.4827550000000 1.0
C      1  0.4787740000000  0.4698930000000  0.6149340000000 1.0
C      1  0.4775670000000  0.4310450000000  0.4134720000000 1.0
C      1  0.4175210000000  0.4214060000000  0.5317100000000 1.0
C      1  0.4856430000000  0.4066520000000  0.4177510000000 1.0
C      1  0.5129020000000  0.4962550000000  0.5963490000000 1.0
C      1  0.4043980000000  0.5687310000000  0.4782600000000 1.0
C      1  0.4626690000000  0.4935530000000  0.6058910000000 1.0
C      1  0.5575000000000  0.5678000000000  0.5689690000000 1.0
C      1  0.5639040000000  0.4226770000000  0.4545450000000 1.0
C      1  0.5075390000000  0.4718830000000  0.6135770000000 1.0
C      1  0.4270860000000  0.5040500000000  0.5677980000000 1.0
C      1  0.4002720000000  0.5419070000000  0.5712760000000 1.0
C      1  0.4031350000000  0.4943180000000  0.5464270000000 1.0
C      1  0.4514860000000  0.4956890000000  0.5497620000000 1.0
C      1  0.5863560000000  0.5740110000000  0.5285650000000 1.0
C      1  0.5407530000000  0.5079230000000  0.6029160000000 1.0
C      1  0.4819610000000  0.4555160000000  0.5630690000000 1.0
C      1  0.5493840000000  0.4037660000000  0.4699110000000 1.0
C      1  0.4954750000000  0.3872430000000  0.5217860000000 1.0
C      1  0.5104680000000  0.6044550000000  0.4548300000000 1.0
C      1  0.6107080000000  0.4881670000000  0.4961980000000 1.0
C      1  0.4679070000000  0.6265260000000  0.5043540000000 1.0
C      1  0.4448520000000  0.4596890000000  0.5872140000000 1.0
C      1  0.3893230000000  0.4412190000000  0.4503240000000 1.0
C      1  0.4849260000000  0.5662650000000  0.4313680000000 1.0
C      1  0.4638370000000  0.4999780000000  0.4907120000000 1.0
C      1  0.4187080000000  0.5076570000000  0.4421890000000 1.0
C      1  0.5750290000000  0.4432340000000  0.4383410000000 1.0
C      1  0.4322450000000  0.4612170000000  0.4483760000000 1.0
C      1  0.4358630000000  0.4104660000000  0.4881860000000 1.0
C      1  0.4284720000000  0.5345950000000  0.5714910000000 1.0
C      1  0.4505990000000  0.5572230000000  0.5663810000000 1.0
C      1  0.4794220000000  0.6082710000000  0.5260330000000 1.0
C      1  0.5419640000000  0.5370080000000  0.5321580000000 1.0
C      1  0.5821360000000  0.5721250000000  0.5559240000000 1.0
C      1  0.5215390000000  0.4038970000000  0.5190270000000 1.0
C      1  0.4228900000000  0.5911300000000  0.4831350000000 1.0
C      1  0.5314010000000  0.3804810000000  0.4615410000000 1.0
C      1  0.5338700000000  0.5039510000000  0.4124570000000 1.0
C      1  0.5541080000000  0.4608790000000  0.5975600000000 1.0
C      1  0.4866560000000  0.4064210000000  0.5412810000000 1.0
C      1  0.4361650000000  0.3999140000000  0.5346060000000 1.0
C      1  0.4828950000000  0.5904650000000  0.5858930000000 1.0
C      1  0.5957880000000  0.5117020000000  0.4380230000000 1.0
C      1  0.4119010000000  0.4455040000000  0.5190760000000 1.0
C      1  0.5321380000000  0.4322070000000  0.4087570000000 1.0
C      1  0.5854640000000  0.4541590000000  0.5606460000000 1.0
C      1  0.4357800000000  0.5360780000000  0.4816840000000 1.0
C      1  0.5211630000000  0.5523270000000  0.3996700000000 1.0
C      1  0.5601260000000  0.4934520000000  0.4051680000000 1.0
C      1  0.5212110000000  0.4184480000000  0.4336680000000 1.0
C      1  0.4583280000000  0.5723020000000  0.5025190000000 1.0
C      1  0.4310270000000  0.5934980000000  0.5123380000000 1.0
C      1  0.4302410000000  0.4261710000000  0.4183970000000 1.0
C      1  0.6068350000000  0.5394720000000  0.4893990000000 1.0
C      1  0.4749980000000  0.3845500000000  0.5014540000000 1.0
C      1  0.5213980000000  0.5180160000000  0.5391890000000 1.0
C      1  0.4403210000000  0.5119740000000  0.4980960000000 1.0
C      1  0.5197120000000  0.5779630000000  0.4111450000000 1.0
C      1  0.5661860000000  0.4169790000000  0.5272000000000 1.0
C      1  0.4282880000000  0.4395040000000  0.4947900000000 1.0
C      1  0.4050600000000  0.4324110000000  0.4299090000000 1.0
C      1  0.5795070000000  0.4316860000000  0.5077570000000 1.0
C      1  0.5675040000000  0.5038550000000  0.5057220000000 1.0
C      1  0.5367710000000  0.6021310000000  0.5245130000000 1.0
C      1  0.5904720000000  0.4671950000000  0.4464820000000 1.0
C      1  0.4787000000000  0.5254310000000  0.3951720000000 1.0
C      1  0.5334040000000  0.5931560000000  0.4963960000000 1.0
C      1  0.5696450000000  0.5452910000000  0.5832870000000 1.0
C      1  0.4444950000000  0.5966690000000  0.4646400000000 1.0
C      1  0.5345650000000  0.4460750000000  0.4873080000000 1.0
C      1  0.5524260000000  0.4797370000000  0.5402680000000 1.0
C      1  0.4545790000000  0.5713340000000  0.4496860000000 1.0
C      1  0.4536560000000  0.4415910000000  0.5381920000000 1.0
C      1  0.4728050000000  0.4619390000000  0.4554860000000 1.0
C      1  0.5700010000000  0.5659860000000  0.4737380000000 1.0
C      1  0.5363120000000  0.6002290000000  0.4673700000000 1.0
C      1  0.5331880000000  0.5526200000000  0.4487600000000 1.0
C      1  0.5435270000000  0.4089040000000  0.5406230000000 1.0
C      1  0.4845230000000  0.5878860000000  0.5010270000000 1.0
C      1  0.5168720000000  0.4676840000000  0.4892980000000 1.0
C      1  0.4900510000000  0.6042850000000  0.4755450000000 1.0
C      1  0.4429240000000  0.4860240000000  0.4060660000000 1.0
C      1  0.5218400000000  0.4459890000000  0.5397850000000 1.0
C      1  0.5113780000000  0.5558790000000  0.6077600000000 1.0
C      1  0.4473040000000  0.5035870000000  0.4518950000000 1.0
C      1  0.5034370000000  0.5465130000000  0.4434420000000 1.0
C      1  0.4655440000000  0.5155580000000  0.4340490000000 1.0
C      1  0.5901020000000  0.5260790000000  0.5698720000000 1.0
C      1  0.6127370000000  0.4992400000000  0.4573020000000 1.0
C      1  0.5013100000000  0.5638580000000  0.5092390000000 1.0
C      1  0.5028210000000  0.5907930000000  0.4292120000000 1.0
C      1  0.5775400000000  0.4904040000000  0.4317990000000 1.0
C      1  0.4273780000000  0.5309000000000  0.4249430000000 1.0
C      1  0.4854400000000  0.5388690000000  0.5065270000000 1.0
C      1  0.4817670000000  0.5131670000000  0.5922320000000 1.0
C      1  0.4575940000000  0.4475260000000  0.5096360000000 1.0
C      1  0.5623660000000  0.4893340000000  0.6000640000000 1.0
C      1  0.5213570000000  0.4567770000000  0.3970010000000 1.0
END
