TITL C-4164246-3563-155 26.3271424546822 125000 -28437.3588449028 0 0 189 (C1) n - 1
REM
REM in /home/nfs/bkarasulu/CARBON/AIRSS/Generating-Clusters/ReaxFF-fromJPCA2015/Units_Real/with-SteepDescent/Only-C1/SD-CG/Try1-3A/FIRE-CG
REM
REM
REM
REM
REM
REM ./C.cell (11c1c37f851c82e70ff6c80c92926a4b)
REM
REM compiler GCC version 9.2.1 20190827 (Red Hat 9.2.1-1)
REM options -cpp -mtune=generic -march=x86-64 -g -O0 -fpre-include=/usr/include/finclude/math-vector-fortran.h
REM seed 1256543598 -1958549519 630439725 -1637360026 1433353085 -2034942574 1961529617 -1505784446 1227061283 1478327038 110751870 1165823548 207493574 1567239759 657222786 1195417089 -709677464 842962431 662650842 1407131490 -1506152312 -793903384 1255083776 -1186733071 -309838331 1858607400 1270903083 -1788971130 -1037390086 -418228068 -107011466 -1421872628 -898551421
REM
CELL 1.54180   50.00000   50.00000   50.00000   90.00000   90.00000   90.00000
LATT -1
SFAC C  
C      1  0.4519320000000  0.4469420000000  0.5151100000000 1.0
C      1  0.4921560000000  0.5223170000000  0.4065910000000 1.0
C      1  0.4219960000000  0.4984940000000  0.3991210000000 1.0
C      1  0.4307630000000  0.4696500000000  0.4010070000000 1.0
C      1  0.4197910000000  0.4679390000000  0.4763330000000 1.0
C      1  0.3951570000000  0.5428570000000  0.4610500000000 1.0
C      1  0.5295990000000  0.4025310000000  0.4353900000000 1.0
C      1  0.3980730000000  0.4977750000000  0.4422140000000 1.0
C      1  0.4664460000000  0.5190790000000  0.3990510000000 1.0
C      1  0.5205170000000  0.4428430000000  0.4155230000000 1.0
C      1  0.4835980000000  0.4705660000000  0.4469270000000 1.0
C      1  0.4768860000000  0.4185410000000  0.4353170000000 1.0
C      1  0.5912220000000  0.5248600000000  0.4455790000000 1.0
C      1  0.4028610000000  0.5345120000000  0.5093030000000 1.0
C      1  0.6060260000000  0.4674680000000  0.5156290000000 1.0
C      1  0.4246850000000  0.4256940000000  0.5444400000000 1.0
C      1  0.4499520000000  0.5864530000000  0.5388110000000 1.0
C      1  0.4983260000000  0.5369510000000  0.5953670000000 1.0
C      1  0.5122220000000  0.3955730000000  0.5169640000000 1.0
C      1  0.5726520000000  0.4873520000000  0.5717700000000 1.0
C      1  0.4372490000000  0.4508980000000  0.5442150000000 1.0
C      1  0.4672600000000  0.4875310000000  0.5609660000000 1.0
C      1  0.4704550000000  0.5746970000000  0.4915810000000 1.0
C      1  0.5355480000000  0.5825480000000  0.5203810000000 1.0
C      1  0.5516240000000  0.5010370000000  0.6108460000000 1.0
C      1  0.3743750000000  0.4869350000000  0.5042380000000 1.0
C      1  0.5843720000000  0.4847650000000  0.4714900000000 1.0
C      1  0.4479540000000  0.5736000000000  0.5663080000000 1.0
C      1  0.5390960000000  0.5473330000000  0.3996440000000 1.0
C      1  0.4495580000000  0.4487330000000  0.5987560000000 1.0
C      1  0.4734450000000  0.6026840000000  0.4894430000000 1.0
C      1  0.5669470000000  0.5352770000000  0.5709780000000 1.0
C      1  0.4531940000000  0.4920610000000  0.5338350000000 1.0
C      1  0.5245530000000  0.4160120000000  0.5364030000000 1.0
C      1  0.5848690000000  0.5385320000000  0.5490740000000 1.0
C      1  0.4596140000000  0.4425620000000  0.5685290000000 1.0
C      1  0.4147420000000  0.5065490000000  0.5528150000000 1.0
C      1  0.3713410000000  0.5075480000000  0.4846570000000 1.0
C      1  0.5284060000000  0.4629160000000  0.3963190000000 1.0
C      1  0.5123000000000  0.5052510000000  0.4781150000000 1.0
C      1  0.4065710000000  0.5657900000000  0.4634180000000 1.0
C      1  0.5992210000000  0.5189810000000  0.5328970000000 1.0
C      1  0.5256090000000  0.4233990000000  0.4758570000000 1.0
C      1  0.4417270000000  0.5089720000000  0.4459670000000 1.0
C      1  0.5550880000000  0.4732950000000  0.3956650000000 1.0
C      1  0.3875490000000  0.4632290000000  0.4995520000000 1.0
C      1  0.4808920000000  0.4482730000000  0.5145600000000 1.0
C      1  0.4092620000000  0.5531780000000  0.5306450000000 1.0
C      1  0.4857410000000  0.6182210000000  0.5117900000000 1.0
C      1  0.5004100000000  0.4628320000000  0.5310690000000 1.0
C      1  0.4049140000000  0.4465250000000  0.4868290000000 1.0
C      1  0.5428790000000  0.4819740000000  0.5620630000000 1.0
C      1  0.5276360000000  0.3967270000000  0.4652020000000 1.0
C      1  0.4236360000000  0.5788180000000  0.5237280000000 1.0
C      1  0.5754580000000  0.4629870000000  0.4131500000000 1.0
C      1  0.5880550000000  0.5349930000000  0.4173080000000 1.0
C      1  0.5334220000000  0.5103370000000  0.4992740000000 1.0
C      1  0.4743570000000  0.6076270000000  0.5363950000000 1.0
C      1  0.4387130000000  0.4333330000000  0.4380150000000 1.0
C      1  0.4936400000000  0.5609160000000  0.5615230000000 1.0
C      1  0.4279690000000  0.4660440000000  0.6007230000000 1.0
C      1  0.5143970000000  0.5278540000000  0.4581410000000 1.0
C      1  0.4909910000000  0.5145380000000  0.5256480000000 1.0
C      1  0.5059580000000  0.4783450000000  0.3892700000000 1.0
C      1  0.5550670000000  0.5829570000000  0.4694060000000 1.0
C      1  0.5595410000000  0.4283890000000  0.5591920000000 1.0
C      1  0.5387700000000  0.3879510000000  0.5077720000000 1.0
C      1  0.4973170000000  0.5325930000000  0.4348270000000 1.0
C      1  0.5931670000000  0.5260220000000  0.5050810000000 1.0
C      1  0.5170330000000  0.4382250000000  0.6039410000000 1.0
C      1  0.5374860000000  0.4107830000000  0.5648950000000 1.0
C      1  0.4831020000000  0.3959060000000  0.5118850000000 1.0
C      1  0.4928430000000  0.4455130000000  0.4875960000000 1.0
C      1  0.4699710000000  0.5683810000000  0.4192900000000 1.0
C      1  0.4111350000000  0.4725150000000  0.4488660000000 1.0
C      1  0.5581950000000  0.5017120000000  0.3908480000000 1.0
C      1  0.3805940000000  0.5157910000000  0.5088020000000 1.0
C      1  0.5740730000000  0.4239940000000  0.5349810000000 1.0
C      1  0.5482320000000  0.3810640000000  0.4805660000000 1.0
C      1  0.5101710000000  0.5062110000000  0.3915040000000 1.0
C      1  0.4570330000000  0.4661290000000  0.3981190000000 1.0
C      1  0.5147210000000  0.5492230000000  0.4774280000000 1.0
C      1  0.4722730000000  0.4573020000000  0.4710330000000 1.0
C      1  0.4789290000000  0.5527000000000  0.4417190000000 1.0
C      1  0.5443370000000  0.5566460000000  0.5301220000000 1.0
C      1  0.5066640000000  0.4905890000000  0.5342360000000 1.0
C      1  0.5732270000000  0.5316720000000  0.4678440000000 1.0
C      1  0.4455300000000  0.5870660000000  0.4232710000000 1.0
C      1  0.5525270000000  0.4091170000000  0.5224440000000 1.0
C      1  0.5023830000000  0.4995310000000  0.6297720000000 1.0
C      1  0.4236880000000  0.5839700000000  0.4965790000000 1.0
C      1  0.5273360000000  0.5382770000000  0.5073540000000 1.0
C      1  0.5957720000000  0.4966590000000  0.4460370000000 1.0
C      1  0.5289580000000  0.5109760000000  0.6263780000000 1.0
C      1  0.5343380000000  0.4985040000000  0.5385330000000 1.0
C      1  0.5204240000000  0.5721400000000  0.4025100000000 1.0
C      1  0.5457190000000  0.4718220000000  0.6069860000000 1.0
C      1  0.4915130000000  0.4454880000000  0.4240320000000 1.0
C      1  0.5160820000000  0.4619650000000  0.4838100000000 1.0
C      1  0.5503950000000  0.4942110000000  0.5153120000000 1.0
C      1  0.4235680000000  0.5877340000000  0.4692190000000 1.0
C      1  0.4664160000000  0.4043230000000  0.4894310000000 1.0
C      1  0.4963670000000  0.4110640000000  0.5738650000000 1.0
C      1  0.5839490000000  0.5093730000000  0.4024230000000 1.0
C      1  0.5824780000000  0.4542370000000  0.5289330000000 1.0
C      1  0.5917950000000  0.4862870000000  0.4190150000000 1.0
C      1  0.5130370000000  0.4807110000000  0.4624260000000 1.0
C      1  0.4834540000000  0.4609490000000  0.3981880000000 1.0
C      1  0.4487120000000  0.5949540000000  0.4511780000000 1.0
C      1  0.6023670000000  0.4422530000000  0.4715480000000 1.0
C      1  0.4615850000000  0.5058350000000  0.5832350000000 1.0
C      1  0.4810380000000  0.5069100000000  0.4939150000000 1.0
C      1  0.4659050000000  0.3995350000000  0.5361400000000 1.0
C      1  0.5400870000000  0.5826730000000  0.5746690000000 1.0
C      1  0.4637610000000  0.4663020000000  0.6150660000000 1.0
C      1  0.5149700000000  0.5447050000000  0.5733730000000 1.0
C      1  0.5758070000000  0.5092170000000  0.4875750000000 1.0
C      1  0.4617540000000  0.5197360000000  0.5348920000000 1.0
C      1  0.5035880000000  0.5930510000000  0.4502700000000 1.0
C      1  0.5050300000000  0.5380620000000  0.5233810000000 1.0
C      1  0.5754810000000  0.5621640000000  0.5304170000000 1.0
C      1  0.4620860000000  0.4898930000000  0.4457390000000 1.0
C      1  0.5525180000000  0.6066670000000  0.5249050000000 1.0
C      1  0.4158660000000  0.5356830000000  0.5537440000000 1.0
C      1  0.5852620000000  0.5541670000000  0.5023270000000 1.0
C      1  0.4179030000000  0.4788170000000  0.5530170000000 1.0
C      1  0.5351900000000  0.5187380000000  0.3904140000000 1.0
C      1  0.5562330000000  0.4662520000000  0.5199650000000 1.0
C      1  0.4413450000000  0.5262440000000  0.4710160000000 1.0
C      1  0.5579490000000  0.6103110000000  0.4787640000000 1.0
C      1  0.5372910000000  0.4480860000000  0.6199340000000 1.0
C      1  0.5592910000000  0.4639690000000  0.4583110000000 1.0
C      1  0.6066740000000  0.4901840000000  0.5348450000000 1.0
C      1  0.5926900000000  0.4288830000000  0.4497790000000 1.0
C      1  0.4818310000000  0.5546400000000  0.4733110000000 1.0
C      1  0.4419570000000  0.4175200000000  0.5027580000000 1.0
C      1  0.4298520000000  0.5298360000000  0.4977150000000 1.0
C      1  0.4351870000000  0.5471310000000  0.5726680000000 1.0
C      1  0.4500420000000  0.5381970000000  0.5172160000000 1.0
C      1  0.4892050000000  0.4771590000000  0.6163010000000 1.0
C      1  0.5208550000000  0.5993340000000  0.5629780000000 1.0
C      1  0.5612900000000  0.5971520000000  0.5635460000000 1.0
C      1  0.4194590000000  0.4222120000000  0.4850740000000 1.0
C      1  0.4181980000000  0.5105880000000  0.4254300000000 1.0
C      1  0.4662720000000  0.5648570000000  0.5190670000000 1.0
C      1  0.4626180000000  0.4091870000000  0.4611280000000 1.0
C      1  0.5430510000000  0.6233110000000  0.5019420000000 1.0
C      1  0.5914310000000  0.4756680000000  0.5541100000000 1.0
C      1  0.5179100000000  0.5895970000000  0.4982290000000 1.0
C      1  0.5112920000000  0.5919320000000  0.4223010000000 1.0
C      1  0.5724960000000  0.5601440000000  0.4774550000000 1.0
C      1  0.5401990000000  0.4817860000000  0.4462130000000 1.0
C      1  0.5681950000000  0.4421940000000  0.4333310000000 1.0
C      1  0.4438530000000  0.5153370000000  0.3939400000000 1.0
C      1  0.4914530000000  0.5592950000000  0.5329680000000 1.0
C      1  0.5727280000000  0.3914660000000  0.4726900000000 1.0
C      1  0.5015070000000  0.4056700000000  0.4337040000000 1.0
C      1  0.4156840000000  0.4775610000000  0.5806140000000 1.0
C      1  0.5268860000000  0.4793650000000  0.5857740000000 1.0
C      1  0.3846000000000  0.5167010000000  0.4605440000000 1.0
C      1  0.5901780000000  0.4051290000000  0.4650360000000 1.0
C      1  0.5062970000000  0.5255590000000  0.6205070000000 1.0
C      1  0.5233400000000  0.5784620000000  0.4695000000000 1.0
C      1  0.4246260000000  0.4554710000000  0.4281860000000 1.0
C      1  0.5232590000000  0.4458910000000  0.5328470000000 1.0
C      1  0.5422120000000  0.4274290000000  0.4262090000000 1.0
C      1  0.5458160000000  0.4553660000000  0.5453830000000 1.0
C      1  0.4684740000000  0.5292090000000  0.4798970000000 1.0
C      1  0.4454990000000  0.5280600000000  0.5902950000000 1.0
C      1  0.4740320000000  0.5775450000000  0.5789300000000 1.0
C      1  0.4337280000000  0.4166680000000  0.4600010000000 1.0
C      1  0.5420700000000  0.5524940000000  0.5640610000000 1.0
C      1  0.4724010000000  0.4135280000000  0.5615040000000 1.0
C      1  0.4982660000000  0.6057800000000  0.5497660000000 1.0
C      1  0.6048050000000  0.4657590000000  0.4862090000000 1.0
C      1  0.5197460000000  0.4123990000000  0.5882770000000 1.0
C      1  0.4607510000000  0.4888240000000  0.5057950000000 1.0
C      1  0.5399350000000  0.4468930000000  0.4782150000000 1.0
C      1  0.4771420000000  0.6014850000000  0.4602750000000 1.0
C      1  0.5744640000000  0.5929830000000  0.5390860000000 1.0
C      1  0.4491700000000  0.4667440000000  0.4888440000000 1.0
C      1  0.4924970000000  0.5784100000000  0.4030640000000 1.0
C      1  0.5679650000000  0.5111850000000  0.5880410000000 1.0
C      1  0.5137740000000  0.6182020000000  0.5009080000000 1.0
C      1  0.5639470000000  0.5453640000000  0.4091120000000 1.0
C      1  0.4709020000000  0.5328070000000  0.5849930000000 1.0
C      1  0.4376610000000  0.4046560000000  0.5310780000000 1.0
C      1  0.5028800000000  0.4638500000000  0.5903800000000 1.0
C      1  0.4802670000000  0.4629960000000  0.5689220000000 1.0
END
