TITL C-4164239-2837-453 5.98917414726884 125000 -15765.7429934883 0 0 107 (C1) n - 1
REM
REM in /home/nfs/bkarasulu/CARBON/AIRSS/Generating-Clusters/ReaxFF-fromJPCA2015/Units_Real/with-SteepDescent/Only-C1/SD-CG/Try1-3A/FIRE-CG
REM
REM
REM
REM
REM
REM ./C.cell (11c1c37f851c82e70ff6c80c92926a4b)
REM
REM compiler GCC version 9.2.1 20190827 (Red Hat 9.2.1-1)
REM options -cpp -mtune=generic -march=x86-64 -g -O0 -fpre-include=/usr/include/finclude/math-vector-fortran.h
REM seed -268171251 992880045 -1257487972 1084380207 -2111672450 355727514 2087870308 -8906962 469321002 232496564 -807206145 -1735554509 348593726 -1867964225 -365695755 -1813087722 -1071214226 701196798 -78283248 2047208537 -590327893 378238209 -543451239 623926571 -1034404026 1144498665 1817189226 123191188 -2026995321 -888615687 889635568 496313282 -883492901
REM
CELL 1.54180   50.00000   50.00000   50.00000   90.00000   90.00000   90.00000
LATT -1
SFAC C  
C      1  0.4571780000000  0.4570710000000  0.4352570000000 1.0
C      1  0.4282790000000  0.5433480000000  0.4959160000000 1.0
C      1  0.5564810000000  0.5743380000000  0.5527920000000 1.0
C      1  0.4831160000000  0.5256090000000  0.4922710000000 1.0
C      1  0.5140700000000  0.4620970000000  0.5721870000000 1.0
C      1  0.4175450000000  0.4831220000000  0.5386690000000 1.0
C      1  0.4753890000000  0.5202530000000  0.5198680000000 1.0
C      1  0.5303060000000  0.4845350000000  0.4431570000000 1.0
C      1  0.4963380000000  0.5238330000000  0.4437550000000 1.0
C      1  0.4723270000000  0.5988970000000  0.5142420000000 1.0
C      1  0.5118790000000  0.5405720000000  0.5894550000000 1.0
C      1  0.4257920000000  0.4732420000000  0.5652370000000 1.0
C      1  0.4634500000000  0.4142920000000  0.4605410000000 1.0
C      1  0.5635710000000  0.5550320000000  0.4237700000000 1.0
C      1  0.5301100000000  0.5306900000000  0.4881570000000 1.0
C      1  0.4897470000000  0.5667450000000  0.4708600000000 1.0
C      1  0.4980880000000  0.4291250000000  0.4286710000000 1.0
C      1  0.4999910000000  0.6042900000000  0.5220590000000 1.0
C      1  0.4550880000000  0.5798440000000  0.5007300000000 1.0
C      1  0.4526520000000  0.5117780000000  0.5818280000000 1.0
C      1  0.4529320000000  0.5098950000000  0.4332420000000 1.0
C      1  0.5391580000000  0.4094330000000  0.4657780000000 1.0
C      1  0.4825180000000  0.5904070000000  0.5412420000000 1.0
C      1  0.5828450000000  0.5294860000000  0.5326650000000 1.0
C      1  0.5765160000000  0.4915600000000  0.4960240000000 1.0
C      1  0.5708580000000  0.4896120000000  0.4276050000000 1.0
C      1  0.5178820000000  0.4758400000000  0.3965550000000 1.0
C      1  0.5112440000000  0.5490030000000  0.4327100000000 1.0
C      1  0.5496040000000  0.5950660000000  0.5330910000000 1.0
C      1  0.4413680000000  0.4534110000000  0.5551920000000 1.0
C      1  0.5301010000000  0.4178320000000  0.5201140000000 1.0
C      1  0.5545370000000  0.4289320000000  0.5135230000000 1.0
C      1  0.5508480000000  0.4554880000000  0.5329920000000 1.0
C      1  0.4895750000000  0.4127920000000  0.4490610000000 1.0
C      1  0.4780670000000  0.4195150000000  0.5371380000000 1.0
C      1  0.4924880000000  0.4824220000000  0.5719650000000 1.0
C      1  0.5275490000000  0.5387870000000  0.5358750000000 1.0
C      1  0.5060900000000  0.5745360000000  0.4479640000000 1.0
C      1  0.5784200000000  0.5540060000000  0.5484400000000 1.0
C      1  0.4671960000000  0.4012630000000  0.4877960000000 1.0
C      1  0.4824270000000  0.5638980000000  0.5525650000000 1.0
C      1  0.5040580000000  0.5074220000000  0.5674240000000 1.0
C      1  0.5162250000000  0.4875930000000  0.4729810000000 1.0
C      1  0.5197040000000  0.5136400000000  0.5919540000000 1.0
C      1  0.5432780000000  0.5440490000000  0.5117090000000 1.0
C      1  0.5021470000000  0.4769150000000  0.4243020000000 1.0
C      1  0.5476580000000  0.5063860000000  0.5566980000000 1.0
C      1  0.5312310000000  0.5580280000000  0.5570010000000 1.0
C      1  0.4923820000000  0.3877910000000  0.4897770000000 1.0
C      1  0.5897470000000  0.5041620000000  0.4791620000000 1.0
C      1  0.4600130000000  0.5681680000000  0.4746900000000 1.0
C      1  0.4844310000000  0.4525220000000  0.4264060000000 1.0
C      1  0.5022820000000  0.4629520000000  0.4779400000000 1.0
C      1  0.4964470000000  0.4941730000000  0.4010260000000 1.0
C      1  0.4396860000000  0.4518460000000  0.4803540000000 1.0
C      1  0.5445920000000  0.4280770000000  0.4456760000000 1.0
C      1  0.5288000000000  0.4972650000000  0.4994490000000 1.0
C      1  0.5509610000000  0.4642170000000  0.4336280000000 1.0
C      1  0.4640120000000  0.4203960000000  0.5114890000000 1.0
C      1  0.4329690000000  0.4791320000000  0.5153460000000 1.0
C      1  0.5048500000000  0.5619110000000  0.5720230000000 1.0
C      1  0.4822840000000  0.5175400000000  0.4169260000000 1.0
C      1  0.5526830000000  0.4227850000000  0.4861990000000 1.0
C      1  0.4595290000000  0.4357390000000  0.5498610000000 1.0
C      1  0.4935810000000  0.5450390000000  0.4077290000000 1.0
C      1  0.4176270000000  0.5604060000000  0.5390920000000 1.0
C      1  0.5350430000000  0.6013960000000  0.4847080000000 1.0
C      1  0.4685190000000  0.4879440000000  0.5867840000000 1.0
C      1  0.4389700000000  0.5187760000000  0.4574220000000 1.0
C      1  0.4408140000000  0.4868620000000  0.5851980000000 1.0
C      1  0.4229740000000  0.5028200000000  0.4768870000000 1.0
C      1  0.5724150000000  0.5422070000000  0.5078710000000 1.0
C      1  0.4188730000000  0.5324910000000  0.5486200000000 1.0
C      1  0.5284760000000  0.6017430000000  0.5133410000000 1.0
C      1  0.4647130000000  0.5420090000000  0.5396390000000 1.0
C      1  0.5274450000000  0.4310470000000  0.4227400000000 1.0
C      1  0.4475160000000  0.4378720000000  0.4561690000000 1.0
C      1  0.5621460000000  0.4577880000000  0.5603550000000 1.0
C      1  0.4803850000000  0.4919050000000  0.5227930000000 1.0
C      1  0.5073460000000  0.4111430000000  0.4724920000000 1.0
C      1  0.4596110000000  0.4718950000000  0.5188830000000 1.0
C      1  0.5219320000000  0.4471280000000  0.5486660000000 1.0
C      1  0.5087490000000  0.4844130000000  0.5170540000000 1.0
C      1  0.4463450000000  0.5294870000000  0.5598070000000 1.0
C      1  0.5032800000000  0.4572200000000  0.5053360000000 1.0
C      1  0.4937660000000  0.5099680000000  0.4688390000000 1.0
C      1  0.5205430000000  0.5109330000000  0.5446020000000 1.0
C      1  0.5416140000000  0.4697670000000  0.5800060000000 1.0
C      1  0.4116630000000  0.5102800000000  0.5291940000000 1.0
C      1  0.4572760000000  0.4473510000000  0.5032750000000 1.0
C      1  0.5443200000000  0.4986680000000  0.5845060000000 1.0
C      1  0.5681660000000  0.5035550000000  0.5364380000000 1.0
C      1  0.4515170000000  0.4846160000000  0.4365590000000 1.0
C      1  0.5274050000000  0.5930900000000  0.4574220000000 1.0
C      1  0.5025490000000  0.5466940000000  0.4874200000000 1.0
C      1  0.4154460000000  0.5180660000000  0.5008150000000 1.0
C      1  0.4413840000000  0.5456890000000  0.4705300000000 1.0
C      1  0.5789120000000  0.5310940000000  0.4803180000000 1.0
C      1  0.5091540000000  0.4231960000000  0.5382860000000 1.0
C      1  0.4411950000000  0.5592070000000  0.5187190000000 1.0
C      1  0.4257780000000  0.4762980000000  0.4875590000000 1.0
C      1  0.5525380000000  0.5387130000000  0.4701930000000 1.0
C      1  0.5561140000000  0.4854700000000  0.5151140000000 1.0
C      1  0.5359980000000  0.4564080000000  0.4090590000000 1.0
C      1  0.5462960000000  0.5400860000000  0.4384300000000 1.0
C      1  0.5093480000000  0.4384130000000  0.4848180000000 1.0
C      1  0.5486690000000  0.5062450000000  0.4333250000000 1.0
END
