TITL C-4164247-2821-352 6.01869301834156 125000 -25550.808076053 0 0 168 (C1) n - 1
REM
REM in /home/nfs/bkarasulu/CARBON/AIRSS/Generating-Clusters/ReaxFF-fromJPCA2015/Units_Real/with-SteepDescent/Only-C1/SD-CG/Try1-3A/FIRE-CG
REM
REM
REM
REM
REM
REM ./C.cell (11c1c37f851c82e70ff6c80c92926a4b)
REM
REM compiler GCC version 9.2.1 20190827 (Red Hat 9.2.1-1)
REM options -cpp -mtune=generic -march=x86-64 -g -O0 -fpre-include=/usr/include/finclude/math-vector-fortran.h
REM seed -1440638342 826511253 1208599406 1635114174 1824106360 1794940132 -443815873 274702046 -869322994 1568576285 797661519 1704665102 1638097211 1648375812 -1881549807 1683453853 -278096441 -1804407126 -618309311 -313078572 1085412111 -851710752 -1977399344 -442679743 1048601322 -381253336 429500497 939519013 1980151936 -306998952 -324752757 1367538435 291181886
REM
CELL 1.54180   50.00000   50.00000   50.00000   90.00000   90.00000   90.00000
LATT -1
SFAC C  
C      1  0.4809760000000  0.4520860000000  0.4731710000000 1.0
C      1  0.4519990000000  0.5812990000000  0.4810400000000 1.0
C      1  0.5405140000000  0.5041130000000  0.3893810000000 1.0
C      1  0.6055760000000  0.5472100000000  0.5448250000000 1.0
C      1  0.4760760000000  0.5947720000000  0.4845580000000 1.0
C      1  0.5331660000000  0.4339130000000  0.4168160000000 1.0
C      1  0.5726980000000  0.4448530000000  0.4628010000000 1.0
C      1  0.4456050000000  0.5367020000000  0.4925970000000 1.0
C      1  0.4550260000000  0.5387000000000  0.4677940000000 1.0
C      1  0.5504310000000  0.4147670000000  0.4296110000000 1.0
C      1  0.4463800000000  0.4851970000000  0.4965310000000 1.0
C      1  0.4018510000000  0.5030250000000  0.4364380000000 1.0
C      1  0.4123040000000  0.4444530000000  0.5244200000000 1.0
C      1  0.5541260000000  0.5069580000000  0.5813790000000 1.0
C      1  0.5266470000000  0.4711660000000  0.5468840000000 1.0
C      1  0.5668970000000  0.4169380000000  0.4554710000000 1.0
C      1  0.4315230000000  0.5134400000000  0.5319650000000 1.0
C      1  0.5389060000000  0.5207680000000  0.4815960000000 1.0
C      1  0.5706510000000  0.5306530000000  0.4206130000000 1.0
C      1  0.5262960000000  0.4779550000000  0.3892610000000 1.0
C      1  0.5778720000000  0.5028000000000  0.5650430000000 1.0
C      1  0.4096110000000  0.4514390000000  0.4453940000000 1.0
C      1  0.5393180000000  0.5869680000000  0.4342740000000 1.0
C      1  0.5159760000000  0.5049540000000  0.6100180000000 1.0
C      1  0.4075820000000  0.4596820000000  0.4746020000000 1.0
C      1  0.4187160000000  0.5424420000000  0.5658230000000 1.0
C      1  0.3932390000000  0.5424430000000  0.5038520000000 1.0
C      1  0.5214180000000  0.4549740000000  0.4752540000000 1.0
C      1  0.5862510000000  0.5702230000000  0.5544270000000 1.0
C      1  0.5439820000000  0.4589220000000  0.4018890000000 1.0
C      1  0.4972610000000  0.4738350000000  0.3937130000000 1.0
C      1  0.4332930000000  0.4352940000000  0.4449580000000 1.0
C      1  0.5754510000000  0.4600630000000  0.5928660000000 1.0
C      1  0.5011670000000  0.5388760000000  0.3987070000000 1.0
C      1  0.4206680000000  0.5619800000000  0.5444720000000 1.0
C      1  0.5584700000000  0.5703200000000  0.5598330000000 1.0
C      1  0.5816640000000  0.4529180000000  0.5250800000000 1.0
C      1  0.4393350000000  0.5646880000000  0.5028950000000 1.0
C      1  0.6059910000000  0.4795790000000  0.4707750000000 1.0
C      1  0.5600220000000  0.4107090000000  0.4820480000000 1.0
C      1  0.4898620000000  0.4952350000000  0.6039580000000 1.0
C      1  0.4666740000000  0.5457150000000  0.5454480000000 1.0
C      1  0.4656010000000  0.4167000000000  0.4998680000000 1.0
C      1  0.4545800000000  0.5653190000000  0.4549910000000 1.0
C      1  0.5495830000000  0.4943550000000  0.4775840000000 1.0
C      1  0.5022050000000  0.5505590000000  0.4272650000000 1.0
C      1  0.4906830000000  0.4008840000000  0.5446770000000 1.0
C      1  0.4263170000000  0.4742470000000  0.4040230000000 1.0
C      1  0.5770720000000  0.4363450000000  0.5758840000000 1.0
C      1  0.5418800000000  0.4470690000000  0.5441690000000 1.0
C      1  0.4344430000000  0.4180130000000  0.4885620000000 1.0
C      1  0.6027150000000  0.5318830000000  0.5200770000000 1.0
C      1  0.5054810000000  0.4173460000000  0.5645970000000 1.0
C      1  0.4794730000000  0.5570370000000  0.5718410000000 1.0
C      1  0.4444450000000  0.4713230000000  0.5939440000000 1.0
C      1  0.5012700000000  0.4306450000000  0.4597760000000 1.0
C      1  0.4358170000000  0.4725860000000  0.4728850000000 1.0
C      1  0.4263750000000  0.5625350000000  0.4391380000000 1.0
C      1  0.5097960000000  0.5230410000000  0.4434860000000 1.0
C      1  0.5887910000000  0.4763820000000  0.5716980000000 1.0
C      1  0.4079710000000  0.4747100000000  0.4257620000000 1.0
C      1  0.5488620000000  0.5457680000000  0.4072450000000 1.0
C      1  0.5359430000000  0.5839370000000  0.4828680000000 1.0
C      1  0.5059680000000  0.4346850000000  0.4295220000000 1.0
C      1  0.4998070000000  0.4638130000000  0.5415280000000 1.0
C      1  0.4021290000000  0.4643550000000  0.5420910000000 1.0
C      1  0.6000030000000  0.5310750000000  0.4672530000000 1.0
C      1  0.4110270000000  0.5607520000000  0.5170920000000 1.0
C      1  0.4770820000000  0.4943180000000  0.3924920000000 1.0
C      1  0.5543980000000  0.5357120000000  0.5020440000000 1.0
C      1  0.4902390000000  0.4516230000000  0.4127220000000 1.0
C      1  0.4826360000000  0.5695240000000  0.4417270000000 1.0
C      1  0.4398360000000  0.5123050000000  0.5056520000000 1.0
C      1  0.3904040000000  0.5087350000000  0.4622680000000 1.0
C      1  0.6027560000000  0.4552700000000  0.5054060000000 1.0
C      1  0.4401880000000  0.4501830000000  0.5336720000000 1.0
C      1  0.5408100000000  0.4922510000000  0.6037180000000 1.0
C      1  0.5264780000000  0.4510430000000  0.5027390000000 1.0
C      1  0.4846620000000  0.4100730000000  0.4739150000000 1.0
C      1  0.3938100000000  0.5370290000000  0.4743180000000 1.0
C      1  0.5178850000000  0.4972220000000  0.4326700000000 1.0
C      1  0.4768860000000  0.5240770000000  0.3908480000000 1.0
C      1  0.4614280000000  0.4007620000000  0.4619740000000 1.0
C      1  0.5140260000000  0.3931580000000  0.5314560000000 1.0
C      1  0.5857510000000  0.5407010000000  0.4437920000000 1.0
C      1  0.3851130000000  0.4969540000000  0.5030110000000 1.0
C      1  0.4533070000000  0.4554740000000  0.4560290000000 1.0
C      1  0.5500090000000  0.4255500000000  0.5782770000000 1.0
C      1  0.5406530000000  0.3980910000000  0.5291080000000 1.0
C      1  0.5229040000000  0.5418720000000  0.5718790000000 1.0
C      1  0.4882370000000  0.5323990000000  0.5269850000000 1.0
C      1  0.4652320000000  0.5170920000000  0.4557780000000 1.0
C      1  0.4665120000000  0.5952100000000  0.5324770000000 1.0
C      1  0.4717490000000  0.4732400000000  0.6045610000000 1.0
C      1  0.5155060000000  0.5970670000000  0.5175190000000 1.0
C      1  0.4961990000000  0.4804220000000  0.4427780000000 1.0
C      1  0.5282950000000  0.5310130000000  0.3913130000000 1.0
C      1  0.3871980000000  0.4848480000000  0.4789240000000 1.0
C      1  0.5177740000000  0.5689090000000  0.5244360000000 1.0
C      1  0.5441560000000  0.4832950000000  0.4375710000000 1.0
C      1  0.5887490000000  0.4528080000000  0.5532890000000 1.0
C      1  0.4507300000000  0.5078930000000  0.4341210000000 1.0
C      1  0.5689230000000  0.5892590000000  0.4389210000000 1.0
C      1  0.5544800000000  0.5170200000000  0.5246580000000 1.0
C      1  0.5707880000000  0.5891380000000  0.5061000000000 1.0
C      1  0.4780160000000  0.4455740000000  0.5991390000000 1.0
C      1  0.6179020000000  0.5069310000000  0.5071010000000 1.0
C      1  0.4662750000000  0.5007620000000  0.5619640000000 1.0
C      1  0.5399460000000  0.6036700000000  0.5032210000000 1.0
C      1  0.4855250000000  0.6019230000000  0.5112680000000 1.0
C      1  0.5904020000000  0.5736720000000  0.4836730000000 1.0
C      1  0.4285970000000  0.5461170000000  0.4143380000000 1.0
C      1  0.5623710000000  0.4779530000000  0.4151890000000 1.0
C      1  0.4095640000000  0.5514270000000  0.4568930000000 1.0
C      1  0.4215200000000  0.5186130000000  0.5800920000000 1.0
C      1  0.4140870000000  0.4366440000000  0.4956530000000 1.0
C      1  0.5981050000000  0.4532730000000  0.4738990000000 1.0
C      1  0.5551220000000  0.4126570000000  0.5082730000000 1.0
C      1  0.5346500000000  0.4198620000000  0.5538430000000 1.0
C      1  0.5527070000000  0.5646690000000  0.4981900000000 1.0
C      1  0.4992880000000  0.5065410000000  0.5298810000000 1.0
C      1  0.4767750000000  0.5111840000000  0.5858080000000 1.0
C      1  0.5780100000000  0.5165320000000  0.5385880000000 1.0
C      1  0.4723220000000  0.4675050000000  0.4305240000000 1.0
C      1  0.4797130000000  0.4853780000000  0.5400290000000 1.0
C      1  0.5518140000000  0.4437840000000  0.5174930000000 1.0
C      1  0.4772450000000  0.4473280000000  0.5020540000000 1.0
C      1  0.5222830000000  0.5563610000000  0.6230110000000 1.0
C      1  0.5279770000000  0.5006510000000  0.5368460000000 1.0
C      1  0.4669530000000  0.4081780000000  0.5283360000000 1.0
C      1  0.4492340000000  0.4240740000000  0.5448200000000 1.0
C      1  0.5222610000000  0.5910410000000  0.4581030000000 1.0
C      1  0.4487780000000  0.4411250000000  0.5927040000000 1.0
C      1  0.5477420000000  0.4636050000000  0.6028390000000 1.0
C      1  0.4843210000000  0.5374630000000  0.5912560000000 1.0
C      1  0.5044300000000  0.5481780000000  0.5085720000000 1.0
C      1  0.4496020000000  0.5209990000000  0.5511240000000 1.0
C      1  0.6112660000000  0.4809820000000  0.5127910000000 1.0
C      1  0.6141340000000  0.5052350000000  0.4774420000000 1.0
C      1  0.5296400000000  0.5641590000000  0.4190150000000 1.0
C      1  0.5003140000000  0.5775920000000  0.5697710000000 1.0
C      1  0.4936270000000  0.5147810000000  0.4664200000000 1.0
C      1  0.3850180000000  0.5186980000000  0.5200220000000 1.0
C      1  0.4855610000000  0.5934910000000  0.5522920000000 1.0
C      1  0.5486410000000  0.4669410000000  0.4634590000000 1.0
C      1  0.4930750000000  0.5883370000000  0.4590880000000 1.0
C      1  0.4346360000000  0.4098940000000  0.4600910000000 1.0
C      1  0.4412620000000  0.4197380000000  0.5737730000000 1.0
C      1  0.4523360000000  0.5381100000000  0.4000310000000 1.0
C      1  0.4552240000000  0.4870210000000  0.4123280000000 1.0
C      1  0.5830040000000  0.5918200000000  0.5333460000000 1.0
C      1  0.4585100000000  0.4681310000000  0.5180980000000 1.0
C      1  0.5314840000000  0.4408550000000  0.5946800000000 1.0
C      1  0.5019190000000  0.4500930000000  0.5166760000000 1.0
C      1  0.4244180000000  0.5185080000000  0.4258910000000 1.0
C      1  0.5325390000000  0.5166050000000  0.5639890000000 1.0
C      1  0.4485910000000  0.5690910000000  0.5333030000000 1.0
C      1  0.5104350000000  0.5313000000000  0.4842760000000 1.0
C      1  0.5653770000000  0.5058630000000  0.4051330000000 1.0
C      1  0.4034520000000  0.4853170000000  0.5610220000000 1.0
C      1  0.5130250000000  0.5357500000000  0.6031460000000 1.0
C      1  0.5279620000000  0.5664320000000  0.5553050000000 1.0
C      1  0.5030410000000  0.4344550000000  0.5873730000000 1.0
C      1  0.4239020000000  0.4899060000000  0.5834490000000 1.0
C      1  0.5844090000000  0.5693090000000  0.4543910000000 1.0
C      1  0.5992640000000  0.5478550000000  0.4904570000000 1.0
C      1  0.4050180000000  0.5056810000000  0.5383620000000 1.0
C      1  0.4998840000000  0.4744460000000  0.4704000000000 1.0
END
