TITL C-4164234-2335-340 20.5348411975961 125000 -20400.4841263908 0 0 138 (C1) n - 1
REM
REM in /home/nfs/bkarasulu/CARBON/AIRSS/Generating-Clusters/ReaxFF-fromJPCA2015/Units_Real/with-SteepDescent/Only-C1/SD-CG/Try1-3A/FIRE-CG
REM
REM
REM
REM
REM
REM ./C.cell (11c1c37f851c82e70ff6c80c92926a4b)
REM
REM compiler GCC version 9.2.1 20190827 (Red Hat 9.2.1-1)
REM options -cpp -mtune=generic -march=x86-64 -g -O0 -fpre-include=/usr/include/finclude/math-vector-fortran.h
REM seed 667631288 76588197 198625459 -1186776772 396786023 1628468738 -598364384 -1528042996 207267868 -1160212388 -1713431405 1211337551 -64620979 1002747734 477417400 84915099 857820170 282780705 -1747049135 -5224525 -1134960273 146147373 -1102862885 1266070382 1784479711 648646249 263545890 -48442238 1071884319 1251492722 1911734806 -363822182 339874518
REM
CELL 1.54180   50.00000   50.00000   50.00000   90.00000   90.00000   90.00000
LATT -1
SFAC C  
C      1  0.5477530000000  0.5276580000000  0.5372540000000 1.0
C      1  0.4455830000000  0.4897910000000  0.4685700000000 1.0
C      1  0.4032850000000  0.5234520000000  0.5037320000000 1.0
C      1  0.4951190000000  0.4017180000000  0.4988280000000 1.0
C      1  0.5004340000000  0.5010510000000  0.3978680000000 1.0
C      1  0.4946920000000  0.4567740000000  0.5476220000000 1.0
C      1  0.5681070000000  0.5136010000000  0.5725560000000 1.0
C      1  0.5242620000000  0.4562620000000  0.5417500000000 1.0
C      1  0.5329350000000  0.4143340000000  0.5155760000000 1.0
C      1  0.5636470000000  0.4691660000000  0.4322790000000 1.0
C      1  0.4358710000000  0.5465350000000  0.5394180000000 1.0
C      1  0.4802850000000  0.5970070000000  0.5095710000000 1.0
C      1  0.5365530000000  0.4952520000000  0.4944330000000 1.0
C      1  0.4601100000000  0.4925450000000  0.5409180000000 1.0
C      1  0.5635710000000  0.5553860000000  0.4973010000000 1.0
C      1  0.5213240000000  0.4658480000000  0.4614640000000 1.0
C      1  0.4780640000000  0.5868590000000  0.5396640000000 1.0
C      1  0.4846690000000  0.4669640000000  0.5784630000000 1.0
C      1  0.4901540000000  0.5605840000000  0.5418040000000 1.0
C      1  0.5648480000000  0.5271720000000  0.4609720000000 1.0
C      1  0.4608700000000  0.5779390000000  0.4574010000000 1.0
C      1  0.5948800000000  0.4750130000000  0.5027340000000 1.0
C      1  0.5119770000000  0.5760850000000  0.4272490000000 1.0
C      1  0.5569680000000  0.4624970000000  0.5137480000000 1.0
C      1  0.4731600000000  0.4593910000000  0.5060910000000 1.0
C      1  0.4230280000000  0.5341760000000  0.5624930000000 1.0
C      1  0.5649520000000  0.4288910000000  0.4813150000000 1.0
C      1  0.5458870000000  0.5780400000000  0.5380530000000 1.0
C      1  0.5208990000000  0.5321680000000  0.4892060000000 1.0
C      1  0.4890730000000  0.4439970000000  0.4884520000000 1.0
C      1  0.4215750000000  0.5437560000000  0.5146540000000 1.0
C      1  0.5652690000000  0.4730340000000  0.5654640000000 1.0
C      1  0.5524930000000  0.5208500000000  0.4338550000000 1.0
C      1  0.4737340000000  0.5133120000000  0.4884960000000 1.0
C      1  0.4497250000000  0.4580400000000  0.4329210000000 1.0
C      1  0.5312580000000  0.4460910000000  0.5110700000000 1.0
C      1  0.4268180000000  0.4405650000000  0.5071810000000 1.0
C      1  0.5353870000000  0.4378080000000  0.5825770000000 1.0
C      1  0.5556690000000  0.4357170000000  0.4561690000000 1.0
C      1  0.4734730000000  0.5468820000000  0.4212320000000 1.0
C      1  0.5231530000000  0.4832580000000  0.4072350000000 1.0
C      1  0.4874720000000  0.5049990000000  0.4618030000000 1.0
C      1  0.4376870000000  0.4868360000000  0.5204760000000 1.0
C      1  0.4931120000000  0.4773550000000  0.4599460000000 1.0
C      1  0.4575550000000  0.4871820000000  0.4211140000000 1.0
C      1  0.4665110000000  0.4704520000000  0.4690640000000 1.0
C      1  0.4719880000000  0.4261190000000  0.4689320000000 1.0
C      1  0.5493810000000  0.4915250000000  0.5200100000000 1.0
C      1  0.5409250000000  0.4517970000000  0.4388380000000 1.0
C      1  0.5497740000000  0.5339250000000  0.4837460000000 1.0
C      1  0.4794560000000  0.5078930000000  0.4343660000000 1.0
C      1  0.5530030000000  0.5452300000000  0.4128100000000 1.0
C      1  0.5976260000000  0.4792560000000  0.4731840000000 1.0
C      1  0.4381070000000  0.5102350000000  0.4250980000000 1.0
C      1  0.4640830000000  0.4356940000000  0.5201160000000 1.0
C      1  0.4461420000000  0.4493630000000  0.4610790000000 1.0
C      1  0.4901940000000  0.5428470000000  0.5858610000000 1.0
C      1  0.5741620000000  0.5866410000000  0.4411120000000 1.0
C      1  0.4652820000000  0.5865340000000  0.4860390000000 1.0
C      1  0.4402440000000  0.5583650000000  0.4496440000000 1.0
C      1  0.5157790000000  0.4507330000000  0.4865910000000 1.0
C      1  0.4839820000000  0.5141630000000  0.5928110000000 1.0
C      1  0.4707210000000  0.4404540000000  0.4280180000000 1.0
C      1  0.5097120000000  0.4235460000000  0.5782740000000 1.0
C      1  0.5243050000000  0.5506290000000  0.4174140000000 1.0
C      1  0.5094690000000  0.5972110000000  0.5045110000000 1.0
C      1  0.4977020000000  0.4205130000000  0.4534290000000 1.0
C      1  0.4656250000000  0.5444530000000  0.5391300000000 1.0
C      1  0.5102200000000  0.5070150000000  0.4978300000000 1.0
C      1  0.4616020000000  0.4327410000000  0.5651000000000 1.0
C      1  0.5703820000000  0.4777950000000  0.4601080000000 1.0
C      1  0.4217680000000  0.5486780000000  0.4698130000000 1.0
C      1  0.5446650000000  0.4823600000000  0.4702940000000 1.0
C      1  0.4254390000000  0.4962760000000  0.4471720000000 1.0
C      1  0.4649330000000  0.5556490000000  0.5817370000000 1.0
C      1  0.4996030000000  0.4891470000000  0.5923920000000 1.0
C      1  0.4978090000000  0.4345710000000  0.4269910000000 1.0
C      1  0.4637140000000  0.5403430000000  0.4911560000000 1.0
C      1  0.4432700000000  0.4544950000000  0.5574070000000 1.0
C      1  0.5399370000000  0.5113640000000  0.5804030000000 1.0
C      1  0.5719480000000  0.5663460000000  0.4186740000000 1.0
C      1  0.5781330000000  0.4504720000000  0.5007900000000 1.0
C      1  0.5025020000000  0.4609910000000  0.4109270000000 1.0
C      1  0.4829250000000  0.4757250000000  0.5289800000000 1.0
C      1  0.4026810000000  0.4994950000000  0.4652300000000 1.0
C      1  0.4057350000000  0.5131680000000  0.5550460000000 1.0
C      1  0.5011640000000  0.5140720000000  0.5450200000000 1.0
C      1  0.6055040000000  0.5059580000000  0.4759910000000 1.0
C      1  0.5285550000000  0.4888490000000  0.5934260000000 1.0
C      1  0.4057800000000  0.4784560000000  0.4855690000000 1.0
C      1  0.5899220000000  0.5295470000000  0.4782120000000 1.0
C      1  0.5466690000000  0.4653350000000  0.5864520000000 1.0
C      1  0.5365930000000  0.5950820000000  0.5161710000000 1.0
C      1  0.5855600000000  0.5218500000000  0.5068090000000 1.0
C      1  0.4453430000000  0.5322170000000  0.5822040000000 1.0
C      1  0.3915920000000  0.4935600000000  0.5416580000000 1.0
C      1  0.5193270000000  0.5829670000000  0.4814520000000 1.0
C      1  0.4931050000000  0.5252590000000  0.4146460000000 1.0
C      1  0.4567050000000  0.5061830000000  0.5863440000000 1.0
C      1  0.4740740000000  0.5184400000000  0.5427730000000 1.0
C      1  0.4511070000000  0.4962110000000  0.4952900000000 1.0
C      1  0.4558800000000  0.4797000000000  0.5699920000000 1.0
C      1  0.5320610000000  0.5865230000000  0.4424100000000 1.0
C      1  0.5253650000000  0.5320860000000  0.4399580000000 1.0
C      1  0.5019820000000  0.4058110000000  0.5281880000000 1.0
C      1  0.5133670000000  0.4095700000000  0.4764740000000 1.0
C      1  0.4024670000000  0.5269930000000  0.4753100000000 1.0
C      1  0.4467900000000  0.5383080000000  0.4283850000000 1.0
C      1  0.4813750000000  0.5622140000000  0.4892090000000 1.0
C      1  0.5514820000000  0.5529980000000  0.5228370000000 1.0
C      1  0.5896080000000  0.4984140000000  0.5221940000000 1.0
C      1  0.5100560000000  0.5526790000000  0.5649140000000 1.0
C      1  0.5231540000000  0.5255910000000  0.5568680000000 1.0
C      1  0.5059050000000  0.4953760000000  0.5261600000000 1.0
C      1  0.5412850000000  0.4117050000000  0.4867980000000 1.0
C      1  0.4839210000000  0.4369480000000  0.5830870000000 1.0
C      1  0.5128240000000  0.5399420000000  0.4635040000000 1.0
C      1  0.5412610000000  0.5612600000000  0.5614420000000 1.0
C      1  0.4814790000000  0.4795930000000  0.4020250000000 1.0
C      1  0.4672780000000  0.4058460000000  0.4910390000000 1.0
C      1  0.5010970000000  0.5642470000000  0.4684930000000 1.0
C      1  0.5788640000000  0.4934920000000  0.5525590000000 1.0
C      1  0.5465980000000  0.4904990000000  0.4222580000000 1.0
C      1  0.5473010000000  0.4372340000000  0.5562910000000 1.0
C      1  0.4813980000000  0.4302180000000  0.5421380000000 1.0
C      1  0.5620360000000  0.5399780000000  0.5603760000000 1.0
C      1  0.4831430000000  0.5704920000000  0.4383930000000 1.0
C      1  0.5292210000000  0.4839390000000  0.5369730000000 1.0
C      1  0.4224290000000  0.4548330000000  0.4820100000000 1.0
C      1  0.5482770000000  0.5819530000000  0.4905980000000 1.0
C      1  0.4056750000000  0.4950000000000  0.5115530000000 1.0
C      1  0.5150250000000  0.4055200000000  0.5550090000000 1.0
C      1  0.4371550000000  0.5493560000000  0.4927850000000 1.0
C      1  0.4459260000000  0.4169710000000  0.5076820000000 1.0
C      1  0.5517450000000  0.5940250000000  0.4596970000000 1.0
C      1  0.4327360000000  0.4584080000000  0.5304680000000 1.0
C      1  0.4625720000000  0.5812350000000  0.5646150000000 1.0
C      1  0.5414810000000  0.4110050000000  0.5441860000000 1.0
END
