TITL C-4164238-4211-145 -3.17611988421391 125000 -7955.79132063524 0 0 55 (C1) n - 1
REM
REM in /home/nfs/bkarasulu/CARBON/AIRSS/Generating-Clusters/ReaxFF-fromJPCA2015/Units_Real/with-SteepDescent/Only-C1/SD-CG/Try1-3A/FIRE-CG
REM
REM
REM
REM
REM
REM ./C.cell (11c1c37f851c82e70ff6c80c92926a4b)
REM
REM compiler GCC version 9.2.1 20190827 (Red Hat 9.2.1-1)
REM options -cpp -mtune=generic -march=x86-64 -g -O0 -fpre-include=/usr/include/finclude/math-vector-fortran.h
REM seed 1928828378 -337428217 49885709 -1914557920 -951760224 -336712573 1036897758 1315077223 353009865 -847518444 -1607154568 1892871479 1054980172 1770168081 2015360116 355395356 -924519362 302912097 827106712 -569869792 187631558 -1893269972 802120173 21721908 1404423598 -205521375 1887414550 976368066 1737496423 -1592496260 -412253871 1213282414 810549459
REM
CELL 1.54180   50.00000   50.00000   50.00000   90.00000   90.00000   90.00000
LATT -1
SFAC C  
C      1  0.5117650000000  0.4439810000000  0.5169420000000 1.0
C      1  0.4781380000000  0.5422890000000  0.5460390000000 1.0
C      1  0.4538960000000  0.4800600000000  0.5631820000000 1.0
C      1  0.5191620000000  0.4855500000000  0.5678120000000 1.0
C      1  0.5547580000000  0.5110210000000  0.5132310000000 1.0
C      1  0.5337070000000  0.5351880000000  0.4570080000000 1.0
C      1  0.5706240000000  0.5246280000000  0.4926760000000 1.0
C      1  0.5010730000000  0.4247240000000  0.4950830000000 1.0
C      1  0.4586390000000  0.5059170000000  0.5548200000000 1.0
C      1  0.5149020000000  0.4401080000000  0.5450960000000 1.0
C      1  0.4593800000000  0.4835090000000  0.4423270000000 1.0
C      1  0.5793030000000  0.4664850000000  0.4989610000000 1.0
C      1  0.5131050000000  0.4636750000000  0.4553050000000 1.0
C      1  0.4629190000000  0.5472170000000  0.4755520000000 1.0
C      1  0.4393530000000  0.4759670000000  0.5246280000000 1.0
C      1  0.5058730000000  0.5084780000000  0.5756770000000 1.0
C      1  0.4416570000000  0.4586520000000  0.5498280000000 1.0
C      1  0.5309570000000  0.5194410000000  0.4345620000000 1.0
C      1  0.4511350000000  0.4838290000000  0.4696180000000 1.0
C      1  0.4803260000000  0.5043750000000  0.5008010000000 1.0
C      1  0.4527980000000  0.5029530000000  0.5220000000000 1.0
C      1  0.5199810000000  0.5466330000000  0.5263920000000 1.0
C      1  0.5004010000000  0.4879780000000  0.4335760000000 1.0
C      1  0.4302130000000  0.5051410000000  0.4809440000000 1.0
C      1  0.5008990000000  0.5657750000000  0.4842110000000 1.0
C      1  0.5382620000000  0.5666820000000  0.5207730000000 1.0
C      1  0.5234580000000  0.5024320000000  0.4141170000000 1.0
C      1  0.4902110000000  0.4293010000000  0.5591970000000 1.0
C      1  0.5317310000000  0.4614530000000  0.5585260000000 1.0
C      1  0.4734450000000  0.4819120000000  0.4857680000000 1.0
C      1  0.5741700000000  0.5544620000000  0.4887000000000 1.0
C      1  0.5612730000000  0.5369390000000  0.4686260000000 1.0
C      1  0.5075090000000  0.5401230000000  0.4706190000000 1.0
C      1  0.5267550000000  0.5181010000000  0.5191550000000 1.0
C      1  0.4791510000000  0.5047720000000  0.4461940000000 1.0
C      1  0.4507960000000  0.5463030000000  0.5025320000000 1.0
C      1  0.4803470000000  0.4659780000000  0.4304510000000 1.0
C      1  0.4354730000000  0.5224770000000  0.5064400000000 1.0
C      1  0.4982520000000  0.5633370000000  0.5150920000000 1.0
C      1  0.5620290000000  0.4616280000000  0.4779650000000 1.0
C      1  0.4761460000000  0.5719110000000  0.4714370000000 1.0
C      1  0.4834030000000  0.5228090000000  0.4714460000000 1.0
C      1  0.4094410000000  0.5184640000000  0.4750660000000 1.0
C      1  0.5488190000000  0.4732480000000  0.5400560000000 1.0
C      1  0.4938150000000  0.4429490000000  0.4430350000000 1.0
C      1  0.4949050000000  0.4293270000000  0.4677430000000 1.0
C      1  0.5063940000000  0.4984110000000  0.5139340000000 1.0
C      1  0.4638750000000  0.4415150000000  0.5567980000000 1.0
C      1  0.5591450000000  0.5678470000000  0.5074030000000 1.0
C      1  0.5125730000000  0.4707810000000  0.5056940000000 1.0
C      1  0.4969350000000  0.4680360000000  0.4813290000000 1.0
C      1  0.4796900000000  0.5234720000000  0.5657340000000 1.0
C      1  0.5651050000000  0.4846100000000  0.5223130000000 1.0
C      1  0.4706040000000  0.5564030000000  0.5234610000000 1.0
C      1  0.5413260000000  0.4607370000000  0.4641240000000 1.0
END
