TITL C-4164241-3639-446 43.9284305711132 125000 -23859.8616790889 0 0 159 (C1) n - 1
REM
REM in /home/nfs/bkarasulu/CARBON/AIRSS/Generating-Clusters/ReaxFF-fromJPCA2015/Units_Real/with-SteepDescent/Only-C1/SD-CG/Try1-3A/FIRE-CG
REM
REM
REM
REM
REM
REM ./C.cell (11c1c37f851c82e70ff6c80c92926a4b)
REM
REM compiler GCC version 9.2.1 20190827 (Red Hat 9.2.1-1)
REM options -cpp -mtune=generic -march=x86-64 -g -O0 -fpre-include=/usr/include/finclude/math-vector-fortran.h
REM seed 7624622 -536729566 -1758275377 1781999592 -1828448527 524415714 566066594 53910433 -305895692 770015438 1737793892 -1089795590 1985431895 430313159 345097333 -1484521428 1832449069 1945301589 -1739656048 745736784 2037750241 -1248596074 268587613 -427873744 -773937980 -1771201091 -1409551525 -750639333 -80178811 684949073 -2588009 -940935234 71234040
REM
CELL 1.54180   50.00000   50.00000   50.00000   90.00000   90.00000   90.00000
LATT -1
SFAC C  
C      1  0.4977270000000  0.5289120000000  0.3861070000000 1.0
C      1  0.5929150000000  0.4528880000000  0.4854180000000 1.0
C      1  0.5838200000000  0.5602940000000  0.5155770000000 1.0
C      1  0.5164520000000  0.4820010000000  0.4049250000000 1.0
C      1  0.4354290000000  0.5140390000000  0.4037490000000 1.0
C      1  0.3942300000000  0.4749320000000  0.4742300000000 1.0
C      1  0.5294200000000  0.4319090000000  0.5359580000000 1.0
C      1  0.5282120000000  0.5302450000000  0.4144700000000 1.0
C      1  0.4359680000000  0.4796120000000  0.5329930000000 1.0
C      1  0.4439680000000  0.5410580000000  0.3973420000000 1.0
C      1  0.6104170000000  0.4895720000000  0.5199730000000 1.0
C      1  0.4278550000000  0.4281760000000  0.5535490000000 1.0
C      1  0.5662100000000  0.5866720000000  0.4713670000000 1.0
C      1  0.4509470000000  0.5914330000000  0.4638210000000 1.0
C      1  0.5008880000000  0.6058930000000  0.4847420000000 1.0
C      1  0.4562220000000  0.5184870000000  0.4921180000000 1.0
C      1  0.5353070000000  0.4931840000000  0.5995930000000 1.0
C      1  0.5363160000000  0.5735440000000  0.4304430000000 1.0
C      1  0.5153720000000  0.5328150000000  0.5296530000000 1.0
C      1  0.5735810000000  0.4717970000000  0.4090560000000 1.0
C      1  0.4957520000000  0.4410080000000  0.4770100000000 1.0
C      1  0.4377400000000  0.4760980000000  0.4756460000000 1.0
C      1  0.4735700000000  0.4973540000000  0.5055540000000 1.0
C      1  0.5042190000000  0.5205540000000  0.6006040000000 1.0
C      1  0.5981140000000  0.5400340000000  0.4401150000000 1.0
C      1  0.5614680000000  0.4398880000000  0.4465930000000 1.0
C      1  0.5132220000000  0.5841520000000  0.5349770000000 1.0
C      1  0.5190640000000  0.4823360000000  0.5152320000000 1.0
C      1  0.5082900000000  0.5728220000000  0.4234330000000 1.0
C      1  0.5174890000000  0.4948860000000  0.4521250000000 1.0
C      1  0.4634110000000  0.4263330000000  0.4446930000000 1.0
C      1  0.4742780000000  0.3945410000000  0.5480940000000 1.0
C      1  0.4546760000000  0.4611950000000  0.4075620000000 1.0
C      1  0.4550500000000  0.5248290000000  0.5881490000000 1.0
C      1  0.5046240000000  0.5465900000000  0.4100730000000 1.0
C      1  0.4747890000000  0.3994340000000  0.5194300000000 1.0
C      1  0.4711680000000  0.4681210000000  0.5013120000000 1.0
C      1  0.4951680000000  0.5183500000000  0.5443450000000 1.0
C      1  0.5486780000000  0.5373590000000  0.5743050000000 1.0
C      1  0.5963230000000  0.4819510000000  0.5429560000000 1.0
C      1  0.4400680000000  0.4334080000000  0.5073820000000 1.0
C      1  0.3904810000000  0.5078160000000  0.5119930000000 1.0
C      1  0.5061450000000  0.4764920000000  0.4315770000000 1.0
C      1  0.4830350000000  0.5595990000000  0.5726540000000 1.0
C      1  0.4916450000000  0.5785500000000  0.4471250000000 1.0
C      1  0.5447270000000  0.4151030000000  0.4926080000000 1.0
C      1  0.5920660000000  0.5193270000000  0.4217540000000 1.0
C      1  0.3944060000000  0.4795020000000  0.5037530000000 1.0
C      1  0.4604850000000  0.4713410000000  0.4570940000000 1.0
C      1  0.5078980000000  0.4465330000000  0.4261100000000 1.0
C      1  0.6003800000000  0.5417440000000  0.4687690000000 1.0
C      1  0.5391940000000  0.4690790000000  0.5800760000000 1.0
C      1  0.4713460000000  0.4484920000000  0.4260560000000 1.0
C      1  0.5981570000000  0.4777160000000  0.4501520000000 1.0
C      1  0.5283700000000  0.4542810000000  0.4055330000000 1.0
C      1  0.5354910000000  0.5622540000000  0.5657300000000 1.0
C      1  0.5008730000000  0.6014290000000  0.5128920000000 1.0
C      1  0.4153440000000  0.4595380000000  0.4577280000000 1.0
C      1  0.4344070000000  0.5521060000000  0.4626060000000 1.0
C      1  0.3948120000000  0.5300850000000  0.4933260000000 1.0
C      1  0.4571380000000  0.5643440000000  0.5607380000000 1.0
C      1  0.5239140000000  0.4011000000000  0.5022760000000 1.0
C      1  0.4159970000000  0.5624410000000  0.5375140000000 1.0
C      1  0.4737830000000  0.5170560000000  0.4482440000000 1.0
C      1  0.4091720000000  0.5455710000000  0.5138980000000 1.0
C      1  0.5695540000000  0.4419060000000  0.5402280000000 1.0
C      1  0.4076730000000  0.5215100000000  0.5322940000000 1.0
C      1  0.5420890000000  0.5200270000000  0.4874860000000 1.0
C      1  0.4450640000000  0.5375130000000  0.5641900000000 1.0
C      1  0.4938880000000  0.5482540000000  0.4937450000000 1.0
C      1  0.5289540000000  0.6062590000000  0.4728260000000 1.0
C      1  0.4352190000000  0.5748340000000  0.4414870000000 1.0
C      1  0.4386510000000  0.4882230000000  0.4198280000000 1.0
C      1  0.5685800000000  0.5188500000000  0.5595490000000 1.0
C      1  0.5420910000000  0.4250500000000  0.4616760000000 1.0
C      1  0.4396060000000  0.5664710000000  0.4154950000000 1.0
C      1  0.5823070000000  0.5376230000000  0.5495960000000 1.0
C      1  0.4432250000000  0.5744950000000  0.5373410000000 1.0
C      1  0.4512850000000  0.5678550000000  0.5100510000000 1.0
C      1  0.5666590000000  0.4608940000000  0.4955690000000 1.0
C      1  0.5587080000000  0.5692280000000  0.5232080000000 1.0
C      1  0.4434310000000  0.4643790000000  0.5029130000000 1.0
C      1  0.5207190000000  0.4489310000000  0.4886990000000 1.0
C      1  0.4813930000000  0.5350880000000  0.5899130000000 1.0
C      1  0.5077800000000  0.5223900000000  0.4856580000000 1.0
C      1  0.6115580000000  0.4913320000000  0.4724850000000 1.0
C      1  0.4728170000000  0.4558620000000  0.5935710000000 1.0
C      1  0.5391000000000  0.5222980000000  0.5178400000000 1.0
C      1  0.4995430000000  0.5148850000000  0.4593680000000 1.0
C      1  0.5551550000000  0.4511910000000  0.4184860000000 1.0
C      1  0.4790430000000  0.5998100000000  0.4630540000000 1.0
C      1  0.5082370000000  0.4923080000000  0.6097990000000 1.0
C      1  0.6116940000000  0.4734070000000  0.4946610000000 1.0
C      1  0.5174440000000  0.4159340000000  0.5556820000000 1.0
C      1  0.4393430000000  0.5740320000000  0.4838760000000 1.0
C      1  0.5634350000000  0.4643110000000  0.5234410000000 1.0
C      1  0.5186290000000  0.4503950000000  0.5905050000000 1.0
C      1  0.5410180000000  0.5664060000000  0.5014900000000 1.0
C      1  0.5128810000000  0.5580890000000  0.5141420000000 1.0
C      1  0.4540850000000  0.4744770000000  0.5837910000000 1.0
C      1  0.4115230000000  0.5230010000000  0.4691100000000 1.0
C      1  0.4768830000000  0.4325790000000  0.5774600000000 1.0
C      1  0.5076740000000  0.5715270000000  0.5635580000000 1.0
C      1  0.4982360000000  0.4654310000000  0.6034120000000 1.0
C      1  0.5684420000000  0.4602330000000  0.5642290000000 1.0
C      1  0.4160270000000  0.5387680000000  0.5543640000000 1.0
C      1  0.5722360000000  0.5366300000000  0.4306270000000 1.0
C      1  0.5485720000000  0.5486720000000  0.4225520000000 1.0
C      1  0.4995200000000  0.4910420000000  0.5546330000000 1.0
C      1  0.5172100000000  0.4243070000000  0.4459710000000 1.0
C      1  0.4090580000000  0.4655940000000  0.5249000000000 1.0
C      1  0.4665190000000  0.5254980000000  0.5390450000000 1.0
C      1  0.5808290000000  0.4859880000000  0.5633530000000 1.0
C      1  0.4650100000000  0.5413580000000  0.5091900000000 1.0
C      1  0.5796730000000  0.5587650000000  0.4829170000000 1.0
C      1  0.5395190000000  0.4938420000000  0.4702940000000 1.0
C      1  0.4804010000000  0.4701300000000  0.5474480000000 1.0
C      1  0.5330580000000  0.5214210000000  0.5921920000000 1.0
C      1  0.5138520000000  0.4520890000000  0.5175240000000 1.0
C      1  0.5054690000000  0.4292810000000  0.5765920000000 1.0
C      1  0.4123570000000  0.4442450000000  0.5699210000000 1.0
C      1  0.4357760000000  0.4319650000000  0.4548550000000 1.0
C      1  0.5265550000000  0.4814490000000  0.5579820000000 1.0
C      1  0.6091530000000  0.5188420000000  0.4834940000000 1.0
C      1  0.4348470000000  0.5078420000000  0.4791660000000 1.0
C      1  0.4608490000000  0.4930980000000  0.4400450000000 1.0
C      1  0.4122880000000  0.4806750000000  0.4373630000000 1.0
C      1  0.5526710000000  0.4236850000000  0.5213840000000 1.0
C      1  0.4531730000000  0.4703070000000  0.5560090000000 1.0
C      1  0.4836880000000  0.4519690000000  0.5245790000000 1.0
C      1  0.5457290000000  0.5926750000000  0.4509950000000 1.0
C      1  0.4410520000000  0.4273080000000  0.4789790000000 1.0
C      1  0.5432930000000  0.5791520000000  0.5437600000000 1.0
C      1  0.4013400000000  0.4688880000000  0.5861220000000 1.0
C      1  0.5523510000000  0.5471680000000  0.4814260000000 1.0
C      1  0.5570170000000  0.5096060000000  0.5349210000000 1.0
C      1  0.4702490000000  0.5322840000000  0.3899170000000 1.0
C      1  0.4182310000000  0.4903000000000  0.5932940000000 1.0
C      1  0.4839760000000  0.5578750000000  0.4665410000000 1.0
C      1  0.4159820000000  0.4377300000000  0.5289640000000 1.0
C      1  0.5915950000000  0.4902310000000  0.4247050000000 1.0
C      1  0.5194180000000  0.5096780000000  0.3955960000000 1.0
C      1  0.4663990000000  0.4276190000000  0.5244240000000 1.0
C      1  0.5971970000000  0.5395020000000  0.5280580000000 1.0
C      1  0.5420590000000  0.4850850000000  0.5338460000000 1.0
C      1  0.5484890000000  0.5968250000000  0.4917650000000 1.0
C      1  0.4618520000000  0.5412470000000  0.4570710000000 1.0
C      1  0.3980490000000  0.4979920000000  0.4558260000000 1.0
C      1  0.4799710000000  0.4644700000000  0.4743700000000 1.0
C      1  0.4442600000000  0.4990590000000  0.5953300000000 1.0
C      1  0.4567660000000  0.5001960000000  0.5289120000000 1.0
C      1  0.5031390000000  0.3896650000000  0.5181110000000 1.0
C      1  0.5419480000000  0.4666020000000  0.4792360000000 1.0
C      1  0.4597580000000  0.4197950000000  0.5565940000000 1.0
C      1  0.4902650000000  0.4205900000000  0.4568250000000 1.0
C      1  0.5864910000000  0.4516820000000  0.4570610000000 1.0
C      1  0.6077590000000  0.5177680000000  0.5120380000000 1.0
C      1  0.5019630000000  0.5013970000000  0.5042820000000 1.0
C      1  0.5037990000000  0.3926550000000  0.5480370000000 1.0
END
