TITL C-4164238-4211-727 177.096588555737 125000 -27048.6998993729 0 0 185 (C1) n - 1
REM
REM in /home/nfs/bkarasulu/CARBON/AIRSS/Generating-Clusters/ReaxFF-fromJPCA2015/Units_Real/with-SteepDescent/Only-C1/SD-CG/Try1-3A/FIRE-CG
REM
REM
REM
REM
REM
REM ./C.cell (11c1c37f851c82e70ff6c80c92926a4b)
REM
REM compiler GCC version 9.2.1 20190827 (Red Hat 9.2.1-1)
REM options -cpp -mtune=generic -march=x86-64 -g -O0 -fpre-include=/usr/include/finclude/math-vector-fortran.h
REM seed -792166290 -1593456385 1987559230 -1710925757 652500722 1387452237 596641560 1815427399 1401936633 1758842146 -1511730003 1898378115 -1081705830 1548684597 1146276187 -114231540 2062307797 1333660006 2047800874 -21311397 1031082127 637304415 -1730410375 1704963104 -437112458 -997975508 -405991504 2128449326 757838039 -1940027376 764421797 -1033618342 158545544
REM
CELL 1.54180   50.00000   50.00000   50.00000   90.00000   90.00000   90.00000
LATT -1
SFAC C  
C      1  0.5182750000000  0.4796500000000  0.3941940000000 1.0
C      1  0.4648260000000  0.4318520000000  0.5237050000000 1.0
C      1  0.3912960000000  0.4729510000000  0.5243530000000 1.0
C      1  0.3895390000000  0.5007480000000  0.5170060000000 1.0
C      1  0.5231710000000  0.4974280000000  0.5646750000000 1.0
C      1  0.4624430000000  0.4844200000000  0.4660510000000 1.0
C      1  0.5254030000000  0.4682880000000  0.5635880000000 1.0
C      1  0.6007040000000  0.4683550000000  0.4680900000000 1.0
C      1  0.4266780000000  0.4655430000000  0.4988030000000 1.0
C      1  0.5601810000000  0.5438630000000  0.4860170000000 1.0
C      1  0.5004290000000  0.4688870000000  0.4449840000000 1.0
C      1  0.4294500000000  0.5219730000000  0.5750960000000 1.0
C      1  0.5662540000000  0.4776300000000  0.4194640000000 1.0
C      1  0.5492870000000  0.5040630000000  0.4953870000000 1.0
C      1  0.5712910000000  0.5204360000000  0.5901850000000 1.0
C      1  0.5810870000000  0.4586540000000  0.4289690000000 1.0
C      1  0.5188910000000  0.4628990000000  0.4959410000000 1.0
C      1  0.5974500000000  0.5522000000000  0.5044400000000 1.0
C      1  0.5546470000000  0.5906900000000  0.4735560000000 1.0
C      1  0.5335970000000  0.4379560000000  0.4874480000000 1.0
C      1  0.5184930000000  0.3935380000000  0.4904170000000 1.0
C      1  0.4904090000000  0.5907900000000  0.4402750000000 1.0
C      1  0.5773000000000  0.4744670000000  0.5832590000000 1.0
C      1  0.5175570000000  0.4155970000000  0.5734390000000 1.0
C      1  0.4750500000000  0.4857290000000  0.5229730000000 1.0
C      1  0.5130580000000  0.4788900000000  0.6147250000000 1.0
C      1  0.4463820000000  0.5720270000000  0.5611030000000 1.0
C      1  0.5434210000000  0.4913810000000  0.4109170000000 1.0
C      1  0.4532930000000  0.4322540000000  0.4740310000000 1.0
C      1  0.4207920000000  0.5630380000000  0.5513920000000 1.0
C      1  0.5974820000000  0.4491210000000  0.5052500000000 1.0
C      1  0.4630060000000  0.4764420000000  0.3966460000000 1.0
C      1  0.4690740000000  0.5736030000000  0.4321780000000 1.0
C      1  0.3997130000000  0.5251460000000  0.4421390000000 1.0
C      1  0.4973610000000  0.4212210000000  0.4538650000000 1.0
C      1  0.4173720000000  0.4229380000000  0.5265290000000 1.0
C      1  0.4919800000000  0.5053010000000  0.4941060000000 1.0
C      1  0.3979340000000  0.5240570000000  0.5322460000000 1.0
C      1  0.4852730000000  0.6090050000000  0.4940270000000 1.0
C      1  0.6012170000000  0.4776350000000  0.4406800000000 1.0
C      1  0.5556980000000  0.4165360000000  0.4597570000000 1.0
C      1  0.5284390000000  0.4590000000000  0.5980560000000 1.0
C      1  0.4730100000000  0.4973670000000  0.4159130000000 1.0
C      1  0.5795410000000  0.5313180000000  0.4382500000000 1.0
C      1  0.4517850000000  0.4473180000000  0.4985280000000 1.0
C      1  0.4503560000000  0.5795460000000  0.5907400000000 1.0
C      1  0.5868200000000  0.4821480000000  0.5339250000000 1.0
C      1  0.6015670000000  0.5282310000000  0.5208450000000 1.0
C      1  0.5553680000000  0.5417600000000  0.4221120000000 1.0
C      1  0.5597380000000  0.4342010000000  0.5523670000000 1.0
C      1  0.5654600000000  0.4084580000000  0.4855840000000 1.0
C      1  0.5057680000000  0.3935000000000  0.5327510000000 1.0
C      1  0.5946960000000  0.4833870000000  0.5633970000000 1.0
C      1  0.4927200000000  0.4763290000000  0.5017080000000 1.0
C      1  0.5435500000000  0.5625610000000  0.5917700000000 1.0
C      1  0.4351570000000  0.5550760000000  0.4687410000000 1.0
C      1  0.4353040000000  0.5128780000000  0.4048940000000 1.0
C      1  0.4854310000000  0.4751950000000  0.6084230000000 1.0
C      1  0.4169570000000  0.5300430000000  0.4188370000000 1.0
C      1  0.5696790000000  0.5489990000000  0.5862930000000 1.0
C      1  0.5377430000000  0.5184330000000  0.4218670000000 1.0
C      1  0.5244400000000  0.5624610000000  0.5324630000000 1.0
C      1  0.5476610000000  0.4601910000000  0.5497380000000 1.0
C      1  0.4997590000000  0.5215270000000  0.6038110000000 1.0
C      1  0.4127040000000  0.4673880000000  0.5437870000000 1.0
C      1  0.5058060000000  0.4526200000000  0.3971480000000 1.0
C      1  0.4820160000000  0.6065350000000  0.4636050000000 1.0
C      1  0.5212100000000  0.5875360000000  0.4315570000000 1.0
C      1  0.5108010000000  0.5190460000000  0.5334240000000 1.0
C      1  0.4560930000000  0.6042260000000  0.4974770000000 1.0
C      1  0.4665060000000  0.4067050000000  0.5645220000000 1.0
C      1  0.4245290000000  0.4923960000000  0.4905180000000 1.0
C      1  0.4272270000000  0.5530400000000  0.4963350000000 1.0
C      1  0.5704260000000  0.5253720000000  0.4653280000000 1.0
C      1  0.4178980000000  0.5801890000000  0.5266100000000 1.0
C      1  0.5018600000000  0.5570530000000  0.5101580000000 1.0
C      1  0.6087110000000  0.5512220000000  0.4760880000000 1.0
C      1  0.4811670000000  0.4070370000000  0.4376800000000 1.0
C      1  0.4439160000000  0.5921970000000  0.5208370000000 1.0
C      1  0.5251890000000  0.4147800000000  0.4691470000000 1.0
C      1  0.3957610000000  0.5001560000000  0.4833260000000 1.0
C      1  0.5605910000000  0.4337640000000  0.4355220000000 1.0
C      1  0.5169230000000  0.5667630000000  0.5812340000000 1.0
C      1  0.4721230000000  0.5597670000000  0.5919330000000 1.0
C      1  0.5859540000000  0.5559810000000  0.5619740000000 1.0
C      1  0.4503670000000  0.4796980000000  0.5697120000000 1.0
C      1  0.5661140000000  0.4991220000000  0.4735540000000 1.0
C      1  0.4491130000000  0.5050200000000  0.4818950000000 1.0
C      1  0.5231970000000  0.5064590000000  0.6116820000000 1.0
C      1  0.4954290000000  0.5314170000000  0.3901660000000 1.0
C      1  0.5567220000000  0.5304860000000  0.5112740000000 1.0
C      1  0.3867850000000  0.5531930000000  0.4853240000000 1.0
C      1  0.5343980000000  0.3973970000000  0.5305790000000 1.0
C      1  0.5151230000000  0.5223240000000  0.4406020000000 1.0
C      1  0.5093230000000  0.5253310000000  0.5054750000000 1.0
C      1  0.5118460000000  0.5630900000000  0.4835220000000 1.0
C      1  0.4793400000000  0.4375250000000  0.4699840000000 1.0
C      1  0.5711930000000  0.4711320000000  0.4685630000000 1.0
C      1  0.4349860000000  0.4828470000000  0.4049120000000 1.0
C      1  0.4512600000000  0.4319970000000  0.5555390000000 1.0
C      1  0.3999180000000  0.4292980000000  0.4882230000000 1.0
C      1  0.5812300000000  0.5788270000000  0.5432570000000 1.0
C      1  0.4672080000000  0.5301310000000  0.5306720000000 1.0
C      1  0.5816130000000  0.5769170000000  0.5137470000000 1.0
C      1  0.5444220000000  0.5413730000000  0.5349150000000 1.0
C      1  0.4775920000000  0.5025870000000  0.5976750000000 1.0
C      1  0.4761570000000  0.4508270000000  0.4014950000000 1.0
C      1  0.4876930000000  0.4418030000000  0.5347600000000 1.0
C      1  0.4807550000000  0.4817190000000  0.5515000000000 1.0
C      1  0.4215360000000  0.5286850000000  0.5145930000000 1.0
C      1  0.4648680000000  0.3977970000000  0.5016190000000 1.0
C      1  0.5291570000000  0.4699880000000  0.4421220000000 1.0
C      1  0.4328430000000  0.4608690000000  0.4232380000000 1.0
C      1  0.3996330000000  0.4558650000000  0.5011880000000 1.0
C      1  0.4114260000000  0.4321050000000  0.4617780000000 1.0
C      1  0.4385550000000  0.5144670000000  0.5332110000000 1.0
C      1  0.5374940000000  0.4437510000000  0.4315270000000 1.0
C      1  0.4951690000000  0.5544770000000  0.4621950000000 1.0
C      1  0.4112410000000  0.5359180000000  0.5582420000000 1.0
C      1  0.4825380000000  0.4497180000000  0.5940730000000 1.0
C      1  0.4052790000000  0.5714270000000  0.5007010000000 1.0
C      1  0.4469820000000  0.5300980000000  0.4646620000000 1.0
C      1  0.4117790000000  0.4575850000000  0.4470390000000 1.0
C      1  0.3984310000000  0.4786530000000  0.4615760000000 1.0
C      1  0.4543870000000  0.4409180000000  0.4190990000000 1.0
C      1  0.5369180000000  0.5137560000000  0.5448090000000 1.0
C      1  0.4996330000000  0.4598000000000  0.5500650000000 1.0
C      1  0.4747780000000  0.5559070000000  0.5207020000000 1.0
C      1  0.4895890000000  0.5265980000000  0.5520770000000 1.0
C      1  0.5161290000000  0.5794690000000  0.5537280000000 1.0
C      1  0.5591670000000  0.4749490000000  0.5308610000000 1.0
C      1  0.4959330000000  0.5439310000000  0.5838600000000 1.0
C      1  0.5371310000000  0.5974310000000  0.4525680000000 1.0
C      1  0.4535030000000  0.6008000000000  0.4675140000000 1.0
C      1  0.5567380000000  0.4736220000000  0.6011760000000 1.0
C      1  0.5453300000000  0.4764970000000  0.5064440000000 1.0
C      1  0.5519510000000  0.5026500000000  0.6034410000000 1.0
C      1  0.6074060000000  0.4746130000000  0.4975980000000 1.0
C      1  0.3895150000000  0.5285460000000  0.4695890000000 1.0
C      1  0.5733280000000  0.4253300000000  0.5297760000000 1.0
C      1  0.5384440000000  0.6102190000000  0.5143190000000 1.0
C      1  0.5099730000000  0.4367860000000  0.5913200000000 1.0
C      1  0.6154030000000  0.5241800000000  0.4584110000000 1.0
C      1  0.5062740000000  0.5046580000000  0.3880300000000 1.0
C      1  0.5622660000000  0.5959720000000  0.5013600000000 1.0
C      1  0.6073850000000  0.5735290000000  0.4628180000000 1.0
C      1  0.4930950000000  0.3931290000000  0.5065340000000 1.0
C      1  0.5257230000000  0.5188930000000  0.4801930000000 1.0
C      1  0.4596000000000  0.4515610000000  0.5766300000000 1.0
C      1  0.5919050000000  0.5119040000000  0.5705520000000 1.0
C      1  0.4208340000000  0.4387280000000  0.5478520000000 1.0
C      1  0.4667250000000  0.5785110000000  0.5368410000000 1.0
C      1  0.4281480000000  0.5235230000000  0.4436620000000 1.0
C      1  0.4749310000000  0.4641280000000  0.4825280000000 1.0
C      1  0.4477060000000  0.5045740000000  0.5871550000000 1.0
C      1  0.5055950000000  0.5075600000000  0.4642760000000 1.0
C      1  0.5362630000000  0.6268140000000  0.5331440000000 1.0
C      1  0.4685200000000  0.5097400000000  0.5077520000000 1.0
C      1  0.4365650000000  0.4143440000000  0.4609850000000 1.0
C      1  0.5396160000000  0.5656010000000  0.4267200000000 1.0
C      1  0.5861390000000  0.4223520000000  0.5055120000000 1.0
C      1  0.5283800000000  0.4422790000000  0.4099420000000 1.0
C      1  0.6009980000000  0.5101500000000  0.4391280000000 1.0
C      1  0.4772690000000  0.4858850000000  0.4421410000000 1.0
C      1  0.4607190000000  0.5228400000000  0.4135160000000 1.0
C      1  0.5403990000000  0.5641590000000  0.4775770000000 1.0
C      1  0.5001960000000  0.5456690000000  0.4361590000000 1.0
C      1  0.4984970000000  0.5370700000000  0.3657120000000 1.0
C      1  0.4723120000000  0.5391170000000  0.4642410000000 1.0
C      1  0.5172070000000  0.4689300000000  0.4672010000000 1.0
C      1  0.4950730000000  0.5938130000000  0.5392990000000 1.0
C      1  0.5971020000000  0.5321130000000  0.5499170000000 1.0
C      1  0.5048490000000  0.6067420000000  0.5158040000000 1.0
C      1  0.4148970000000  0.4078380000000  0.5038140000000 1.0
C      1  0.4327750000000  0.4882320000000  0.5460730000000 1.0
C      1  0.4945240000000  0.5022230000000  0.5663390000000 1.0
C      1  0.4944850000000  0.4011470000000  0.5602410000000 1.0
C      1  0.5445910000000  0.3953200000000  0.5020980000000 1.0
C      1  0.4395020000000  0.3986320000000  0.4898610000000 1.0
C      1  0.5570120000000  0.4543380000000  0.4878570000000 1.0
C      1  0.4481100000000  0.5762220000000  0.4526340000000 1.0
C      1  0.4547720000000  0.4155500000000  0.4344070000000 1.0
C      1  0.6004920000000  0.4990350000000  0.5146960000000 1.0
C      1  0.4782330000000  0.5471340000000  0.4176810000000 1.0
C      1  0.5412190000000  0.4112210000000  0.5558430000000 1.0
END
