TITL C-4164245-3996-197 -33.9454108415455 125000 -19234.8827474946 0 0 126 (C1) n - 1
REM
REM in /home/nfs/bkarasulu/CARBON/AIRSS/Generating-Clusters/ReaxFF-fromJPCA2015/Units_Real/with-SteepDescent/Only-C1/SD-CG/Try1-3A/FIRE-CG
REM
REM
REM
REM
REM
REM ./C.cell (11c1c37f851c82e70ff6c80c92926a4b)
REM
REM compiler GCC version 9.2.1 20190827 (Red Hat 9.2.1-1)
REM options -cpp -mtune=generic -march=x86-64 -g -O0 -fpre-include=/usr/include/finclude/math-vector-fortran.h
REM seed -969557805 671961636 1713357954 59236906 1461403805 -1150955473 927653025 -594791891 -2045364017 -528318596 -1236787321 1166007262 282920354 -1283005105 -1513984409 -1654546926 1599521298 -187834549 1000474098 -673705047 1084742669 -811282767 -2084072444 -1695899121 2001053025 1880842288 925207827 175907653 1984961885 -1262777721 -1978006074 1120082299 -277162889
REM
CELL 1.54180   50.00000   50.00000   50.00000   90.00000   90.00000   90.00000
LATT -1
SFAC C  
C      1  0.4919120000000  0.4874790000000  0.5113160000000 1.0
C      1  0.5108640000000  0.5356610000000  0.4663810000000 1.0
C      1  0.4911940000000  0.4610350000000  0.4086490000000 1.0
C      1  0.5484760000000  0.5581680000000  0.4319870000000 1.0
C      1  0.4918370000000  0.5570560000000  0.5018460000000 1.0
C      1  0.5584820000000  0.4912980000000  0.5702160000000 1.0
C      1  0.4380560000000  0.5663690000000  0.4939000000000 1.0
C      1  0.5034960000000  0.5610120000000  0.4151110000000 1.0
C      1  0.5761690000000  0.5166480000000  0.4599410000000 1.0
C      1  0.4547660000000  0.5772350000000  0.5153110000000 1.0
C      1  0.5404430000000  0.5811800000000  0.4735710000000 1.0
C      1  0.5128800000000  0.4925630000000  0.5937290000000 1.0
C      1  0.4322660000000  0.4322990000000  0.5085790000000 1.0
C      1  0.5340440000000  0.5371750000000  0.5785190000000 1.0
C      1  0.5343900000000  0.5288940000000  0.4810700000000 1.0
C      1  0.5040240000000  0.5267540000000  0.5358940000000 1.0
C      1  0.4433380000000  0.5337520000000  0.5733490000000 1.0
C      1  0.4526390000000  0.4489000000000  0.5682070000000 1.0
C      1  0.5731560000000  0.4719370000000  0.4490230000000 1.0
C      1  0.4832380000000  0.4916150000000  0.5397730000000 1.0
C      1  0.5410390000000  0.5382560000000  0.5075990000000 1.0
C      1  0.5110480000000  0.5971700000000  0.5442980000000 1.0
C      1  0.5348920000000  0.4839870000000  0.4787410000000 1.0
C      1  0.5337280000000  0.4787380000000  0.5781000000000 1.0
C      1  0.4957560000000  0.5151860000000  0.4098170000000 1.0
C      1  0.4841780000000  0.4587940000000  0.5010950000000 1.0
C      1  0.4903370000000  0.3986380000000  0.5310680000000 1.0
C      1  0.4397100000000  0.4786430000000  0.4937460000000 1.0
C      1  0.5726770000000  0.5573160000000  0.5387320000000 1.0
C      1  0.5331190000000  0.4898540000000  0.5311750000000 1.0
C      1  0.4883910000000  0.4154670000000  0.5553700000000 1.0
C      1  0.4109440000000  0.5299730000000  0.5380040000000 1.0
C      1  0.5778290000000  0.4987490000000  0.4370840000000 1.0
C      1  0.5817980000000  0.4680040000000  0.4762610000000 1.0
C      1  0.5173500000000  0.5863050000000  0.4567250000000 1.0
C      1  0.4479450000000  0.4984070000000  0.5115100000000 1.0
C      1  0.4592610000000  0.4928360000000  0.5936210000000 1.0
C      1  0.4633320000000  0.4673730000000  0.4137110000000 1.0
C      1  0.5276800000000  0.5609120000000  0.5636710000000 1.0
C      1  0.4526090000000  0.5666800000000  0.5421910000000 1.0
C      1  0.5433850000000  0.5330910000000  0.4179790000000 1.0
C      1  0.4703210000000  0.4095010000000  0.4829960000000 1.0
C      1  0.4670400000000  0.5713590000000  0.4491780000000 1.0
C      1  0.4485020000000  0.4608470000000  0.4522780000000 1.0
C      1  0.4882030000000  0.5234930000000  0.5808580000000 1.0
C      1  0.5340930000000  0.5197110000000  0.5324760000000 1.0
C      1  0.4956010000000  0.4872620000000  0.4466580000000 1.0
C      1  0.5741110000000  0.4736290000000  0.5520350000000 1.0
C      1  0.4682500000000  0.5179230000000  0.4697100000000 1.0
C      1  0.5075570000000  0.4254910000000  0.4454050000000 1.0
C      1  0.5138720000000  0.4704710000000  0.4640820000000 1.0
C      1  0.5538040000000  0.4521610000000  0.5517090000000 1.0
C      1  0.4807990000000  0.4567760000000  0.5744580000000 1.0
C      1  0.5505130000000  0.5648470000000  0.4993120000000 1.0
C      1  0.4961710000000  0.4083830000000  0.4676250000000 1.0
C      1  0.5027250000000  0.5761240000000  0.5612810000000 1.0
C      1  0.4447460000000  0.5044330000000  0.5711140000000 1.0
C      1  0.5270800000000  0.4288800000000  0.4882720000000 1.0
C      1  0.4824070000000  0.5831850000000  0.5057610000000 1.0
C      1  0.4127180000000  0.4544160000000  0.5112040000000 1.0
C      1  0.4978190000000  0.5567230000000  0.4771040000000 1.0
C      1  0.4481130000000  0.4284890000000  0.4840320000000 1.0
C      1  0.4325110000000  0.5468290000000  0.5501240000000 1.0
C      1  0.5882780000000  0.4872300000000  0.5003080000000 1.0
C      1  0.4763130000000  0.5560640000000  0.4254940000000 1.0
C      1  0.5159090000000  0.5357860000000  0.4069460000000 1.0
C      1  0.5488180000000  0.4606220000000  0.4351190000000 1.0
C      1  0.4933580000000  0.5117000000000  0.5548710000000 1.0
C      1  0.4887760000000  0.4369400000000  0.4261260000000 1.0
C      1  0.5375680000000  0.4820310000000  0.4193460000000 1.0
C      1  0.5072600000000  0.4861030000000  0.4156310000000 1.0
C      1  0.5542460000000  0.5056670000000  0.4200980000000 1.0
C      1  0.4242710000000  0.5195740000000  0.4458760000000 1.0
C      1  0.4855620000000  0.5333200000000  0.5147100000000 1.0
C      1  0.5144590000000  0.5221340000000  0.5935620000000 1.0
C      1  0.4050440000000  0.5251650000000  0.5101980000000 1.0
C      1  0.5593780000000  0.4262980000000  0.5348510000000 1.0
C      1  0.5158030000000  0.4015580000000  0.4881210000000 1.0
C      1  0.4374550000000  0.4686630000000  0.5514070000000 1.0
C      1  0.5274270000000  0.4655730000000  0.5508900000000 1.0
C      1  0.4971070000000  0.4457720000000  0.5512970000000 1.0
C      1  0.4896000000000  0.5811980000000  0.4657450000000 1.0
C      1  0.5045020000000  0.5981420000000  0.5182130000000 1.0
C      1  0.5164850000000  0.3940960000000  0.5174270000000 1.0
C      1  0.4191390000000  0.5433630000000  0.4916120000000 1.0
C      1  0.5681380000000  0.4307440000000  0.5079900000000 1.0
C      1  0.4427590000000  0.5654790000000  0.4641460000000 1.0
C      1  0.4550540000000  0.5124220000000  0.4432550000000 1.0
C      1  0.5383710000000  0.4087060000000  0.5271460000000 1.0
C      1  0.4728650000000  0.5275060000000  0.4214400000000 1.0
C      1  0.5904510000000  0.5173540000000  0.5047660000000 1.0
C      1  0.5490470000000  0.5073220000000  0.4672080000000 1.0
C      1  0.4687900000000  0.4034400000000  0.5119050000000 1.0
C      1  0.5535560000000  0.5204960000000  0.5619740000000 1.0
C      1  0.5357130000000  0.4355910000000  0.4448030000000 1.0
C      1  0.5894060000000  0.5330710000000  0.4805260000000 1.0
C      1  0.5498460000000  0.4285380000000  0.4690800000000 1.0
C      1  0.4536390000000  0.4923300000000  0.5404830000000 1.0
C      1  0.5242480000000  0.5746430000000  0.4306080000000 1.0
C      1  0.5454060000000  0.5682640000000  0.5411380000000 1.0
C      1  0.4941790000000  0.5145580000000  0.4586930000000 1.0
C      1  0.4695990000000  0.5130660000000  0.4993860000000 1.0
C      1  0.4134590000000  0.4720190000000  0.4870340000000 1.0
C      1  0.4862890000000  0.4790660000000  0.5922530000000 1.0
C      1  0.4057610000000  0.5020040000000  0.5297440000000 1.0
C      1  0.5884710000000  0.5346660000000  0.5284550000000 1.0
C      1  0.4219140000000  0.5439760000000  0.4621360000000 1.0
C      1  0.4785900000000  0.4452220000000  0.5278010000000 1.0
C      1  0.4608420000000  0.4196660000000  0.5670130000000 1.0
C      1  0.4749010000000  0.5673430000000  0.5619970000000 1.0
C      1  0.4600050000000  0.4434190000000  0.4296670000000 1.0
C      1  0.4633150000000  0.4831330000000  0.4392200000000 1.0
C      1  0.5215170000000  0.4867310000000  0.5052650000000 1.0
C      1  0.5747660000000  0.5585760000000  0.4817380000000 1.0
C      1  0.4150090000000  0.4945910000000  0.4528230000000 1.0
C      1  0.5748900000000  0.4399760000000  0.4822640000000 1.0
C      1  0.4179290000000  0.4681500000000  0.4581680000000 1.0
C      1  0.4143120000000  0.4733610000000  0.5340420000000 1.0
C      1  0.5609600000000  0.5684030000000  0.4574870000000 1.0
C      1  0.4557110000000  0.4266120000000  0.5251830000000 1.0
C      1  0.5818600000000  0.4812710000000  0.5255250000000 1.0
C      1  0.5071200000000  0.4500610000000  0.4832510000000 1.0
C      1  0.5320540000000  0.5898220000000  0.5261910000000 1.0
C      1  0.4691100000000  0.5458340000000  0.5802480000000 1.0
C      1  0.5775460000000  0.5346840000000  0.5536190000000 1.0
C      1  0.4562060000000  0.4585400000000  0.4819390000000 1.0
END
