TITL C-4164237-1827-244 -28.1352245241593 125000 -17688.3782320753 0 0 117 (C1) n - 1
REM
REM in /home/nfs/bkarasulu/CARBON/AIRSS/Generating-Clusters/ReaxFF-fromJPCA2015/Units_Real/with-SteepDescent/Only-C1/SD-CG/Try1-3A/FIRE-CG
REM
REM
REM
REM
REM
REM ./C.cell (11c1c37f851c82e70ff6c80c92926a4b)
REM
REM compiler GCC version 9.2.1 20190827 (Red Hat 9.2.1-1)
REM options -cpp -mtune=generic -march=x86-64 -g -O0 -fpre-include=/usr/include/finclude/math-vector-fortran.h
REM seed -1598870974 -1964707058 -1328990860 -2146703289 2065913256 1603090333 -14252624 948434428 183975163 -1650994616 547969102 772474517 1298414208 -1501297446 -1375278393 723305448 -783370114 -1811554760 183152521 -45209203 -91320788 19469136 -543765028 -204987602 -1616111103 -1104858643 381043894 583680798 1204926968 -295979303 -1374465132 462395590 -1432808292
REM
CELL 1.54180   50.00000   50.00000   50.00000   90.00000   90.00000   90.00000
LATT -1
SFAC C  
C      1  0.4921270000000  0.4187590000000  0.5540930000000 1.0
C      1  0.5263030000000  0.5338930000000  0.4980270000000 1.0
C      1  0.4491260000000  0.4950400000000  0.5117810000000 1.0
C      1  0.5279630000000  0.5336370000000  0.6025070000000 1.0
C      1  0.4680600000000  0.5981960000000  0.4783860000000 1.0
C      1  0.4073410000000  0.5238190000000  0.5284080000000 1.0
C      1  0.4541420000000  0.4774400000000  0.5667440000000 1.0
C      1  0.5333660000000  0.5792870000000  0.4777850000000 1.0
C      1  0.4217710000000  0.5316870000000  0.4595730000000 1.0
C      1  0.5665840000000  0.5002070000000  0.4418410000000 1.0
C      1  0.5625720000000  0.5277110000000  0.5594340000000 1.0
C      1  0.4329800000000  0.4538470000000  0.5294960000000 1.0
C      1  0.5073870000000  0.4770970000000  0.5829180000000 1.0
C      1  0.4500950000000  0.4282190000000  0.4868780000000 1.0
C      1  0.4859380000000  0.5958270000000  0.4569430000000 1.0
C      1  0.4501920000000  0.5659930000000  0.4352380000000 1.0
C      1  0.4826340000000  0.4831300000000  0.4167370000000 1.0
C      1  0.4033440000000  0.4966920000000  0.5159310000000 1.0
C      1  0.5502650000000  0.5514320000000  0.5464290000000 1.0
C      1  0.4442890000000  0.5266580000000  0.5708420000000 1.0
C      1  0.4766810000000  0.4257410000000  0.4992210000000 1.0
C      1  0.4887900000000  0.4556670000000  0.4574180000000 1.0
C      1  0.5714360000000  0.5445480000000  0.4765030000000 1.0
C      1  0.4121540000000  0.5050240000000  0.4635180000000 1.0
C      1  0.4933700000000  0.4390780000000  0.4341440000000 1.0
C      1  0.4131630000000  0.4610920000000  0.4844170000000 1.0
C      1  0.5879520000000  0.5015970000000  0.4921270000000 1.0
C      1  0.4873990000000  0.5474880000000  0.5829510000000 1.0
C      1  0.4500790000000  0.4529550000000  0.5546910000000 1.0
C      1  0.4250920000000  0.5383960000000  0.5096280000000 1.0
C      1  0.5470810000000  0.5546810000000  0.5164380000000 1.0
C      1  0.4155600000000  0.4573170000000  0.4553280000000 1.0
C      1  0.4681400000000  0.5701330000000  0.5516320000000 1.0
C      1  0.4882070000000  0.5303140000000  0.4613000000000 1.0
C      1  0.5385080000000  0.4593160000000  0.4778580000000 1.0
C      1  0.5674150000000  0.5161030000000  0.4182310000000 1.0
C      1  0.5213250000000  0.4399510000000  0.4245850000000 1.0
C      1  0.5222130000000  0.4683800000000  0.5378260000000 1.0
C      1  0.5929610000000  0.4593810000000  0.5403290000000 1.0
C      1  0.5442520000000  0.4384660000000  0.5630560000000 1.0
C      1  0.5984820000000  0.4737440000000  0.4925800000000 1.0
C      1  0.5397290000000  0.5547000000000  0.4375470000000 1.0
C      1  0.4424810000000  0.4784560000000  0.4305060000000 1.0
C      1  0.5404380000000  0.5120010000000  0.4838270000000 1.0
C      1  0.4691350000000  0.5274390000000  0.5297010000000 1.0
C      1  0.4251620000000  0.5255600000000  0.5503610000000 1.0
C      1  0.5107010000000  0.5576070000000  0.4372500000000 1.0
C      1  0.5113680000000  0.4846010000000  0.4042550000000 1.0
C      1  0.4973850000000  0.4499230000000  0.5819650000000 1.0
C      1  0.5477700000000  0.5260800000000  0.5833810000000 1.0
C      1  0.5755280000000  0.5064470000000  0.5429480000000 1.0
C      1  0.5313770000000  0.4164480000000  0.4396520000000 1.0
C      1  0.4190190000000  0.5499290000000  0.4828260000000 1.0
C      1  0.5824400000000  0.5171530000000  0.5160790000000 1.0
C      1  0.5318080000000  0.4668480000000  0.4212080000000 1.0
C      1  0.5780160000000  0.4403430000000  0.5225310000000 1.0
C      1  0.4411910000000  0.4500160000000  0.4430630000000 1.0
C      1  0.5115920000000  0.5896760000000  0.5239630000000 1.0
C      1  0.5331390000000  0.5806860000000  0.5068020000000 1.0
C      1  0.4828380000000  0.4808280000000  0.4463320000000 1.0
C      1  0.4741330000000  0.4393240000000  0.5659650000000 1.0
C      1  0.5176420000000  0.4863290000000  0.5171580000000 1.0
C      1  0.5817990000000  0.4479770000000  0.4940900000000 1.0
C      1  0.5525480000000  0.4316820000000  0.5352290000000 1.0
C      1  0.5276880000000  0.4803310000000  0.5636380000000 1.0
C      1  0.4900650000000  0.5370570000000  0.4335520000000 1.0
C      1  0.6081820000000  0.4682450000000  0.5183760000000 1.0
C      1  0.5519980000000  0.4669040000000  0.5666870000000 1.0
C      1  0.4588120000000  0.5008280000000  0.5783240000000 1.0
C      1  0.4626310000000  0.5279850000000  0.4239720000000 1.0
C      1  0.4562250000000  0.4295500000000  0.4582260000000 1.0
C      1  0.5019620000000  0.4907780000000  0.4796430000000 1.0
C      1  0.5444840000000  0.4810960000000  0.4429010000000 1.0
C      1  0.4836580000000  0.5056200000000  0.5375590000000 1.0
C      1  0.5038800000000  0.5115470000000  0.5573320000000 1.0
C      1  0.4992760000000  0.5270900000000  0.5997850000000 1.0
C      1  0.5076450000000  0.5731420000000  0.4628490000000 1.0
C      1  0.4814600000000  0.4165350000000  0.4476630000000 1.0
C      1  0.5251910000000  0.4122340000000  0.4800660000000 1.0
C      1  0.4906440000000  0.5018850000000  0.5850180000000 1.0
C      1  0.4334680000000  0.5761980000000  0.4839220000000 1.0
C      1  0.5521930000000  0.5626860000000  0.4635190000000 1.0
C      1  0.5621930000000  0.4434790000000  0.4726560000000 1.0
C      1  0.4817720000000  0.5511920000000  0.5319340000000 1.0
C      1  0.5718600000000  0.5147180000000  0.4705970000000 1.0
C      1  0.4305210000000  0.4447160000000  0.5018670000000 1.0
C      1  0.4605920000000  0.5791020000000  0.4978730000000 1.0
C      1  0.5088010000000  0.4066380000000  0.4565230000000 1.0
C      1  0.5330130000000  0.5634210000000  0.5937040000000 1.0
C      1  0.5042130000000  0.5413180000000  0.5573600000000 1.0
C      1  0.5743870000000  0.4792090000000  0.5531090000000 1.0
C      1  0.4591050000000  0.4993400000000  0.4166280000000 1.0
C      1  0.4604940000000  0.5522420000000  0.5734870000000 1.0
C      1  0.4165720000000  0.4843730000000  0.4427330000000 1.0
C      1  0.4993080000000  0.5468340000000  0.4836940000000 1.0
C      1  0.4779530000000  0.5551460000000  0.5027520000000 1.0
C      1  0.4511240000000  0.5240510000000  0.5084090000000 1.0
C      1  0.5729360000000  0.5430420000000  0.5050720000000 1.0
C      1  0.4845330000000  0.4170920000000  0.5257070000000 1.0
C      1  0.4387310000000  0.5407160000000  0.4360330000000 1.0
C      1  0.5487540000000  0.4183260000000  0.4640320000000 1.0
C      1  0.5291530000000  0.4859960000000  0.4708860000000 1.0
C      1  0.4267320000000  0.4821680000000  0.5261160000000 1.0
C      1  0.4741950000000  0.4849650000000  0.5207080000000 1.0
C      1  0.4050070000000  0.4891140000000  0.4879780000000 1.0
C      1  0.5179370000000  0.5004210000000  0.3846310000000 1.0
C      1  0.4817100000000  0.5029820000000  0.4647720000000 1.0
C      1  0.5324300000000  0.5091030000000  0.5111300000000 1.0
C      1  0.5551520000000  0.5350970000000  0.4229160000000 1.0
C      1  0.4897050000000  0.5890470000000  0.5437350000000 1.0
C      1  0.5216590000000  0.4404930000000  0.4929780000000 1.0
C      1  0.4933220000000  0.4483030000000  0.4863820000000 1.0
C      1  0.4947900000000  0.4771970000000  0.5020570000000 1.0
C      1  0.5288390000000  0.5599620000000  0.5640390000000 1.0
C      1  0.5286420000000  0.4435520000000  0.5244320000000 1.0
C      1  0.4644140000000  0.5873890000000  0.4407870000000 1.0
C      1  0.5160120000000  0.4315430000000  0.5688440000000 1.0
END
