TITL C-4164236-1577-256 8.87972286429293 125000 -8589.19986313045 0 0 59 (C1) n - 1
REM
REM in /home/nfs/bkarasulu/CARBON/AIRSS/Generating-Clusters/ReaxFF-fromJPCA2015/Units_Real/with-SteepDescent/Only-C1/SD-CG/Try1-3A/FIRE-CG
REM
REM
REM
REM
REM
REM ./C.cell (11c1c37f851c82e70ff6c80c92926a4b)
REM
REM compiler GCC version 9.2.1 20190827 (Red Hat 9.2.1-1)
REM options -cpp -mtune=generic -march=x86-64 -g -O0 -fpre-include=/usr/include/finclude/math-vector-fortran.h
REM seed 506866348 152472148 1121568644 -1655304443 -1895723036 1780976769 -1604557210 204700374 -640322337 -1826784919 -1360138507 90166179 314934923 394902173 -1818513298 1274996426 780162569 -1050095810 -1874495676 1687416802 309579077 -1005356749 -1715385248 -212940616 -270265543 -1929141937 -275192894 -1060301320 -404814803 228403973 150989493 1680617800 -1075930178
REM
CELL 1.54180   50.00000   50.00000   50.00000   90.00000   90.00000   90.00000
LATT -1
SFAC C  
C      1  0.5221850000000  0.5030060000000  0.5755770000000 1.0
C      1  0.5348490000000  0.5607350000000  0.4993700000000 1.0
C      1  0.4866670000000  0.4551800000000  0.5468540000000 1.0
C      1  0.5255460000000  0.5084860000000  0.5145940000000 1.0
C      1  0.4858340000000  0.4603660000000  0.4435290000000 1.0
C      1  0.4269280000000  0.5295140000000  0.4663710000000 1.0
C      1  0.4967030000000  0.5317270000000  0.4463090000000 1.0
C      1  0.4352600000000  0.4585580000000  0.4828740000000 1.0
C      1  0.5058440000000  0.4987220000000  0.5296230000000 1.0
C      1  0.4990740000000  0.4658150000000  0.4935860000000 1.0
C      1  0.4808430000000  0.5567270000000  0.4921740000000 1.0
C      1  0.5138990000000  0.5561670000000  0.4512800000000 1.0
C      1  0.5545950000000  0.5192810000000  0.5197780000000 1.0
C      1  0.4387660000000  0.5136720000000  0.5306030000000 1.0
C      1  0.4930340000000  0.5055200000000  0.5713360000000 1.0
C      1  0.5110850000000  0.4454600000000  0.5356710000000 1.0
C      1  0.4789000000000  0.5295110000000  0.4700570000000 1.0
C      1  0.4616450000000  0.4381710000000  0.5422680000000 1.0
C      1  0.5013710000000  0.4376090000000  0.5067400000000 1.0
C      1  0.5022930000000  0.5056240000000  0.4342600000000 1.0
C      1  0.4283900000000  0.5008140000000  0.5074410000000 1.0
C      1  0.5367880000000  0.5531850000000  0.4706950000000 1.0
C      1  0.5380130000000  0.4254150000000  0.4696880000000 1.0
C      1  0.5347030000000  0.5458310000000  0.5467070000000 1.0
C      1  0.5656070000000  0.4665820000000  0.5111070000000 1.0
C      1  0.5079670000000  0.5566670000000  0.5379070000000 1.0
C      1  0.5596790000000  0.5038090000000  0.5437680000000 1.0
C      1  0.4389720000000  0.5394010000000  0.5164470000000 1.0
C      1  0.4737800000000  0.4280240000000  0.5170940000000 1.0
C      1  0.4779620000000  0.4842990000000  0.4933940000000 1.0
C      1  0.4511290000000  0.5115490000000  0.4641310000000 1.0
C      1  0.4349090000000  0.5180250000000  0.4420330000000 1.0
C      1  0.5296300000000  0.4931030000000  0.4352030000000 1.0
C      1  0.5212990000000  0.4775670000000  0.4792160000000 1.0
C      1  0.5418950000000  0.5203820000000  0.5603320000000 1.0
C      1  0.5206550000000  0.5061880000000  0.4834610000000 1.0
C      1  0.5289260000000  0.4774540000000  0.5656330000000 1.0
C      1  0.5084940000000  0.5638600000000  0.5101620000000 1.0
C      1  0.4579070000000  0.5059500000000  0.5491250000000 1.0
C      1  0.5097790000000  0.4261000000000  0.4768550000000 1.0
C      1  0.5593970000000  0.4743460000000  0.5377200000000 1.0
C      1  0.4744500000000  0.5259010000000  0.5615630000000 1.0
C      1  0.5334080000000  0.4699410000000  0.4542450000000 1.0
C      1  0.4802070000000  0.5481440000000  0.5423770000000 1.0
C      1  0.4257600000000  0.5258210000000  0.4940590000000 1.0
C      1  0.4650410000000  0.5523700000000  0.5182450000000 1.0
C      1  0.5646630000000  0.4596630000000  0.4892150000000 1.0
C      1  0.5475210000000  0.5137110000000  0.4426250000000 1.0
C      1  0.5537540000000  0.4510100000000  0.4639250000000 1.0
C      1  0.5497530000000  0.5480790000000  0.5218370000000 1.0
C      1  0.4796580000000  0.4866110000000  0.4331980000000 1.0
C      1  0.5423950000000  0.5246380000000  0.4671340000000 1.0
C      1  0.4836630000000  0.4877290000000  0.5465430000000 1.0
C      1  0.4528790000000  0.4968000000000  0.4384120000000 1.0
C      1  0.4461220000000  0.4784070000000  0.4954000000000 1.0
C      1  0.4954400000000  0.4406820000000  0.4572510000000 1.0
C      1  0.4974680000000  0.5675460000000  0.4710780000000 1.0
C      1  0.5357060000000  0.4572680000000  0.5480120000000 1.0
C      1  0.4909080000000  0.5072760000000  0.4839090000000 1.0
END
