TITL C-4164239-2837-745 -5.22242318220583 125000 -28012.5383656926 0 0 185 (C1) n - 1
REM
REM in /home/nfs/bkarasulu/CARBON/AIRSS/Generating-Clusters/ReaxFF-fromJPCA2015/Units_Real/with-SteepDescent/Only-C1/SD-CG/Try1-3A/FIRE-CG
REM
REM
REM
REM
REM
REM ./C.cell (11c1c37f851c82e70ff6c80c92926a4b)
REM
REM compiler GCC version 9.2.1 20190827 (Red Hat 9.2.1-1)
REM options -cpp -mtune=generic -march=x86-64 -g -O0 -fpre-include=/usr/include/finclude/math-vector-fortran.h
REM seed -1678057792 1424465717 -911909848 -893389579 930054418 -1205222582 1647794185 -1319349736 -342818226 -145493329 1680972515 1123989949 1542007704 -414233559 1965538480 -782654005 -2012458136 1558525472 1816401594 712712584 -651789876 1306151355 -1616357552 -1544675604 338852926 1181357599 125941400 -1160362466 539937744 560963007 639714676 2012389735 -1296704084
REM
CELL 1.54180   50.00000   50.00000   50.00000   90.00000   90.00000   90.00000
LATT -1
SFAC C  
C      1  0.4852610000000  0.5187310000000  0.5073900000000 1.0
C      1  0.4972600000000  0.5322950000000  0.4535910000000 1.0
C      1  0.6148920000000  0.4920060000000  0.5023700000000 1.0
C      1  0.4750320000000  0.5977570000000  0.5384480000000 1.0
C      1  0.4241850000000  0.5580600000000  0.4359350000000 1.0
C      1  0.5499530000000  0.4921170000000  0.4557880000000 1.0
C      1  0.4874800000000  0.4192490000000  0.4288500000000 1.0
C      1  0.5158810000000  0.3947420000000  0.5166520000000 1.0
C      1  0.5559890000000  0.4117290000000  0.4424550000000 1.0
C      1  0.5399080000000  0.5992450000000  0.5138150000000 1.0
C      1  0.4272020000000  0.5637860000000  0.5765560000000 1.0
C      1  0.4546470000000  0.4442710000000  0.4808510000000 1.0
C      1  0.4526730000000  0.5734900000000  0.4962210000000 1.0
C      1  0.4444250000000  0.4023400000000  0.4490220000000 1.0
C      1  0.5083190000000  0.5879860000000  0.5740580000000 1.0
C      1  0.4425280000000  0.4183390000000  0.4737700000000 1.0
C      1  0.5323970000000  0.6021940000000  0.5421140000000 1.0
C      1  0.4265430000000  0.4207240000000  0.5156970000000 1.0
C      1  0.4338750000000  0.5182270000000  0.5032550000000 1.0
C      1  0.4543750000000  0.5308040000000  0.4602880000000 1.0
C      1  0.4944380000000  0.5100230000000  0.4771650000000 1.0
C      1  0.5668810000000  0.5524200000000  0.5102760000000 1.0
C      1  0.4464270000000  0.5468410000000  0.5155350000000 1.0
C      1  0.5133590000000  0.4226950000000  0.5243370000000 1.0
C      1  0.6126700000000  0.5221950000000  0.4480070000000 1.0
C      1  0.4664720000000  0.3836050000000  0.4514910000000 1.0
C      1  0.5367480000000  0.6022060000000  0.4458320000000 1.0
C      1  0.4244680000000  0.5300460000000  0.4262830000000 1.0
C      1  0.4614150000000  0.4805080000000  0.6057000000000 1.0
C      1  0.4843890000000  0.5721200000000  0.3884400000000 1.0
C      1  0.5772200000000  0.4834950000000  0.4500100000000 1.0
C      1  0.4445240000000  0.5173870000000  0.4077590000000 1.0
C      1  0.3974460000000  0.5544380000000  0.4809340000000 1.0
C      1  0.4619200000000  0.4892750000000  0.5360600000000 1.0
C      1  0.5163150000000  0.4168240000000  0.4227920000000 1.0
C      1  0.4774190000000  0.6092060000000  0.4647730000000 1.0
C      1  0.5483660000000  0.4687230000000  0.5014000000000 1.0
C      1  0.5787600000000  0.5714470000000  0.5532300000000 1.0
C      1  0.4862020000000  0.4210230000000  0.4579750000000 1.0
C      1  0.4578170000000  0.4679560000000  0.4606180000000 1.0
C      1  0.4241930000000  0.5345200000000  0.5754110000000 1.0
C      1  0.5997970000000  0.4202980000000  0.5119420000000 1.0
C      1  0.6054950000000  0.5469510000000  0.4633870000000 1.0
C      1  0.4699450000000  0.4491420000000  0.5053860000000 1.0
C      1  0.5640230000000  0.5821740000000  0.5091070000000 1.0
C      1  0.5765140000000  0.4019380000000  0.5103770000000 1.0
C      1  0.5247630000000  0.4494370000000  0.5993440000000 1.0
C      1  0.5455560000000  0.5367800000000  0.4146850000000 1.0
C      1  0.5360360000000  0.4949930000000  0.6186930000000 1.0
C      1  0.5609110000000  0.3946590000000  0.4872540000000 1.0
C      1  0.4692460000000  0.4615990000000  0.5320910000000 1.0
C      1  0.3899470000000  0.4900960000000  0.5164710000000 1.0
C      1  0.5156520000000  0.5147350000000  0.6206600000000 1.0
C      1  0.5170300000000  0.4440930000000  0.5078030000000 1.0
C      1  0.4736080000000  0.5254160000000  0.4075540000000 1.0
C      1  0.5092160000000  0.5576330000000  0.4527260000000 1.0
C      1  0.5417950000000  0.5069740000000  0.4234630000000 1.0
C      1  0.5822960000000  0.5248860000000  0.5631230000000 1.0
C      1  0.5289340000000  0.3998790000000  0.4429970000000 1.0
C      1  0.5944670000000  0.5438000000000  0.5169270000000 1.0
C      1  0.5166460000000  0.3893570000000  0.4674890000000 1.0
C      1  0.5618910000000  0.5584670000000  0.4264770000000 1.0
C      1  0.4224370000000  0.4863710000000  0.5823410000000 1.0
C      1  0.4986900000000  0.5027950000000  0.3976900000000 1.0
C      1  0.5797540000000  0.5594230000000  0.4513880000000 1.0
C      1  0.3995150000000  0.4634050000000  0.5238120000000 1.0
C      1  0.4447150000000  0.4887390000000  0.4023980000000 1.0
C      1  0.5030990000000  0.4775410000000  0.4393410000000 1.0
C      1  0.4718720000000  0.4887840000000  0.4793460000000 1.0
C      1  0.5198140000000  0.5171800000000  0.3766840000000 1.0
C      1  0.4369680000000  0.4959940000000  0.5243570000000 1.0
C      1  0.4069370000000  0.5281380000000  0.4889860000000 1.0
C      1  0.6117710000000  0.5416450000000  0.4928570000000 1.0
C      1  0.4268450000000  0.5762730000000  0.5496640000000 1.0
C      1  0.4572450000000  0.5585410000000  0.4685870000000 1.0
C      1  0.5087440000000  0.5085300000000  0.5487580000000 1.0
C      1  0.5562060000000  0.5889270000000  0.5508610000000 1.0
C      1  0.4362550000000  0.5117560000000  0.5900670000000 1.0
C      1  0.5535430000000  0.5211820000000  0.5611810000000 1.0
C      1  0.5380720000000  0.5095290000000  0.5372340000000 1.0
C      1  0.5216580000000  0.5153080000000  0.4882300000000 1.0
C      1  0.6099990000000  0.4653540000000  0.5088040000000 1.0
C      1  0.5316000000000  0.3891970000000  0.4914560000000 1.0
C      1  0.4975800000000  0.5574550000000  0.5330400000000 1.0
C      1  0.5876090000000  0.4365830000000  0.4678250000000 1.0
C      1  0.4499750000000  0.5818380000000  0.5842640000000 1.0
C      1  0.5394080000000  0.4724970000000  0.4736450000000 1.0
C      1  0.5185410000000  0.4617260000000  0.4585890000000 1.0
C      1  0.4518780000000  0.5097820000000  0.4801050000000 1.0
C      1  0.5559300000000  0.4670970000000  0.5509560000000 1.0
C      1  0.4569650000000  0.4170990000000  0.5602580000000 1.0
C      1  0.5184360000000  0.5887840000000  0.4940210000000 1.0
C      1  0.4998260000000  0.5802450000000  0.4351250000000 1.0
C      1  0.5392060000000  0.5392020000000  0.5198660000000 1.0
C      1  0.4069870000000  0.5823900000000  0.4779290000000 1.0
C      1  0.5366140000000  0.5555200000000  0.5946960000000 1.0
C      1  0.5506800000000  0.5831040000000  0.4340940000000 1.0
C      1  0.4332080000000  0.4607070000000  0.5752230000000 1.0
C      1  0.4900540000000  0.5205090000000  0.6009900000000 1.0
C      1  0.4952550000000  0.4581520000000  0.4938150000000 1.0
C      1  0.5845400000000  0.4747900000000  0.5542710000000 1.0
C      1  0.4222480000000  0.4745910000000  0.5388230000000 1.0
C      1  0.5781370000000  0.4545070000000  0.4466780000000 1.0
C      1  0.4091970000000  0.4438710000000  0.5049880000000 1.0
C      1  0.5443480000000  0.4841480000000  0.4019420000000 1.0
C      1  0.4331670000000  0.5928990000000  0.4845960000000 1.0
C      1  0.5223940000000  0.5425500000000  0.4973290000000 1.0
C      1  0.4495820000000  0.5994900000000  0.4610810000000 1.0
C      1  0.6028650000000  0.4413280000000  0.4922040000000 1.0
C      1  0.5181300000000  0.6180080000000  0.4597600000000 1.0
C      1  0.4886200000000  0.5001330000000  0.5297230000000 1.0
C      1  0.5463300000000  0.4818550000000  0.5273770000000 1.0
C      1  0.4724740000000  0.3939360000000  0.5023810000000 1.0
C      1  0.5968940000000  0.4320600000000  0.5385210000000 1.0
C      1  0.5044340000000  0.4351550000000  0.5476640000000 1.0
C      1  0.5123420000000  0.5731400000000  0.5970340000000 1.0
C      1  0.4684040000000  0.4533150000000  0.6023170000000 1.0
C      1  0.6174980000000  0.5148540000000  0.4980100000000 1.0
C      1  0.4862200000000  0.3924810000000  0.4730960000000 1.0
C      1  0.4039210000000  0.4855010000000  0.5594990000000 1.0
C      1  0.4753100000000  0.5404310000000  0.5238290000000 1.0
C      1  0.5887800000000  0.5081070000000  0.4602790000000 1.0
C      1  0.4050540000000  0.5121080000000  0.4391730000000 1.0
C      1  0.4898590000000  0.5521720000000  0.6022170000000 1.0
C      1  0.5285000000000  0.4288750000000  0.5800150000000 1.0
C      1  0.5466550000000  0.4716050000000  0.6065780000000 1.0
C      1  0.4112880000000  0.4626570000000  0.4323210000000 1.0
C      1  0.5293760000000  0.5616170000000  0.4752200000000 1.0
C      1  0.4109040000000  0.5306080000000  0.5489520000000 1.0
C      1  0.5236050000000  0.4635320000000  0.4002300000000 1.0
C      1  0.4931630000000  0.5457860000000  0.3925010000000 1.0
C      1  0.4752270000000  0.5913190000000  0.5100200000000 1.0
C      1  0.4650990000000  0.4002890000000  0.4273920000000 1.0
C      1  0.4025270000000  0.5657790000000  0.4540120000000 1.0
C      1  0.5247250000000  0.5514360000000  0.5416370000000 1.0
C      1  0.5700840000000  0.4242330000000  0.5491070000000 1.0
C      1  0.4087180000000  0.4611770000000  0.4815620000000 1.0
C      1  0.5668730000000  0.4855910000000  0.5919950000000 1.0
C      1  0.6036530000000  0.4600410000000  0.5374930000000 1.0
C      1  0.3990900000000  0.4882520000000  0.4236370000000 1.0
C      1  0.4691040000000  0.4709990000000  0.4075370000000 1.0
C      1  0.5465510000000  0.5120990000000  0.4751100000000 1.0
C      1  0.4520880000000  0.5911190000000  0.5548410000000 1.0
C      1  0.5333660000000  0.4397490000000  0.4160740000000 1.0
C      1  0.4756410000000  0.4681300000000  0.4353260000000 1.0
C      1  0.5377060000000  0.5450030000000  0.5665170000000 1.0
C      1  0.5333230000000  0.5339660000000  0.6121540000000 1.0
C      1  0.5726160000000  0.4108080000000  0.4658820000000 1.0
C      1  0.5587660000000  0.5518750000000  0.4686670000000 1.0
C      1  0.4959120000000  0.6096290000000  0.4412860000000 1.0
C      1  0.4984290000000  0.5738300000000  0.5085690000000 1.0
C      1  0.5447180000000  0.4404470000000  0.5062020000000 1.0
C      1  0.5018550000000  0.4416450000000  0.4704060000000 1.0
C      1  0.4880120000000  0.3913470000000  0.5261730000000 1.0
C      1  0.5938810000000  0.5462760000000  0.5467860000000 1.0
C      1  0.5509290000000  0.4404630000000  0.5639770000000 1.0
C      1  0.4412860000000  0.4192460000000  0.5383770000000 1.0
C      1  0.5032050000000  0.6013270000000  0.5521420000000 1.0
C      1  0.4917140000000  0.4611030000000  0.5489820000000 1.0
C      1  0.5865330000000  0.4969770000000  0.5745000000000 1.0
C      1  0.4192400000000  0.4755940000000  0.4066480000000 1.0
C      1  0.4823380000000  0.4019790000000  0.5545900000000 1.0
C      1  0.5586940000000  0.4383020000000  0.4306700000000 1.0
C      1  0.5127650000000  0.5007020000000  0.4245190000000 1.0
C      1  0.4514800000000  0.4407910000000  0.5804320000000 1.0
C      1  0.4707510000000  0.5663360000000  0.5936390000000 1.0
C      1  0.4899590000000  0.5829610000000  0.4100120000000 1.0
C      1  0.4977120000000  0.4601940000000  0.5994260000000 1.0
C      1  0.4232700000000  0.5522040000000  0.5332640000000 1.0
C      1  0.4995020000000  0.5050510000000  0.5760230000000 1.0
C      1  0.4613180000000  0.5080120000000  0.6053730000000 1.0
C      1  0.4475080000000  0.5735830000000  0.4461820000000 1.0
C      1  0.4959740000000  0.4764820000000  0.5740210000000 1.0
C      1  0.4450900000000  0.4032820000000  0.4992830000000 1.0
C      1  0.5029450000000  0.4160010000000  0.5699010000000 1.0
C      1  0.3982920000000  0.5097880000000  0.4685290000000 1.0
C      1  0.3958110000000  0.5065910000000  0.5406340000000 1.0
C      1  0.5704550000000  0.5271500000000  0.4777510000000 1.0
C      1  0.5255090000000  0.5401150000000  0.3932130000000 1.0
C      1  0.4254110000000  0.4620460000000  0.4574430000000 1.0
C      1  0.4739100000000  0.5269250000000  0.4377400000000 1.0
C      1  0.5572740000000  0.4195590000000  0.5234720000000 1.0
C      1  0.3951830000000  0.4874900000000  0.4875260000000 1.0
C      1  0.4951310000000  0.4737140000000  0.3943910000000 1.0
C      1  0.5006760000000  0.6092330000000  0.4827550000000 1.0
END
