TITL C-4164245-3996-42 -3.55572163882618 125000 -7091.63348438346 0 0 48 (C1) n - 1
REM
REM in /home/nfs/bkarasulu/CARBON/AIRSS/Generating-Clusters/ReaxFF-fromJPCA2015/Units_Real/with-SteepDescent/Only-C1/SD-CG/Try1-3A/FIRE-CG
REM
REM
REM
REM
REM
REM ./C.cell (11c1c37f851c82e70ff6c80c92926a4b)
REM
REM compiler GCC version 9.2.1 20190827 (Red Hat 9.2.1-1)
REM options -cpp -mtune=generic -march=x86-64 -g -O0 -fpre-include=/usr/include/finclude/math-vector-fortran.h
REM seed 1155337874 -206143406 1468172123 616714646 275708544 1671896001 2089031048 -1850458725 -314678141 723145047 -995318099 114443041 -704338920 634242679 1260306097 537291907 -1599094068 262101533 -1780265962 1953276330 1998136100 589351015 -2119800193 -979651834 1569746118 361673904 -656465441 -1972201257 -721635536 818597877 1630652681 -1135389027 -1958978806
REM
CELL 1.54180   50.00000   50.00000   50.00000   90.00000   90.00000   90.00000
LATT -1
SFAC C  
C      1  0.5417570000000  0.4806450000000  0.5267630000000 1.0
C      1  0.4662030000000  0.5065280000000  0.5565620000000 1.0
C      1  0.4921240000000  0.4821750000000  0.4843530000000 1.0
C      1  0.4905590000000  0.5699250000000  0.4871780000000 1.0
C      1  0.5090170000000  0.4701660000000  0.5591480000000 1.0
C      1  0.4598250000000  0.4789260000000  0.5502020000000 1.0
C      1  0.5205040000000  0.5486920000000  0.5278970000000 1.0
C      1  0.5084540000000  0.4359470000000  0.5238910000000 1.0
C      1  0.5188000000000  0.5222030000000  0.4859970000000 1.0
C      1  0.5318830000000  0.5468740000000  0.4855260000000 1.0
C      1  0.5374920000000  0.4376820000000  0.4651620000000 1.0
C      1  0.4213710000000  0.5179320000000  0.4963100000000 1.0
C      1  0.5045750000000  0.5190040000000  0.4370850000000 1.0
C      1  0.4934760000000  0.4366390000000  0.4980740000000 1.0
C      1  0.4400500000000  0.4594190000000  0.4610430000000 1.0
C      1  0.5379800000000  0.4679730000000  0.4599220000000 1.0
C      1  0.4928220000000  0.5174150000000  0.5605960000000 1.0
C      1  0.4335100000000  0.5058390000000  0.5218570000000 1.0
C      1  0.5159200000000  0.5642510000000  0.5036420000000 1.0
C      1  0.5235170000000  0.4594620000000  0.5359150000000 1.0
C      1  0.5205320000000  0.5542910000000  0.4463940000000 1.0
C      1  0.4891790000000  0.4375150000000  0.5441610000000 1.0
C      1  0.4717470000000  0.5513500000000  0.4762580000000 1.0
C      1  0.5587080000000  0.5339600000000  0.4831790000000 1.0
C      1  0.5427400000000  0.5291220000000  0.5308960000000 1.0
C      1  0.5604240000000  0.4377490000000  0.4786380000000 1.0
C      1  0.5063480000000  0.4407110000000  0.4732600000000 1.0
C      1  0.4813590000000  0.5218940000000  0.4465840000000 1.0
C      1  0.5507240000000  0.5164040000000  0.4609680000000 1.0
C      1  0.4952180000000  0.5371200000000  0.5381270000000 1.0
C      1  0.4387640000000  0.4797360000000  0.4761530000000 1.0
C      1  0.5309970000000  0.5284740000000  0.4405760000000 1.0
C      1  0.5086570000000  0.4683330000000  0.4647630000000 1.0
C      1  0.5059890000000  0.5699710000000  0.4630000000000 1.0
C      1  0.4805070000000  0.4595140000000  0.5594760000000 1.0
C      1  0.4562990000000  0.5211370000000  0.5323430000000 1.0
C      1  0.4954820000000  0.5095580000000  0.4946700000000 1.0
C      1  0.5375060000000  0.5038170000000  0.5444610000000 1.0
C      1  0.5517670000000  0.4896470000000  0.4734720000000 1.0
C      1  0.4502110000000  0.4651980000000  0.5006250000000 1.0
C      1  0.4585500000000  0.5308140000000  0.4618250000000 1.0
C      1  0.5554060000000  0.4912530000000  0.5030910000000 1.0
C      1  0.4801290000000  0.5255690000000  0.5162140000000 1.0
C      1  0.4437900000000  0.4786960000000  0.5254510000000 1.0
C      1  0.4366220000000  0.5120650000000  0.4722010000000 1.0
C      1  0.5599370000000  0.5195200000000  0.5089780000000 1.0
C      1  0.4776070000000  0.4601690000000  0.4946110000000 1.0
C      1  0.5149620000000  0.4987170000000  0.5625000000000 1.0
END
