TITL C-4164242-3624-119 9.61331862952271 125000 -19350.7930626036 0 0 129 (C1) n - 1
REM
REM in /home/nfs/bkarasulu/CARBON/AIRSS/Generating-Clusters/ReaxFF-fromJPCA2015/Units_Real/with-SteepDescent/Only-C1/SD-CG/Try1-3A/FIRE-CG
REM
REM
REM
REM
REM
REM ./C.cell (11c1c37f851c82e70ff6c80c92926a4b)
REM
REM compiler GCC version 9.2.1 20190827 (Red Hat 9.2.1-1)
REM options -cpp -mtune=generic -march=x86-64 -g -O0 -fpre-include=/usr/include/finclude/math-vector-fortran.h
REM seed -336126252 -411439146 -182019143 536329065 1035943366 1887967456 68247683 -1021672585 -76513423 -647558444 1270503846 -703888860 472512472 -1119990344 -465205691 1660202794 780029218 -167061650 2065237948 -1357387982 -1673840904 314721676 1494973997 -1478195046 540487000 -326002460 -307653100 1919063294 -307488947 1143186643 -923268982 1127494213 -654330895
REM
CELL 1.54180   50.00000   50.00000   50.00000   90.00000   90.00000   90.00000
LATT -1
SFAC C  
C      1  0.5259760000000  0.4347540000000  0.5570800000000 1.0
C      1  0.5692560000000  0.4605990000000  0.5037620000000 1.0
C      1  0.5643980000000  0.4630710000000  0.5756180000000 1.0
C      1  0.4782870000000  0.4341240000000  0.5441370000000 1.0
C      1  0.5715390000000  0.4792270000000  0.4176170000000 1.0
C      1  0.4847760000000  0.4968790000000  0.5006120000000 1.0
C      1  0.4908300000000  0.5991470000000  0.5000280000000 1.0
C      1  0.5234980000000  0.5322930000000  0.4764630000000 1.0
C      1  0.5297900000000  0.4799680000000  0.5938840000000 1.0
C      1  0.4826980000000  0.4972690000000  0.5980520000000 1.0
C      1  0.5021700000000  0.4701590000000  0.4453960000000 1.0
C      1  0.4945270000000  0.5614310000000  0.5310980000000 1.0
C      1  0.5378680000000  0.5698110000000  0.4252510000000 1.0
C      1  0.5487470000000  0.5232130000000  0.4873100000000 1.0
C      1  0.5224880000000  0.4987960000000  0.4084590000000 1.0
C      1  0.5499920000000  0.5454690000000  0.4181590000000 1.0
C      1  0.4442280000000  0.5142660000000  0.4838600000000 1.0
C      1  0.4988350000000  0.4481910000000  0.5984130000000 1.0
C      1  0.4058430000000  0.4371040000000  0.4811940000000 1.0
C      1  0.4270470000000  0.4517220000000  0.5179810000000 1.0
C      1  0.5731670000000  0.4451830000000  0.4792780000000 1.0
C      1  0.5888330000000  0.4666430000000  0.4665810000000 1.0
C      1  0.4744940000000  0.4661960000000  0.4151470000000 1.0
C      1  0.4795160000000  0.4115000000000  0.4641560000000 1.0
C      1  0.4558760000000  0.4955570000000  0.5005400000000 1.0
C      1  0.5299360000000  0.4195290000000  0.4810700000000 1.0
C      1  0.5072200000000  0.4097060000000  0.4622850000000 1.0
C      1  0.5406970000000  0.4772620000000  0.4124180000000 1.0
C      1  0.5767390000000  0.5528680000000  0.5148990000000 1.0
C      1  0.4699850000000  0.4262800000000  0.5110780000000 1.0
C      1  0.4396780000000  0.4279320000000  0.5078190000000 1.0
C      1  0.5175600000000  0.5571710000000  0.4888680000000 1.0
C      1  0.4881570000000  0.5129570000000  0.5740480000000 1.0
C      1  0.4571280000000  0.5130310000000  0.4112280000000 1.0
C      1  0.4251680000000  0.4884520000000  0.4318980000000 1.0
C      1  0.4511670000000  0.4669310000000  0.5974180000000 1.0
C      1  0.5276400000000  0.4863010000000  0.5645590000000 1.0
C      1  0.5083800000000  0.4057690000000  0.5233920000000 1.0
C      1  0.4228150000000  0.5423980000000  0.4327760000000 1.0
C      1  0.5298560000000  0.4264730000000  0.5111400000000 1.0
C      1  0.5052970000000  0.5793920000000  0.4498720000000 1.0
C      1  0.5393230000000  0.6061070000000  0.5262510000000 1.0
C      1  0.5143630000000  0.6066700000000  0.5124340000000 1.0
C      1  0.4211220000000  0.5242660000000  0.5350210000000 1.0
C      1  0.3986460000000  0.4854370000000  0.5074170000000 1.0
C      1  0.5061670000000  0.4233370000000  0.4354540000000 1.0
C      1  0.5029140000000  0.4205160000000  0.5473180000000 1.0
C      1  0.4339160000000  0.5652980000000  0.5081020000000 1.0
C      1  0.4524020000000  0.4961330000000  0.5992170000000 1.0
C      1  0.5695530000000  0.4497400000000  0.5309810000000 1.0
C      1  0.5332670000000  0.5150120000000  0.5612480000000 1.0
C      1  0.5497320000000  0.4307410000000  0.4657230000000 1.0
C      1  0.5642960000000  0.5053660000000  0.4701540000000 1.0
C      1  0.5465870000000  0.4551510000000  0.5960010000000 1.0
C      1  0.5195630000000  0.5222680000000  0.5213900000000 1.0
C      1  0.4446230000000  0.5296890000000  0.5561060000000 1.0
C      1  0.5102950000000  0.5315660000000  0.5692790000000 1.0
C      1  0.4147490000000  0.4971640000000  0.5290750000000 1.0
C      1  0.5485500000000  0.4303790000000  0.5339200000000 1.0
C      1  0.4786540000000  0.5890900000000  0.5243870000000 1.0
C      1  0.4835120000000  0.5152500000000  0.4271980000000 1.0
C      1  0.4959660000000  0.5756820000000  0.4783190000000 1.0
C      1  0.5678120000000  0.5477030000000  0.4439840000000 1.0
C      1  0.4317470000000  0.4227420000000  0.4798460000000 1.0
C      1  0.5236940000000  0.5739100000000  0.5659710000000 1.0
C      1  0.4713830000000  0.5088550000000  0.5496170000000 1.0
C      1  0.5343580000000  0.4331660000000  0.4392540000000 1.0
C      1  0.4607090000000  0.5608560000000  0.4299810000000 1.0
C      1  0.5024560000000  0.4761990000000  0.6046390000000 1.0
C      1  0.5435470000000  0.4778780000000  0.5014070000000 1.0
C      1  0.5236300000000  0.4381490000000  0.5882360000000 1.0
C      1  0.4233960000000  0.4814380000000  0.4608210000000 1.0
C      1  0.4809930000000  0.4618990000000  0.5386550000000 1.0
C      1  0.5011680000000  0.5394210000000  0.4177660000000 1.0
C      1  0.5260210000000  0.4597200000000  0.4312980000000 1.0
C      1  0.5404290000000  0.5067850000000  0.5099930000000 1.0
C      1  0.5579540000000  0.5685040000000  0.4624640000000 1.0
C      1  0.5687640000000  0.4700100000000  0.4451420000000 1.0
C      1  0.4600220000000  0.4262850000000  0.5701160000000 1.0
C      1  0.5791760000000  0.5004690000000  0.5449630000000 1.0
C      1  0.5504750000000  0.5689140000000  0.5580770000000 1.0
C      1  0.5172950000000  0.4883000000000  0.4613590000000 1.0
C      1  0.4459040000000  0.5670830000000  0.4823880000000 1.0
C      1  0.5672550000000  0.5718000000000  0.4931970000000 1.0
C      1  0.4532670000000  0.5755500000000  0.5311090000000 1.0
C      1  0.5635610000000  0.5490390000000  0.5408990000000 1.0
C      1  0.5021850000000  0.5096770000000  0.4731740000000 1.0
C      1  0.4393520000000  0.5166480000000  0.5821530000000 1.0
C      1  0.5977670000000  0.5329940000000  0.5109220000000 1.0
C      1  0.5453300000000  0.4828650000000  0.4666380000000 1.0
C      1  0.5771120000000  0.4713620000000  0.5523290000000 1.0
C      1  0.5900710000000  0.4947150000000  0.4770380000000 1.0
C      1  0.4061810000000  0.4975460000000  0.4821350000000 1.0
C      1  0.4789190000000  0.5428450000000  0.5150240000000 1.0
C      1  0.4682050000000  0.4427120000000  0.5918110000000 1.0
C      1  0.4019330000000  0.4556050000000  0.5052600000000 1.0
C      1  0.4461760000000  0.5398890000000  0.4150700000000 1.0
C      1  0.4617590000000  0.4814190000000  0.5456430000000 1.0
C      1  0.5601380000000  0.5216040000000  0.5511790000000 1.0
C      1  0.4427500000000  0.5576150000000  0.4538670000000 1.0
C      1  0.5236700000000  0.4606640000000  0.5171000000000 1.0
C      1  0.5263190000000  0.4643620000000  0.5461970000000 1.0
C      1  0.4404290000000  0.4803950000000  0.5239720000000 1.0
C      1  0.4569050000000  0.4268710000000  0.4630120000000 1.0
C      1  0.5192960000000  0.5506070000000  0.5170040000000 1.0
C      1  0.4734300000000  0.4555100000000  0.4652680000000 1.0
C      1  0.4848130000000  0.3977520000000  0.5090290000000 1.0
C      1  0.5008830000000  0.5578670000000  0.5605200000000 1.0
C      1  0.5344820000000  0.5833730000000  0.4492680000000 1.0
C      1  0.5996000000000  0.5094450000000  0.5264740000000 1.0
C      1  0.4115810000000  0.5155790000000  0.4321120000000 1.0
C      1  0.4618320000000  0.5325010000000  0.4683840000000 1.0
C      1  0.4600430000000  0.5590010000000  0.5535060000000 1.0
C      1  0.4815440000000  0.5178010000000  0.4560130000000 1.0
C      1  0.4963470000000  0.4875360000000  0.4204630000000 1.0
C      1  0.5385060000000  0.5940590000000  0.5539450000000 1.0
C      1  0.4930570000000  0.4675840000000  0.5121710000000 1.0
C      1  0.4164600000000  0.5237720000000  0.4877060000000 1.0
C      1  0.5264550000000  0.5277630000000  0.4113690000000 1.0
C      1  0.4722940000000  0.5533640000000  0.4882400000000 1.0
C      1  0.4846090000000  0.4407340000000  0.4226940000000 1.0
C      1  0.4898860000000  0.5174560000000  0.5217110000000 1.0
C      1  0.4808080000000  0.4478790000000  0.4931570000000 1.0
C      1  0.5536560000000  0.5886690000000  0.5085430000000 1.0
C      1  0.4175550000000  0.5412590000000  0.5118790000000 1.0
C      1  0.4478680000000  0.4687710000000  0.4630400000000 1.0
C      1  0.4903830000000  0.5635140000000  0.4295250000000 1.0
C      1  0.4501020000000  0.4857290000000  0.4159140000000 1.0
C      1  0.6039870000000  0.5081250000000  0.4985220000000 1.0
END
