TITL C-4164233-775-154 50.2016673564052 125000 -19370.6910458554 0 0 132 (C1) n - 1
REM
REM in /home/nfs/bkarasulu/CARBON/AIRSS/Generating-Clusters/ReaxFF-fromJPCA2015/Units_Real/with-SteepDescent/Only-C1/SD-CG/Try1-3A/FIRE-CG
REM
REM
REM
REM
REM
REM ./C.cell (11c1c37f851c82e70ff6c80c92926a4b)
REM
REM compiler GCC version 9.2.1 20190827 (Red Hat 9.2.1-1)
REM options -cpp -mtune=generic -march=x86-64 -g -O0 -fpre-include=/usr/include/finclude/math-vector-fortran.h
REM seed -75730492 1606149353 12639793 -1474925846 1245683155 762169526 2020011813 558473985 1247825987 62594089 -744263327 -2077294898 -1532553056 -1762617424 296681615 325499087 -956078476 1026637465 1677262667 -900263480 1216211536 -1554035050 -827248548 -1848526942 -1923874379 1085389983 574495304 1763931377 -170513326 155317522 -855304703 1305883633 -1236438707
REM
CELL 1.54180   50.00000   50.00000   50.00000   90.00000   90.00000   90.00000
LATT -1
SFAC C  
C      1  0.5766070000000  0.4540250000000  0.5047190000000 1.0
C      1  0.4344980000000  0.4750530000000  0.4671440000000 1.0
C      1  0.4684580000000  0.5294820000000  0.5406580000000 1.0
C      1  0.4932790000000  0.4539280000000  0.5870980000000 1.0
C      1  0.4555380000000  0.5403190000000  0.4329070000000 1.0
C      1  0.5308600000000  0.5141900000000  0.5835300000000 1.0
C      1  0.4425770000000  0.5507690000000  0.4732530000000 1.0
C      1  0.4528210000000  0.4544700000000  0.4180840000000 1.0
C      1  0.5068440000000  0.5455160000000  0.4230740000000 1.0
C      1  0.5883940000000  0.4807800000000  0.4533250000000 1.0
C      1  0.4621800000000  0.5719300000000  0.4629270000000 1.0
C      1  0.5529490000000  0.5149700000000  0.4654070000000 1.0
C      1  0.5644850000000  0.4739850000000  0.5700230000000 1.0
C      1  0.5897930000000  0.4806550000000  0.5117490000000 1.0
C      1  0.4885020000000  0.5666850000000  0.5788270000000 1.0
C      1  0.4549640000000  0.4086830000000  0.5357670000000 1.0
C      1  0.6013910000000  0.5012480000000  0.4895550000000 1.0
C      1  0.4090250000000  0.5138870000000  0.4836260000000 1.0
C      1  0.4843880000000  0.5679430000000  0.4445900000000 1.0
C      1  0.5043830000000  0.5321510000000  0.4503250000000 1.0
C      1  0.4335790000000  0.5341810000000  0.5792380000000 1.0
C      1  0.4223440000000  0.4292590000000  0.5042630000000 1.0
C      1  0.5312660000000  0.4467660000000  0.4270670000000 1.0
C      1  0.4725160000000  0.5258920000000  0.3880010000000 1.0
C      1  0.5222920000000  0.5001060000000  0.4982030000000 1.0
C      1  0.4513890000000  0.4957630000000  0.4783140000000 1.0
C      1  0.4733580000000  0.4717380000000  0.4125310000000 1.0
C      1  0.4599890000000  0.5774930000000  0.5103490000000 1.0
C      1  0.5519010000000  0.4484260000000  0.4855580000000 1.0
C      1  0.5065650000000  0.4139370000000  0.5349700000000 1.0
C      1  0.4651720000000  0.4905850000000  0.5042520000000 1.0
C      1  0.4650240000000  0.4935650000000  0.5885200000000 1.0
C      1  0.4587140000000  0.5474690000000  0.5174480000000 1.0
C      1  0.5147470000000  0.5012560000000  0.4443480000000 1.0
C      1  0.4068650000000  0.4925930000000  0.5053050000000 1.0
C      1  0.4952440000000  0.4868510000000  0.4642560000000 1.0
C      1  0.4726810000000  0.5031580000000  0.5320580000000 1.0
C      1  0.5576270000000  0.5212180000000  0.5739230000000 1.0
C      1  0.5569530000000  0.5853240000000  0.5344510000000 1.0
C      1  0.5162460000000  0.5277750000000  0.5393130000000 1.0
C      1  0.5366190000000  0.5688680000000  0.4409030000000 1.0
C      1  0.5688040000000  0.5468660000000  0.5217500000000 1.0
C      1  0.5445450000000  0.4258160000000  0.4682550000000 1.0
C      1  0.5299220000000  0.5616690000000  0.4902610000000 1.0
C      1  0.5043470000000  0.4589250000000  0.4684240000000 1.0
C      1  0.5525700000000  0.4497890000000  0.5742770000000 1.0
C      1  0.5011220000000  0.4771050000000  0.4060050000000 1.0
C      1  0.4192200000000  0.5309310000000  0.5307320000000 1.0
C      1  0.5051050000000  0.5012530000000  0.4168540000000 1.0
C      1  0.5360770000000  0.5475660000000  0.4216860000000 1.0
C      1  0.5123900000000  0.5320200000000  0.5676380000000 1.0
C      1  0.4582700000000  0.5338660000000  0.4918030000000 1.0
C      1  0.4468110000000  0.5711420000000  0.5496620000000 1.0
C      1  0.5418030000000  0.5200820000000  0.4916740000000 1.0
C      1  0.4548750000000  0.4948520000000  0.4256450000000 1.0
C      1  0.5708040000000  0.5291740000000  0.4469500000000 1.0
C      1  0.4273540000000  0.4571310000000  0.4302960000000 1.0
C      1  0.5841700000000  0.4900340000000  0.5368470000000 1.0
C      1  0.4049800000000  0.4649430000000  0.5022240000000 1.0
C      1  0.5414460000000  0.4921530000000  0.4534010000000 1.0
C      1  0.5211230000000  0.4533650000000  0.4932760000000 1.0
C      1  0.5578310000000  0.5217130000000  0.5159990000000 1.0
C      1  0.4113560000000  0.4464290000000  0.5166170000000 1.0
C      1  0.5591910000000  0.4688960000000  0.4564770000000 1.0
C      1  0.5014970000000  0.5914200000000  0.4796830000000 1.0
C      1  0.4658620000000  0.4134440000000  0.4854170000000 1.0
C      1  0.5764230000000  0.4979930000000  0.5633720000000 1.0
C      1  0.5086020000000  0.5754920000000  0.5586300000000 1.0
C      1  0.6008920000000  0.5270270000000  0.4971460000000 1.0
C      1  0.4358250000000  0.4476690000000  0.4563450000000 1.0
C      1  0.5287720000000  0.5585200000000  0.5725900000000 1.0
C      1  0.5158800000000  0.4185370000000  0.4677290000000 1.0
C      1  0.4164910000000  0.5130070000000  0.4550780000000 1.0
C      1  0.5028400000000  0.5437580000000  0.5208120000000 1.0
C      1  0.5165930000000  0.5855320000000  0.5050900000000 1.0
C      1  0.4265170000000  0.4881640000000  0.4406990000000 1.0
C      1  0.4283690000000  0.5496240000000  0.5542920000000 1.0
C      1  0.4990080000000  0.5716520000000  0.5305350000000 1.0
C      1  0.4729530000000  0.5868550000000  0.4851190000000 1.0
C      1  0.5203810000000  0.4474510000000  0.5719390000000 1.0
C      1  0.5385060000000  0.5103290000000  0.5342010000000 1.0
C      1  0.4907610000000  0.4815390000000  0.5964530000000 1.0
C      1  0.4598090000000  0.5223710000000  0.5869430000000 1.0
C      1  0.5079050000000  0.5674890000000  0.5995940000000 1.0
C      1  0.5686460000000  0.4324820000000  0.5544600000000 1.0
C      1  0.4789170000000  0.5372540000000  0.5685940000000 1.0
C      1  0.5625040000000  0.5601230000000  0.4525680000000 1.0
C      1  0.4822870000000  0.4557720000000  0.5248410000000 1.0
C      1  0.4189770000000  0.5331370000000  0.5022730000000 1.0
C      1  0.4505670000000  0.4214100000000  0.4613340000000 1.0
C      1  0.4949480000000  0.5024690000000  0.4912360000000 1.0
C      1  0.5713350000000  0.5628490000000  0.5448980000000 1.0
C      1  0.4696600000000  0.4166360000000  0.4430180000000 1.0
C      1  0.5017590000000  0.4334290000000  0.5130490000000 1.0
C      1  0.5462850000000  0.4957170000000  0.4118490000000 1.0
C      1  0.4838810000000  0.4781420000000  0.5442030000000 1.0
C      1  0.5455150000000  0.4206040000000  0.5445910000000 1.0
C      1  0.5288910000000  0.4756860000000  0.5102710000000 1.0
C      1  0.4627430000000  0.4222600000000  0.5614860000000 1.0
C      1  0.4561650000000  0.4760840000000  0.5659620000000 1.0
C      1  0.5939530000000  0.5076510000000  0.4614920000000 1.0
C      1  0.4308660000000  0.5374710000000  0.4496760000000 1.0
C      1  0.4338760000000  0.4585010000000  0.5311990000000 1.0
C      1  0.5400930000000  0.6022150000000  0.5202550000000 1.0
C      1  0.4184400000000  0.5016460000000  0.5319290000000 1.0
C      1  0.5552740000000  0.5665660000000  0.4785960000000 1.0
C      1  0.4577000000000  0.4624160000000  0.5126400000000 1.0
C      1  0.4813410000000  0.4053760000000  0.5462440000000 1.0
C      1  0.5210170000000  0.4227110000000  0.5562200000000 1.0
C      1  0.5914750000000  0.5447010000000  0.5137970000000 1.0
C      1  0.4532500000000  0.5209440000000  0.4103470000000 1.0
C      1  0.5532930000000  0.5211880000000  0.4225590000000 1.0
C      1  0.5762980000000  0.4437230000000  0.5294650000000 1.0
C      1  0.5334650000000  0.4825630000000  0.5369560000000 1.0
C      1  0.5168260000000  0.4889620000000  0.5848150000000 1.0
C      1  0.4896010000000  0.4161820000000  0.4259480000000 1.0
C      1  0.4925740000000  0.5321250000000  0.4954530000000 1.0
C      1  0.5091520000000  0.5793640000000  0.4534080000000 1.0
C      1  0.5116760000000  0.5420120000000  0.4770020000000 1.0
C      1  0.4687260000000  0.5007250000000  0.4552460000000 1.0
C      1  0.5084360000000  0.4390130000000  0.4458220000000 1.0
C      1  0.4758700000000  0.5283700000000  0.4504710000000 1.0
C      1  0.4947980000000  0.4174060000000  0.4884120000000 1.0
C      1  0.5568230000000  0.5488060000000  0.5673150000000 1.0
C      1  0.4681580000000  0.4479690000000  0.5740010000000 1.0
C      1  0.5147010000000  0.4742530000000  0.5578590000000 1.0
C      1  0.4464270000000  0.4146090000000  0.5081600000000 1.0
C      1  0.4685580000000  0.5838180000000  0.5368400000000 1.0
C      1  0.5533290000000  0.4409320000000  0.4443190000000 1.0
C      1  0.4313500000000  0.4813810000000  0.5487180000000 1.0
C      1  0.4989820000000  0.5254750000000  0.4025090000000 1.0
C      1  0.5295590000000  0.4703830000000  0.4094140000000 1.0
END
