TITL C-4164244-2836-447 -12.8262751172589 125000 -5528.15520703736 0 0 39 (C1) n - 1
REM
REM in /home/nfs/bkarasulu/CARBON/AIRSS/Generating-Clusters/ReaxFF-fromJPCA2015/Units_Real/with-SteepDescent/Only-C1/SD-CG/Try1-3A/FIRE-CG
REM
REM
REM
REM
REM
REM ./C.cell (11c1c37f851c82e70ff6c80c92926a4b)
REM
REM compiler GCC version 9.2.1 20190827 (Red Hat 9.2.1-1)
REM options -cpp -mtune=generic -march=x86-64 -g -O0 -fpre-include=/usr/include/finclude/math-vector-fortran.h
REM seed 734961186 574479479 1349611398 1041072108 1564243464 625874698 -1428721020 -1308333108 373931321 748758016 -518349896 -1819181567 -1152186662 1393407345 -693060910 -100713404 302032245 892302907 -1327994174 588277094 -766706913 -1758033981 -2005567318 1156270955 972381811 415723546 996031306 -1090199098 42329870 -1981719367 -1018427994 -1663246090 -409225526
REM
CELL 1.54180   50.00000   50.00000   50.00000   90.00000   90.00000   90.00000
LATT -1
SFAC C  
C      1  0.5363210000000  0.4987060000000  0.4769440000000 1.0
C      1  0.5201190000000  0.5155960000000  0.5500120000000 1.0
C      1  0.5229970000000  0.5036930000000  0.5071630000000 1.0
C      1  0.5215990000000  0.5285890000000  0.5234210000000 1.0
C      1  0.5118910000000  0.4412460000000  0.5358210000000 1.0
C      1  0.4936150000000  0.4345080000000  0.5244590000000 1.0
C      1  0.5075710000000  0.5519970000000  0.5136180000000 1.0
C      1  0.5145220000000  0.5099460000000  0.4388790000000 1.0
C      1  0.4758000000000  0.5053930000000  0.5380380000000 1.0
C      1  0.4631110000000  0.5094540000000  0.4569750000000 1.0
C      1  0.4897910000000  0.5475090000000  0.4928880000000 1.0
C      1  0.5453680000000  0.4927650000000  0.5245190000000 1.0
C      1  0.4842550000000  0.5123370000000  0.4374660000000 1.0
C      1  0.4425660000000  0.4892820000000  0.4973030000000 1.0
C      1  0.5617780000000  0.4523900000000  0.4779320000000 1.0
C      1  0.4647490000000  0.5803200000000  0.4903100000000 1.0
C      1  0.4810880000000  0.5641520000000  0.5157890000000 1.0
C      1  0.5674400000000  0.4785970000000  0.5102680000000 1.0
C      1  0.4324950000000  0.5132630000000  0.5091410000000 1.0
C      1  0.4792980000000  0.4728400000000  0.4973610000000 1.0
C      1  0.5352800000000  0.4392630000000  0.4667010000000 1.0
C      1  0.4510500000000  0.5357500000000  0.4634520000000 1.0
C      1  0.5714210000000  0.4479820000000  0.5059370000000 1.0
C      1  0.4909570000000  0.4425990000000  0.4999520000000 1.0
C      1  0.5079890000000  0.4694950000000  0.5389610000000 1.0
C      1  0.5140940000000  0.4406070000000  0.4826450000000 1.0
C      1  0.4614980000000  0.4846670000000  0.4773950000000 1.0
C      1  0.5610280000000  0.4818430000000  0.4819880000000 1.0
C      1  0.5214100000000  0.4836870000000  0.4536400000000 1.0
C      1  0.4706540000000  0.5582710000000  0.4732200000000 1.0
C      1  0.4935440000000  0.4881720000000  0.5183630000000 1.0
C      1  0.4916910000000  0.5171440000000  0.5600140000000 1.0
C      1  0.4354340000000  0.5272000000000  0.4846110000000 1.0
C      1  0.5292160000000  0.4878220000000  0.5485380000000 1.0
C      1  0.4620930000000  0.5496050000000  0.5365640000000 1.0
C      1  0.4765110000000  0.5409160000000  0.5589450000000 1.0
C      1  0.5240010000000  0.4562830000000  0.4431690000000 1.0
C      1  0.5326610000000  0.5241960000000  0.4567220000000 1.0
C      1  0.4530940000000  0.5219170000000  0.5308770000000 1.0
END
