TITL C-4164237-1827-485 65.884352502801 125000 -20662.8628250526 0 0 138 (C1) n - 1
REM
REM in /home/nfs/bkarasulu/CARBON/AIRSS/Generating-Clusters/ReaxFF-fromJPCA2015/Units_Real/with-SteepDescent/Only-C1/SD-CG/Try1-3A/FIRE-CG
REM
REM
REM
REM
REM
REM ./C.cell (11c1c37f851c82e70ff6c80c92926a4b)
REM
REM compiler GCC version 9.2.1 20190827 (Red Hat 9.2.1-1)
REM options -cpp -mtune=generic -march=x86-64 -g -O0 -fpre-include=/usr/include/finclude/math-vector-fortran.h
REM seed -1739586027 1687852780 776343037 -569706297 701119576 -2090513619 -485488250 -442049089 -483684795 -687446679 -1237289816 322312900 -293897485 1880430115 718149811 -408252873 2057626372 -1725973784 -1208572636 1652376903 937290072 -255661187 971806206 -71874272 -1204145147 -2146538701 476049630 -2122112280 733638541 -706013900 1095734862 -2030876261 2115095716
REM
CELL 1.54180   50.00000   50.00000   50.00000   90.00000   90.00000   90.00000
LATT -1
SFAC C  
C      1  0.5146190000000  0.5044900000000  0.5508950000000 1.0
C      1  0.4676930000000  0.5426520000000  0.4812790000000 1.0
C      1  0.5731750000000  0.5608540000000  0.4703090000000 1.0
C      1  0.5360130000000  0.4812530000000  0.4711260000000 1.0
C      1  0.5810770000000  0.5028390000000  0.5566130000000 1.0
C      1  0.4679940000000  0.4511410000000  0.5307420000000 1.0
C      1  0.4936300000000  0.4348020000000  0.4277300000000 1.0
C      1  0.4805130000000  0.5353550000000  0.5821140000000 1.0
C      1  0.4847770000000  0.5785910000000  0.5616890000000 1.0
C      1  0.4902160000000  0.5648130000000  0.4269900000000 1.0
C      1  0.5145650000000  0.5172050000000  0.4667920000000 1.0
C      1  0.4788470000000  0.5282390000000  0.3975940000000 1.0
C      1  0.5788100000000  0.4626050000000  0.4470540000000 1.0
C      1  0.5162380000000  0.5949860000000  0.4950180000000 1.0
C      1  0.6008400000000  0.5304590000000  0.5165350000000 1.0
C      1  0.4634320000000  0.4730570000000  0.4033510000000 1.0
C      1  0.4610900000000  0.5624870000000  0.4344270000000 1.0
C      1  0.4866630000000  0.4065050000000  0.5498940000000 1.0
C      1  0.4707900000000  0.5942760000000  0.5187870000000 1.0
C      1  0.4133420000000  0.4562960000000  0.5116880000000 1.0
C      1  0.4339850000000  0.4512780000000  0.5639210000000 1.0
C      1  0.5001250000000  0.5872740000000  0.4701890000000 1.0
C      1  0.4676010000000  0.5021440000000  0.3946340000000 1.0
C      1  0.5516060000000  0.4129370000000  0.4868750000000 1.0
C      1  0.5582570000000  0.4293590000000  0.5400310000000 1.0
C      1  0.4926220000000  0.4601460000000  0.4940320000000 1.0
C      1  0.4637330000000  0.5321480000000  0.5388560000000 1.0
C      1  0.4516730000000  0.5799800000000  0.4709150000000 1.0
C      1  0.5681060000000  0.4468560000000  0.4241280000000 1.0
C      1  0.5797280000000  0.5069420000000  0.4672780000000 1.0
C      1  0.5387690000000  0.5650920000000  0.5824300000000 1.0
C      1  0.4602970000000  0.4481200000000  0.5788760000000 1.0
C      1  0.4856580000000  0.4859390000000  0.4558590000000 1.0
C      1  0.4497220000000  0.4281050000000  0.5266370000000 1.0
C      1  0.5681260000000  0.5697000000000  0.4972970000000 1.0
C      1  0.4211830000000  0.5247620000000  0.5697150000000 1.0
C      1  0.5645870000000  0.4697060000000  0.5007750000000 1.0
C      1  0.5431970000000  0.5844100000000  0.4988320000000 1.0
C      1  0.4585450000000  0.5157980000000  0.4885850000000 1.0
C      1  0.4483190000000  0.4690670000000  0.4680540000000 1.0
C      1  0.4359220000000  0.5005840000000  0.5660840000000 1.0
C      1  0.5676070000000  0.5426500000000  0.4334210000000 1.0
C      1  0.6005040000000  0.5054660000000  0.5337990000000 1.0
C      1  0.5720190000000  0.5505050000000  0.5454750000000 1.0
C      1  0.4106890000000  0.4971830000000  0.5235670000000 1.0
C      1  0.4699460000000  0.4066360000000  0.5258650000000 1.0
C      1  0.5219790000000  0.4439500000000  0.4228310000000 1.0
C      1  0.5865780000000  0.4622910000000  0.5191090000000 1.0
C      1  0.4743760000000  0.5186240000000  0.5653970000000 1.0
C      1  0.4825270000000  0.4045710000000  0.4993510000000 1.0
C      1  0.4544680000000  0.5144930000000  0.5171480000000 1.0
C      1  0.5314100000000  0.5237580000000  0.5370310000000 1.0
C      1  0.5033420000000  0.4751690000000  0.5903720000000 1.0
C      1  0.4403650000000  0.4709490000000  0.4217740000000 1.0
C      1  0.4692160000000  0.4115840000000  0.4745620000000 1.0
C      1  0.4400200000000  0.4937890000000  0.5368900000000 1.0
C      1  0.5076550000000  0.5826630000000  0.4423360000000 1.0
C      1  0.5038720000000  0.5036420000000  0.4430960000000 1.0
C      1  0.5453940000000  0.4300160000000  0.4331080000000 1.0
C      1  0.4161420000000  0.4862610000000  0.4513000000000 1.0
C      1  0.5577860000000  0.5659410000000  0.4469610000000 1.0
C      1  0.4894670000000  0.5587120000000  0.5823730000000 1.0
C      1  0.5217880000000  0.4998790000000  0.5808610000000 1.0
C      1  0.5332810000000  0.4264270000000  0.5540450000000 1.0
C      1  0.5248890000000  0.4721410000000  0.5275410000000 1.0
C      1  0.5681070000000  0.4973260000000  0.4196800000000 1.0
C      1  0.4903640000000  0.4952430000000  0.5369410000000 1.0
C      1  0.5293230000000  0.5263190000000  0.5946160000000 1.0
C      1  0.4612780000000  0.4994010000000  0.5808030000000 1.0
C      1  0.5388830000000  0.4564480000000  0.5078540000000 1.0
C      1  0.4850640000000  0.5435480000000  0.5252670000000 1.0
C      1  0.5733880000000  0.4536900000000  0.5441710000000 1.0
C      1  0.5282460000000  0.3995690000000  0.5191280000000 1.0
C      1  0.5424570000000  0.4124860000000  0.4591740000000 1.0
C      1  0.5148720000000  0.5524630000000  0.5946190000000 1.0
C      1  0.5159160000000  0.4046280000000  0.5456000000000 1.0
C      1  0.4047190000000  0.5257230000000  0.5227070000000 1.0
C      1  0.5844330000000  0.4912700000000  0.4431870000000 1.0
C      1  0.5075840000000  0.5542980000000  0.5114330000000 1.0
C      1  0.4993500000000  0.5966840000000  0.5196560000000 1.0
C      1  0.5736400000000  0.5294010000000  0.5659440000000 1.0
C      1  0.5532820000000  0.5391320000000  0.5852680000000 1.0
C      1  0.6107740000000  0.4800640000000  0.5214380000000 1.0
C      1  0.5322110000000  0.5748300000000  0.5554250000000 1.0
C      1  0.5446780000000  0.4777700000000  0.5798500000000 1.0
C      1  0.4384730000000  0.4977730000000  0.4352510000000 1.0
C      1  0.5287760000000  0.4705300000000  0.4115160000000 1.0
C      1  0.5813930000000  0.5349270000000  0.4587730000000 1.0
C      1  0.4320820000000  0.5485350000000  0.5583580000000 1.0
C      1  0.4364180000000  0.5718940000000  0.4489150000000 1.0
C      1  0.5599840000000  0.4943380000000  0.4856890000000 1.0
C      1  0.5108970000000  0.4134700000000  0.4995220000000 1.0
C      1  0.4304680000000  0.4331750000000  0.5049160000000 1.0
C      1  0.5575560000000  0.4715050000000  0.4106690000000 1.0
C      1  0.5146340000000  0.4103130000000  0.4556260000000 1.0
C      1  0.4580980000000  0.4949530000000  0.4624610000000 1.0
C      1  0.4296180000000  0.4601290000000  0.4475550000000 1.0
C      1  0.4664990000000  0.4783280000000  0.5374630000000 1.0
C      1  0.4878730000000  0.4139730000000  0.4516690000000 1.0
C      1  0.5840410000000  0.5541020000000  0.5192060000000 1.0
C      1  0.4154400000000  0.5424760000000  0.5007170000000 1.0
C      1  0.5536160000000  0.5229710000000  0.4173630000000 1.0
C      1  0.4164210000000  0.5299950000000  0.4742300000000 1.0
C      1  0.4482300000000  0.4314320000000  0.4809140000000 1.0
C      1  0.5135310000000  0.5091430000000  0.4942420000000 1.0
C      1  0.4101990000000  0.5009060000000  0.4752610000000 1.0
C      1  0.5038280000000  0.4862920000000  0.5127180000000 1.0
C      1  0.5247430000000  0.5237760000000  0.4116220000000 1.0
C      1  0.4073640000000  0.4835720000000  0.4991650000000 1.0
C      1  0.5008650000000  0.5423950000000  0.4112540000000 1.0
C      1  0.5274490000000  0.5291020000000  0.5089570000000 1.0
C      1  0.4074190000000  0.5372830000000  0.5492250000000 1.0
C      1  0.4273350000000  0.5434050000000  0.4504830000000 1.0
C      1  0.4506920000000  0.5226250000000  0.4073080000000 1.0
C      1  0.5157030000000  0.4966630000000  0.4170060000000 1.0
C      1  0.5151340000000  0.5461070000000  0.4650700000000 1.0
C      1  0.4502610000000  0.5838710000000  0.4986150000000 1.0
C      1  0.4643080000000  0.4548780000000  0.4845000000000 1.0
C      1  0.5056040000000  0.4736500000000  0.4712290000000 1.0
C      1  0.5171560000000  0.4529430000000  0.5491120000000 1.0
C      1  0.4915900000000  0.5591700000000  0.4728190000000 1.0
C      1  0.5427310000000  0.5516390000000  0.5407920000000 1.0
C      1  0.4621470000000  0.5837250000000  0.5439160000000 1.0
C      1  0.5523960000000  0.4650710000000  0.4573330000000 1.0
C      1  0.5171090000000  0.4416440000000  0.4941210000000 1.0
C      1  0.5239790000000  0.4577740000000  0.5797550000000 1.0
C      1  0.4887250000000  0.4471710000000  0.5499190000000 1.0
C      1  0.4196910000000  0.4544040000000  0.5396390000000 1.0
C      1  0.5675760000000  0.4772300000000  0.5619790000000 1.0
C      1  0.4303300000000  0.5654690000000  0.5114340000000 1.0
C      1  0.4379550000000  0.5683360000000  0.5388790000000 1.0
C      1  0.4791920000000  0.4275200000000  0.5694400000000 1.0
C      1  0.5073230000000  0.5877980000000  0.5466310000000 1.0
C      1  0.5551450000000  0.4111600000000  0.5150460000000 1.0
C      1  0.4486780000000  0.5369060000000  0.4322530000000 1.0
C      1  0.5303240000000  0.5665160000000  0.4516810000000 1.0
C      1  0.4747840000000  0.4726960000000  0.5863300000000 1.0
C      1  0.4782410000000  0.4535000000000  0.4158480000000 1.0
END
