TITL C-4164243-3780-433 1.01587952872053 125000 -7135.1276460745 0 0 49 (C1) n - 1
REM
REM in /home/nfs/bkarasulu/CARBON/AIRSS/Generating-Clusters/ReaxFF-fromJPCA2015/Units_Real/with-SteepDescent/Only-C1/SD-CG/Try1-3A/FIRE-CG
REM
REM
REM
REM
REM
REM ./C.cell (11c1c37f851c82e70ff6c80c92926a4b)
REM
REM compiler GCC version 9.2.1 20190827 (Red Hat 9.2.1-1)
REM options -cpp -mtune=generic -march=x86-64 -g -O0 -fpre-include=/usr/include/finclude/math-vector-fortran.h
REM seed 898853031 1353144411 1028060678 615738686 1141405791 199894610 795699692 -1998842338 1598038006 1170057899 -2134814246 -582037899 1488092250 1993277516 457438269 1495136191 64531658 -1781765017 -1451049629 -426413074 884104853 -2130454220 1325909688 1601262380 -360894980 2084841945 -1669662312 -1995358069 -478000805 -1515418241 1197256229 230255395 -775598910
REM
CELL 1.54180   50.00000   50.00000   50.00000   90.00000   90.00000   90.00000
LATT -1
SFAC C  
C      1  0.4607780000000  0.4497340000000  0.5158710000000 1.0
C      1  0.4639510000000  0.4936560000000  0.4987570000000 1.0
C      1  0.4797740000000  0.5468170000000  0.4965170000000 1.0
C      1  0.4767240000000  0.4421500000000  0.4617270000000 1.0
C      1  0.5023500000000  0.5298600000000  0.5336700000000 1.0
C      1  0.4447910000000  0.5136300000000  0.4895540000000 1.0
C      1  0.4542960000000  0.5324430000000  0.5092600000000 1.0
C      1  0.5462580000000  0.5453920000000  0.5287200000000 1.0
C      1  0.4837600000000  0.4338390000000  0.5094600000000 1.0
C      1  0.4792650000000  0.4700370000000  0.4530790000000 1.0
C      1  0.4814900000000  0.5233470000000  0.5532060000000 1.0
C      1  0.5269400000000  0.4853420000000  0.5373440000000 1.0
C      1  0.5381910000000  0.5397050000000  0.4704160000000 1.0
C      1  0.4571830000000  0.4919730000000  0.5416900000000 1.0
C      1  0.4997290000000  0.5066090000000  0.5689950000000 1.0
C      1  0.5123760000000  0.5296920000000  0.4575030000000 1.0
C      1  0.4815790000000  0.5675910000000  0.4740640000000 1.0
C      1  0.5013500000000  0.5541750000000  0.5183700000000 1.0
C      1  0.5557300000000  0.4930730000000  0.4863790000000 1.0
C      1  0.5448970000000  0.5211010000000  0.5140400000000 1.0
C      1  0.5256010000000  0.4440510000000  0.5327080000000 1.0
C      1  0.5223870000000  0.4710560000000  0.4586960000000 1.0
C      1  0.5392380000000  0.5381900000000  0.5549830000000 1.0
C      1  0.4960270000000  0.5555590000000  0.4523730000000 1.0
C      1  0.5317930000000  0.5646580000000  0.4829840000000 1.0
C      1  0.4442730000000  0.5107040000000  0.4589540000000 1.0
C      1  0.4547820000000  0.4591450000000  0.4662640000000 1.0
C      1  0.4628380000000  0.4643560000000  0.5423120000000 1.0
C      1  0.5432330000000  0.4552260000000  0.4726540000000 1.0
C      1  0.5245490000000  0.5245030000000  0.5751610000000 1.0
C      1  0.5189310000000  0.5083220000000  0.5190970000000 1.0
C      1  0.4929010000000  0.5239340000000  0.4796860000000 1.0
C      1  0.5542030000000  0.5212800000000  0.4869140000000 1.0
C      1  0.5279890000000  0.5625110000000  0.5124080000000 1.0
C      1  0.4562730000000  0.5193480000000  0.5362490000000 1.0
C      1  0.5550440000000  0.4678850000000  0.4969400000000 1.0
C      1  0.5436600000000  0.4638690000000  0.5262500000000 1.0
C      1  0.5086020000000  0.5765650000000  0.4684310000000 1.0
C      1  0.4934680000000  0.4332490000000  0.4820270000000 1.0
C      1  0.5171160000000  0.4425570000000  0.4672760000000 1.0
C      1  0.4995850000000  0.4843230000000  0.4708990000000 1.0
C      1  0.4939320000000  0.4998040000000  0.4937630000000 1.0
C      1  0.5108600000000  0.5040730000000  0.4356280000000 1.0
C      1  0.4589560000000  0.4926270000000  0.4420750000000 1.0
C      1  0.4900650000000  0.4570300000000  0.5520760000000 1.0
C      1  0.4521430000000  0.4673440000000  0.4944570000000 1.0
C      1  0.4994300000000  0.4343210000000  0.5350610000000 1.0
C      1  0.4835660000000  0.5032630000000  0.4267270000000 1.0
C      1  0.5071440000000  0.4800800000000  0.5583230000000 1.0
END
