TITL C-4164245-3996-328 15.8510730897045 125000 -21770.6287392803 0 0 147 (C1) n - 1
REM
REM in /home/nfs/bkarasulu/CARBON/AIRSS/Generating-Clusters/ReaxFF-fromJPCA2015/Units_Real/with-SteepDescent/Only-C1/SD-CG/Try1-3A/FIRE-CG
REM
REM
REM
REM
REM
REM ./C.cell (11c1c37f851c82e70ff6c80c92926a4b)
REM
REM compiler GCC version 9.2.1 20190827 (Red Hat 9.2.1-1)
REM options -cpp -mtune=generic -march=x86-64 -g -O0 -fpre-include=/usr/include/finclude/math-vector-fortran.h
REM seed -291458309 1981574995 230205901 -1486269784 -627000814 -151459044 1659753731 826679064 1342038861 -161799403 -1810277059 -80121387 -1049419505 799611997 1294245854 1079980785 -64830075 1760823026 1249166195 -53217147 -1416749861 -1286155600 -2094417548 2014389080 -1260019597 564503669 -579846819 1395735179 -137161620 1431380745 -543087632 -585024175 -1583354900
REM
CELL 1.54180   50.00000   50.00000   50.00000   90.00000   90.00000   90.00000
LATT -1
SFAC C  
C      1  0.5119100000000  0.5373630000000  0.4029060000000 1.0
C      1  0.4668930000000  0.5058820000000  0.5961170000000 1.0
C      1  0.5364970000000  0.4568980000000  0.5906250000000 1.0
C      1  0.4908110000000  0.4373340000000  0.5767230000000 1.0
C      1  0.5963140000000  0.5429710000000  0.5094160000000 1.0
C      1  0.4506030000000  0.4672250000000  0.4309480000000 1.0
C      1  0.4943810000000  0.4159150000000  0.4667730000000 1.0
C      1  0.5202080000000  0.6013080000000  0.4908020000000 1.0
C      1  0.5025210000000  0.5084390000000  0.3932980000000 1.0
C      1  0.4521260000000  0.5761080000000  0.5467540000000 1.0
C      1  0.4291700000000  0.4844770000000  0.5620830000000 1.0
C      1  0.4881510000000  0.5741320000000  0.4301010000000 1.0
C      1  0.4636990000000  0.3931350000000  0.4916680000000 1.0
C      1  0.5395610000000  0.5903020000000  0.5125930000000 1.0
C      1  0.5238110000000  0.4682790000000  0.5194400000000 1.0
C      1  0.5455550000000  0.4992700000000  0.4822510000000 1.0
C      1  0.5209120000000  0.5552200000000  0.4655590000000 1.0
C      1  0.4438210000000  0.4675440000000  0.4840870000000 1.0
C      1  0.5455410000000  0.4197990000000  0.4965740000000 1.0
C      1  0.4738890000000  0.4264360000000  0.5561320000000 1.0
C      1  0.4800760000000  0.4842500000000  0.6048590000000 1.0
C      1  0.5152620000000  0.5470200000000  0.5885890000000 1.0
C      1  0.4685250000000  0.5863570000000  0.4444330000000 1.0
C      1  0.4050300000000  0.4980020000000  0.4645090000000 1.0
C      1  0.5314870000000  0.4158330000000  0.5226550000000 1.0
C      1  0.4410040000000  0.5869220000000  0.4896570000000 1.0
C      1  0.5226880000000  0.5052880000000  0.5406970000000 1.0
C      1  0.4211550000000  0.4693820000000  0.5379020000000 1.0
C      1  0.4925940000000  0.3987770000000  0.4920070000000 1.0
C      1  0.5961430000000  0.5033640000000  0.5455010000000 1.0
C      1  0.4327450000000  0.5547530000000  0.5297260000000 1.0
C      1  0.5843070000000  0.4420160000000  0.4722230000000 1.0
C      1  0.5077530000000  0.4665330000000  0.4649220000000 1.0
C      1  0.5485530000000  0.5121600000000  0.5430550000000 1.0
C      1  0.4973470000000  0.5661900000000  0.5722520000000 1.0
C      1  0.5248210000000  0.5435170000000  0.5199360000000 1.0
C      1  0.5819950000000  0.5326350000000  0.4589290000000 1.0
C      1  0.5467730000000  0.4706340000000  0.4858670000000 1.0
C      1  0.4264600000000  0.5663080000000  0.5028530000000 1.0
C      1  0.5936220000000  0.4715220000000  0.4732300000000 1.0
C      1  0.4152700000000  0.5471880000000  0.4835680000000 1.0
C      1  0.4655880000000  0.5967140000000  0.5303760000000 1.0
C      1  0.5198070000000  0.4358260000000  0.5747950000000 1.0
C      1  0.5322350000000  0.4827900000000  0.4131750000000 1.0
C      1  0.4641300000000  0.5748650000000  0.5718910000000 1.0
C      1  0.5412680000000  0.5865430000000  0.5419930000000 1.0
C      1  0.4150910000000  0.5041900000000  0.4345480000000 1.0
C      1  0.5879380000000  0.5224830000000  0.4871710000000 1.0
C      1  0.4152050000000  0.4894930000000  0.5180140000000 1.0
C      1  0.4810350000000  0.5042910000000  0.4127620000000 1.0
C      1  0.5301580000000  0.4502950000000  0.4974800000000 1.0
C      1  0.4293170000000  0.5136800000000  0.5629890000000 1.0
C      1  0.5074570000000  0.5011860000000  0.5627880000000 1.0
C      1  0.4471340000000  0.4081480000000  0.4704190000000 1.0
C      1  0.5034740000000  0.5519410000000  0.5288200000000 1.0
C      1  0.5082130000000  0.4560910000000  0.5401460000000 1.0
C      1  0.4744930000000  0.4759530000000  0.4147570000000 1.0
C      1  0.5518270000000  0.5791950000000  0.4479680000000 1.0
C      1  0.4515510000000  0.5320960000000  0.5134380000000 1.0
C      1  0.4903000000000  0.5472650000000  0.5532750000000 1.0
C      1  0.4846120000000  0.5516930000000  0.4082020000000 1.0
C      1  0.5473510000000  0.5301410000000  0.5213220000000 1.0
C      1  0.5237020000000  0.5810270000000  0.5651660000000 1.0
C      1  0.4728660000000  0.5467350000000  0.4984250000000 1.0
C      1  0.5182220000000  0.4847660000000  0.3935460000000 1.0
C      1  0.4441520000000  0.4284260000000  0.5574600000000 1.0
C      1  0.4934290000000  0.5653130000000  0.5065060000000 1.0
C      1  0.5062990000000  0.4989250000000  0.6094750000000 1.0
C      1  0.4069850000000  0.5197180000000  0.4912080000000 1.0
C      1  0.4859970000000  0.5926640000000  0.5102460000000 1.0
C      1  0.4665680000000  0.4194360000000  0.4526200000000 1.0
C      1  0.5402130000000  0.4691360000000  0.4569480000000 1.0
C      1  0.5579290000000  0.5731570000000  0.4988690000000 1.0
C      1  0.4732780000000  0.4883830000000  0.5267110000000 1.0
C      1  0.5648240000000  0.4313400000000  0.4531250000000 1.0
C      1  0.4279370000000  0.4405470000000  0.5354900000000 1.0
C      1  0.5490850000000  0.4958820000000  0.4538240000000 1.0
C      1  0.5464390000000  0.5512040000000  0.4789540000000 1.0
C      1  0.5954290000000  0.4845210000000  0.5226920000000 1.0
C      1  0.4455650000000  0.5059390000000  0.4697080000000 1.0
C      1  0.4028960000000  0.5149310000000  0.5224210000000 1.0
C      1  0.5308810000000  0.5056560000000  0.4358840000000 1.0
C      1  0.4602050000000  0.6015220000000  0.5036430000000 1.0
C      1  0.5663780000000  0.5721030000000  0.5435760000000 1.0
C      1  0.4639770000000  0.5268550000000  0.4630290000000 1.0
C      1  0.4700530000000  0.5294630000000  0.5565030000000 1.0
C      1  0.4620150000000  0.5141310000000  0.5335050000000 1.0
C      1  0.5786680000000  0.5660750000000  0.5172780000000 1.0
C      1  0.5822360000000  0.5115280000000  0.4389480000000 1.0
C      1  0.5838500000000  0.4577740000000  0.5355820000000 1.0
C      1  0.4315550000000  0.5631410000000  0.4510350000000 1.0
C      1  0.5659230000000  0.5557770000000  0.5692580000000 1.0
C      1  0.5353900000000  0.4545390000000  0.4140240000000 1.0
C      1  0.5690150000000  0.5010930000000  0.5635360000000 1.0
C      1  0.4353350000000  0.4402110000000  0.5820620000000 1.0
C      1  0.4582250000000  0.4803790000000  0.4612630000000 1.0
C      1  0.4886870000000  0.4319180000000  0.5302520000000 1.0
C      1  0.5188060000000  0.4205500000000  0.4494970000000 1.0
C      1  0.4634890000000  0.4381120000000  0.4308450000000 1.0
C      1  0.5145650000000  0.4389990000000  0.4263940000000 1.0
C      1  0.5384930000000  0.5625980000000  0.5810800000000 1.0
C      1  0.5942170000000  0.4848970000000  0.4474000000000 1.0
C      1  0.4770340000000  0.4653540000000  0.5801950000000 1.0
C      1  0.5043230000000  0.5046020000000  0.4496270000000 1.0
C      1  0.4522250000000  0.5231600000000  0.5800940000000 1.0
C      1  0.4786790000000  0.4459340000000  0.5052410000000 1.0
C      1  0.5120140000000  0.5178390000000  0.5866490000000 1.0
C      1  0.4057420000000  0.4425560000000  0.4700440000000 1.0
C      1  0.4589670000000  0.4660430000000  0.5087400000000 1.0
C      1  0.4256210000000  0.4210080000000  0.5137420000000 1.0
C      1  0.4876470000000  0.4490720000000  0.4196680000000 1.0
C      1  0.4453590000000  0.4014680000000  0.5111370000000 1.0
C      1  0.4443640000000  0.5877990000000  0.4595810000000 1.0
C      1  0.5006770000000  0.5520600000000  0.4467980000000 1.0
C      1  0.5557780000000  0.5242450000000  0.4943390000000 1.0
C      1  0.4891350000000  0.4835640000000  0.4598150000000 1.0
C      1  0.4182320000000  0.5307570000000  0.5419610000000 1.0
C      1  0.5981930000000  0.5255390000000  0.5297320000000 1.0
C      1  0.5803230000000  0.4416590000000  0.5164490000000 1.0
C      1  0.4151790000000  0.4704580000000  0.4755740000000 1.0
C      1  0.5528100000000  0.4516160000000  0.4359200000000 1.0
C      1  0.4355820000000  0.5218140000000  0.4206850000000 1.0
C      1  0.4913990000000  0.4776930000000  0.5546230000000 1.0
C      1  0.5658440000000  0.5215390000000  0.4130000000000 1.0
C      1  0.5603960000000  0.4521780000000  0.5541240000000 1.0
C      1  0.5419890000000  0.5331800000000  0.4234210000000 1.0
C      1  0.4330690000000  0.5430370000000  0.4616640000000 1.0
C      1  0.5769860000000  0.4259450000000  0.4954940000000 1.0
C      1  0.4821950000000  0.5225750000000  0.4875810000000 1.0
C      1  0.5737550000000  0.5286330000000  0.5705920000000 1.0
C      1  0.5575760000000  0.4702140000000  0.5751460000000 1.0
C      1  0.5052940000000  0.4074060000000  0.5166530000000 1.0
C      1  0.4894160000000  0.5008040000000  0.5047800000000 1.0
C      1  0.5152040000000  0.4955610000000  0.5152830000000 1.0
C      1  0.4231030000000  0.4216280000000  0.4826260000000 1.0
C      1  0.4449510000000  0.4665190000000  0.5797990000000 1.0
C      1  0.5263430000000  0.4807920000000  0.6007840000000 1.0
C      1  0.4235340000000  0.4806780000000  0.4203670000000 1.0
C      1  0.5337440000000  0.4351260000000  0.5487340000000 1.0
C      1  0.4349160000000  0.5092980000000  0.4968920000000 1.0
C      1  0.5332570000000  0.5950250000000  0.4638940000000 1.0
C      1  0.5601900000000  0.5494440000000  0.4483320000000 1.0
C      1  0.4846150000000  0.5236070000000  0.4399940000000 1.0
C      1  0.4996960000000  0.4453480000000  0.4837040000000 1.0
C      1  0.5421550000000  0.4173840000000  0.4654290000000 1.0
C      1  0.5941560000000  0.4921670000000  0.4949710000000 1.0
C      1  0.4563910000000  0.5367290000000  0.4095830000000 1.0
END
