TITL C-4164235-1454-186 2.95331285022221 125000 -2263.76771869778 0 0 17 (C1) n - 1
REM
REM in /home/nfs/bkarasulu/CARBON/AIRSS/Generating-Clusters/ReaxFF-fromJPCA2015/Units_Real/with-SteepDescent/Only-C1/SD-CG/Try1-3A/FIRE-CG
REM
REM
REM
REM
REM
REM ./C.cell (11c1c37f851c82e70ff6c80c92926a4b)
REM
REM compiler GCC version 9.2.1 20190827 (Red Hat 9.2.1-1)
REM options -cpp -mtune=generic -march=x86-64 -g -O0 -fpre-include=/usr/include/finclude/math-vector-fortran.h
REM seed 5182000 1933989184 634202363 -1840191093 -773855941 -1732983917 1167461311 2078708565 1179594828 2065390076 1247739488 -251191582 -508512105 -735350296 -1044687953 -879906818 765354172 349561135 -1630264275 -3914788 301880385 919184609 -1036281284 -442755236 -425021405 1217753349 42834822 -287993204 -956694117 -863074380 -507402644 -1118353217 1718789623
REM
CELL 1.54180   50.00000   50.00000   50.00000   90.00000   90.00000   90.00000
LATT -1
SFAC C  
C      1  0.4759010000000  0.4661470000000  0.5374460000000 1.0
C      1  0.4470200000000  0.4665120000000  0.5282610000000 1.0
C      1  0.5725430000000  0.5239700000000  0.4653510000000 1.0
C      1  0.4930730000000  0.5164830000000  0.5250500000000 1.0
C      1  0.5225560000000  0.5191880000000  0.5294610000000 1.0
C      1  0.4565430000000  0.4521350000000  0.5029270000000 1.0
C      1  0.5554970000000  0.5222090000000  0.4893440000000 1.0
C      1  0.5495830000000  0.5399230000000  0.4519740000000 1.0
C      1  0.5199680000000  0.4953200000000  0.5505810000000 1.0
C      1  0.4918040000000  0.4925300000000  0.5437830000000 1.0
C      1  0.4810360000000  0.5158700000000  0.5000020000000 1.0
C      1  0.5321420000000  0.5522570000000  0.4413380000000 1.0
C      1  0.4531310000000  0.4655970000000  0.4754770000000 1.0
C      1  0.5397340000000  0.5207630000000  0.5085410000000 1.0
C      1  0.4842630000000  0.4475630000000  0.5148140000000 1.0
C      1  0.4562370000000  0.4891110000000  0.4602890000000 1.0
C      1  0.4689680000000  0.5144220000000  0.4753620000000 1.0
END
