TITL C-4164245-3996-417 -2.72782366328048 125000 -5344.00675821783 0 0 38 (C1) n - 1
REM
REM in /home/nfs/bkarasulu/CARBON/AIRSS/Generating-Clusters/ReaxFF-fromJPCA2015/Units_Real/with-SteepDescent/Only-C1/SD-CG/Try1-3A/FIRE-CG
REM
REM
REM
REM
REM
REM ./C.cell (11c1c37f851c82e70ff6c80c92926a4b)
REM
REM compiler GCC version 9.2.1 20190827 (Red Hat 9.2.1-1)
REM options -cpp -mtune=generic -march=x86-64 -g -O0 -fpre-include=/usr/include/finclude/math-vector-fortran.h
REM seed 1554389169 17490500 770483432 859008519 -822236268 144839273 681475092 -1011999444 198005663 -1243885535 837435592 1099955550 -1210441644 383523463 757523383 -1272721714 -665039121 -95923285 -995839528 1003778058 1553116711 -1669778165 -513155656 2021918646 -1512084541 -1260836086 349255119 317822190 84896130 -1280700821 -1841146420 -839139468 -2098186245
REM
CELL 1.54180   50.00000   50.00000   50.00000   90.00000   90.00000   90.00000
LATT -1
SFAC C  
C      1  0.5279990000000  0.5603130000000  0.5063930000000 1.0
C      1  0.4605400000000  0.4782870000000  0.5216830000000 1.0
C      1  0.4553920000000  0.5370960000000  0.5369220000000 1.0
C      1  0.5150660000000  0.4603350000000  0.4670470000000 1.0
C      1  0.4720710000000  0.4778700000000  0.4469850000000 1.0
C      1  0.4678930000000  0.5426140000000  0.5128690000000 1.0
C      1  0.4870650000000  0.5343290000000  0.4895440000000 1.0
C      1  0.5308920000000  0.5483590000000  0.5309810000000 1.0
C      1  0.5081150000000  0.5544760000000  0.4872260000000 1.0
C      1  0.4510140000000  0.5059700000000  0.4814600000000 1.0
C      1  0.4804050000000  0.5041880000000  0.4439080000000 1.0
C      1  0.5024810000000  0.4778110000000  0.4885870000000 1.0
C      1  0.5233680000000  0.4937500000000  0.5436350000000 1.0
C      1  0.5345090000000  0.5087090000000  0.4484080000000 1.0
C      1  0.5495020000000  0.5028230000000  0.4722860000000 1.0
C      1  0.4403490000000  0.4887810000000  0.5016800000000 1.0
C      1  0.5317760000000  0.4754460000000  0.5230450000000 1.0
C      1  0.5665400000000  0.4650980000000  0.5032620000000 1.0
C      1  0.5466260000000  0.5305060000000  0.4660050000000 1.0
C      1  0.4892210000000  0.5231950000000  0.5686760000000 1.0
C      1  0.4649720000000  0.4475010000000  0.4853220000000 1.0
C      1  0.4659850000000  0.5152280000000  0.5578480000000 1.0
C      1  0.4442070000000  0.4659630000000  0.4848180000000 1.0
C      1  0.5341880000000  0.5443130000000  0.5565620000000 1.0
C      1  0.4712330000000  0.4886490000000  0.5458880000000 1.0
C      1  0.5093050000000  0.4971950000000  0.4381160000000 1.0
C      1  0.4815310000000  0.4604120000000  0.5084440000000 1.0
C      1  0.4988240000000  0.4455810000000  0.4479280000000 1.0
C      1  0.5496240000000  0.4828600000000  0.4981720000000 1.0
C      1  0.4678170000000  0.5213570000000  0.4658580000000 1.0
C      1  0.5064660000000  0.4595980000000  0.5265500000000 1.0
C      1  0.4988440000000  0.4776790000000  0.5484250000000 1.0
C      1  0.5335070000000  0.5530010000000  0.4785680000000 1.0
C      1  0.5154730000000  0.4684870000000  0.4392350000000 1.0
C      1  0.5343740000000  0.5168570000000  0.5569630000000 1.0
C      1  0.4700620000000  0.4506420000000  0.4555350000000 1.0
C      1  0.4984970000000  0.5053560000000  0.4896780000000 1.0
C      1  0.5142700000000  0.5293670000000  0.5754870000000 1.0
END
