TITL C-4164243-3780-403 161.523875543622 125000 -27960.7534749768 0 0 192 (C1) n - 1
REM
REM in /home/nfs/bkarasulu/CARBON/AIRSS/Generating-Clusters/ReaxFF-fromJPCA2015/Units_Real/with-SteepDescent/Only-C1/SD-CG/Try1-3A/FIRE-CG
REM
REM
REM
REM
REM
REM ./C.cell (11c1c37f851c82e70ff6c80c92926a4b)
REM
REM compiler GCC version 9.2.1 20190827 (Red Hat 9.2.1-1)
REM options -cpp -mtune=generic -march=x86-64 -g -O0 -fpre-include=/usr/include/finclude/math-vector-fortran.h
REM seed 1805933516 -868592509 -4699932 -127011500 291550899 -1070546578 -1219804670 -1304100679 -2051069090 1001354367 -211183268 -1364896753 -364317725 507590902 -873022529 345264952 -603983176 359095956 -1648160769 1659387442 231032227 -1785432374 1445372399 775872351 1150527891 -896941216 911306474 -932283397 1571366193 929564459 -3759293 -342646337 -1729588420
REM
CELL 1.54180   50.00000   50.00000   50.00000   90.00000   90.00000   90.00000
LATT -1
SFAC C  
C      1  0.3926660000000  0.4655530000000  0.5330250000000 1.0
C      1  0.4528500000000  0.4114630000000  0.4663050000000 1.0
C      1  0.4551180000000  0.4662220000000  0.5457660000000 1.0
C      1  0.4615720000000  0.4422420000000  0.5884210000000 1.0
C      1  0.5628010000000  0.5590910000000  0.5961340000000 1.0
C      1  0.5220740000000  0.5506160000000  0.5206310000000 1.0
C      1  0.4759170000000  0.4525320000000  0.4106390000000 1.0
C      1  0.5252640000000  0.4540810000000  0.5210780000000 1.0
C      1  0.4529190000000  0.5475210000000  0.4337950000000 1.0
C      1  0.5502730000000  0.5505380000000  0.4793980000000 1.0
C      1  0.4085090000000  0.5745710000000  0.4811360000000 1.0
C      1  0.4227360000000  0.5193570000000  0.4168330000000 1.0
C      1  0.5846370000000  0.5457610000000  0.5508400000000 1.0
C      1  0.5105010000000  0.5372810000000  0.5623840000000 1.0
C      1  0.5938420000000  0.4401670000000  0.4608660000000 1.0
C      1  0.5454790000000  0.5692690000000  0.4195450000000 1.0
C      1  0.5212930000000  0.5842250000000  0.4307900000000 1.0
C      1  0.4593260000000  0.4114790000000  0.5219170000000 1.0
C      1  0.5013640000000  0.5588100000000  0.3998010000000 1.0
C      1  0.4577470000000  0.5018290000000  0.4872070000000 1.0
C      1  0.5871910000000  0.4513080000000  0.5367850000000 1.0
C      1  0.5176240000000  0.4513820000000  0.3992820000000 1.0
C      1  0.5200660000000  0.4971020000000  0.6230030000000 1.0
C      1  0.4212710000000  0.5262790000000  0.5619740000000 1.0
C      1  0.4829990000000  0.4746810000000  0.3915890000000 1.0
C      1  0.5626330000000  0.4016020000000  0.5336070000000 1.0
C      1  0.4175210000000  0.4395830000000  0.5050200000000 1.0
C      1  0.4377040000000  0.4543640000000  0.4615610000000 1.0
C      1  0.4350570000000  0.4962490000000  0.4022500000000 1.0
C      1  0.3907770000000  0.5330930000000  0.4863810000000 1.0
C      1  0.5666680000000  0.4446320000000  0.4582990000000 1.0
C      1  0.5738540000000  0.4976090000000  0.4159880000000 1.0
C      1  0.3959220000000  0.4773130000000  0.4792040000000 1.0
C      1  0.5744520000000  0.5664740000000  0.5686470000000 1.0
C      1  0.4523140000000  0.4190500000000  0.4950540000000 1.0
C      1  0.4907870000000  0.5168350000000  0.4441440000000 1.0
C      1  0.4916020000000  0.4886650000000  0.4500600000000 1.0
C      1  0.5477010000000  0.4907720000000  0.5789130000000 1.0
C      1  0.4250760000000  0.5785290000000  0.5291650000000 1.0
C      1  0.4026040000000  0.5316410000000  0.5403530000000 1.0
C      1  0.5653070000000  0.4708060000000  0.4241640000000 1.0
C      1  0.4464500000000  0.5355140000000  0.4098310000000 1.0
C      1  0.4472890000000  0.4823900000000  0.5218620000000 1.0
C      1  0.5333510000000  0.5073400000000  0.5017000000000 1.0
C      1  0.4058230000000  0.4460720000000  0.5483820000000 1.0
C      1  0.4167550000000  0.4255530000000  0.5303420000000 1.0
C      1  0.5281000000000  0.4994810000000  0.4362270000000 1.0
C      1  0.5307950000000  0.4082800000000  0.4288690000000 1.0
C      1  0.5329170000000  0.5437250000000  0.5464550000000 1.0
C      1  0.4889050000000  0.4176810000000  0.4289650000000 1.0
C      1  0.4634580000000  0.4965020000000  0.3919920000000 1.0
C      1  0.5333710000000  0.5654320000000  0.4983050000000 1.0
C      1  0.5340200000000  0.5628130000000  0.5907480000000 1.0
C      1  0.5728660000000  0.5801940000000  0.4501950000000 1.0
C      1  0.5790350000000  0.5406800000000  0.4810550000000 1.0
C      1  0.4491180000000  0.5714490000000  0.4462930000000 1.0
C      1  0.4989250000000  0.3885450000000  0.4953690000000 1.0
C      1  0.4744480000000  0.4829840000000  0.5657290000000 1.0
C      1  0.4822430000000  0.5957550000000  0.5128300000000 1.0
C      1  0.4124240000000  0.5121000000000  0.4430370000000 1.0
C      1  0.4933670000000  0.4562230000000  0.6126650000000 1.0
C      1  0.5864210000000  0.4580940000000  0.5970280000000 1.0
C      1  0.5286030000000  0.4785480000000  0.5594960000000 1.0
C      1  0.4818370000000  0.5461050000000  0.4982330000000 1.0
C      1  0.5292490000000  0.5573140000000  0.4006930000000 1.0
C      1  0.4732270000000  0.5872340000000  0.4407270000000 1.0
C      1  0.4045610000000  0.5086630000000  0.4711040000000 1.0
C      1  0.5987460000000  0.5586780000000  0.5268220000000 1.0
C      1  0.5096530000000  0.4251180000000  0.4120550000000 1.0
C      1  0.6026530000000  0.5488470000000  0.4989180000000 1.0
C      1  0.4925560000000  0.4822390000000  0.6219980000000 1.0
C      1  0.4701520000000  0.5612210000000  0.5926760000000 1.0
C      1  0.5522080000000  0.4232800000000  0.4392940000000 1.0
C      1  0.4713430000000  0.5232340000000  0.3968410000000 1.0
C      1  0.4896620000000  0.4643470000000  0.4912890000000 1.0
C      1  0.4884580000000  0.5982500000000  0.4619920000000 1.0
C      1  0.4291120000000  0.4802100000000  0.4251570000000 1.0
C      1  0.3968230000000  0.5441140000000  0.5140820000000 1.0
C      1  0.5203800000000  0.4427230000000  0.4655500000000 1.0
C      1  0.4946040000000  0.4891490000000  0.5238240000000 1.0
C      1  0.5582200000000  0.5283720000000  0.5441020000000 1.0
C      1  0.4399390000000  0.5464550000000  0.4927510000000 1.0
C      1  0.4772670000000  0.4037190000000  0.4513880000000 1.0
C      1  0.4256070000000  0.4564910000000  0.4101970000000 1.0
C      1  0.4497300000000  0.4405330000000  0.4049640000000 1.0
C      1  0.5546500000000  0.4042310000000  0.4930910000000 1.0
C      1  0.5784970000000  0.5145450000000  0.5009580000000 1.0
C      1  0.4033090000000  0.5722780000000  0.5099530000000 1.0
C      1  0.4602610000000  0.4722670000000  0.4976030000000 1.0
C      1  0.5874570000000  0.5118700000000  0.4396800000000 1.0
C      1  0.4956730000000  0.5548430000000  0.4561830000000 1.0
C      1  0.5157020000000  0.5358380000000  0.5926560000000 1.0
C      1  0.4766890000000  0.5852490000000  0.5777400000000 1.0
C      1  0.4976840000000  0.4382360000000  0.4812930000000 1.0
C      1  0.5261740000000  0.4186020000000  0.5626820000000 1.0
C      1  0.4295020000000  0.4295700000000  0.4225970000000 1.0
C      1  0.4280480000000  0.5018780000000  0.5160700000000 1.0
C      1  0.4817380000000  0.4501500000000  0.5418620000000 1.0
C      1  0.4943890000000  0.5808460000000  0.4205790000000 1.0
C      1  0.4435130000000  0.4466020000000  0.4930990000000 1.0
C      1  0.4980110000000  0.3874830000000  0.4660910000000 1.0
C      1  0.5385500000000  0.5370990000000  0.4576560000000 1.0
C      1  0.3869240000000  0.5563200000000  0.4687120000000 1.0
C      1  0.5098840000000  0.5347830000000  0.4548730000000 1.0
C      1  0.5735780000000  0.5602170000000  0.4313930000000 1.0
C      1  0.5310210000000  0.5085740000000  0.5992340000000 1.0
C      1  0.5441660000000  0.3870500000000  0.5146140000000 1.0
C      1  0.4512790000000  0.5386580000000  0.5880910000000 1.0
C      1  0.4489240000000  0.5582550000000  0.5187110000000 1.0
C      1  0.5152560000000  0.4564230000000  0.4413530000000 1.0
C      1  0.3978200000000  0.4865410000000  0.5501200000000 1.0
C      1  0.5836490000000  0.5393030000000  0.4485300000000 1.0
C      1  0.5516910000000  0.5150980000000  0.4077060000000 1.0
C      1  0.6143770000000  0.4746530000000  0.4873970000000 1.0
C      1  0.4527630000000  0.5038660000000  0.4591640000000 1.0
C      1  0.5829930000000  0.4501900000000  0.4360640000000 1.0
C      1  0.4886420000000  0.6102010000000  0.4889650000000 1.0
C      1  0.4988270000000  0.4640290000000  0.5195420000000 1.0
C      1  0.4446340000000  0.4281730000000  0.5699870000000 1.0
C      1  0.5316870000000  0.4164890000000  0.4757910000000 1.0
C      1  0.4526280000000  0.5284420000000  0.5586500000000 1.0
C      1  0.5234590000000  0.3956730000000  0.4550350000000 1.0
C      1  0.5546570000000  0.4192200000000  0.5559450000000 1.0
C      1  0.4676400000000  0.5222730000000  0.6049290000000 1.0
C      1  0.5923860000000  0.5063170000000  0.5487350000000 1.0
C      1  0.4906080000000  0.5129200000000  0.5278770000000 1.0
C      1  0.5617870000000  0.5956320000000  0.5279650000000 1.0
C      1  0.5074960000000  0.4067050000000  0.5405690000000 1.0
C      1  0.5562440000000  0.5142350000000  0.5161680000000 1.0
C      1  0.5888990000000  0.4957640000000  0.4638610000000 1.0
C      1  0.4681360000000  0.4944410000000  0.6094280000000 1.0
C      1  0.5064960000000  0.4827050000000  0.4736810000000 1.0
C      1  0.6131030000000  0.5010540000000  0.4808020000000 1.0
C      1  0.3980050000000  0.4614650000000  0.5043190000000 1.0
C      1  0.6060510000000  0.4477860000000  0.4866600000000 1.0
C      1  0.5999830000000  0.5101370000000  0.5208980000000 1.0
C      1  0.4881640000000  0.4332600000000  0.5974940000000 1.0
C      1  0.5737970000000  0.4416160000000  0.5613680000000 1.0
C      1  0.6179700000000  0.5239770000000  0.5016470000000 1.0
C      1  0.5812220000000  0.5778400000000  0.5199240000000 1.0
C      1  0.4911320000000  0.5542180000000  0.5492690000000 1.0
C      1  0.4649820000000  0.6253390000000  0.4919220000000 1.0
C      1  0.5250420000000  0.5939370000000  0.4964040000000 1.0
C      1  0.5115120000000  0.4383560000000  0.5786650000000 1.0
C      1  0.4368750000000  0.5944460000000  0.5462570000000 1.0
C      1  0.5227680000000  0.4254470000000  0.5214780000000 1.0
C      1  0.4653820000000  0.5287420000000  0.4505600000000 1.0
C      1  0.4712600000000  0.5709500000000  0.5032940000000 1.0
C      1  0.4844460000000  0.6019120000000  0.5404320000000 1.0
C      1  0.4991870000000  0.5829810000000  0.5575520000000 1.0
C      1  0.4882550000000  0.5416510000000  0.6050970000000 1.0
C      1  0.5425940000000  0.6093490000000  0.5106150000000 1.0
C      1  0.4007240000000  0.5051610000000  0.5277510000000 1.0
C      1  0.4315900000000  0.4522450000000  0.5614600000000 1.0
C      1  0.5476760000000  0.5195040000000  0.4371280000000 1.0
C      1  0.5120990000000  0.4792890000000  0.3932480000000 1.0
C      1  0.4809390000000  0.5192120000000  0.4983140000000 1.0
C      1  0.5035960000000  0.4637630000000  0.5648800000000 1.0
C      1  0.5690720000000  0.4729880000000  0.5276580000000 1.0
C      1  0.4087360000000  0.4574910000000  0.4648970000000 1.0
C      1  0.5372340000000  0.4724600000000  0.4309460000000 1.0
C      1  0.4403560000000  0.4136590000000  0.5419670000000 1.0
C      1  0.4361370000000  0.4886490000000  0.5847580000000 1.0
C      1  0.4582330000000  0.4766980000000  0.5896150000000 1.0
C      1  0.5054260000000  0.4176460000000  0.4984970000000 1.0
C      1  0.5628050000000  0.4762680000000  0.5010120000000 1.0
C      1  0.4611280000000  0.6017290000000  0.5589020000000 1.0
C      1  0.4651930000000  0.5468290000000  0.5406260000000 1.0
C      1  0.4356410000000  0.5669100000000  0.4725390000000 1.0
C      1  0.5331840000000  0.4932060000000  0.4754420000000 1.0
C      1  0.4321210000000  0.4258330000000  0.4513820000000 1.0
C      1  0.5097830000000  0.5795120000000  0.4584690000000 1.0
C      1  0.5439520000000  0.6108160000000  0.4821640000000 1.0
C      1  0.5152870000000  0.3844830000000  0.5187040000000 1.0
C      1  0.4153760000000  0.4991920000000  0.5716540000000 1.0
C      1  0.5759800000000  0.4147330000000  0.5103700000000 1.0
C      1  0.4319860000000  0.5179250000000  0.4915140000000 1.0
C      1  0.4486480000000  0.4792030000000  0.4455820000000 1.0
C      1  0.4994770000000  0.5297350000000  0.3983570000000 1.0
C      1  0.4740190000000  0.5090930000000  0.5539050000000 1.0
C      1  0.5697520000000  0.5083370000000  0.5653520000000 1.0
C      1  0.5151430000000  0.5227360000000  0.5177160000000 1.0
C      1  0.5602880000000  0.5959530000000  0.4654200000000 1.0
C      1  0.5623110000000  0.4781540000000  0.4731110000000 1.0
C      1  0.5667580000000  0.4627550000000  0.5823300000000 1.0
C      1  0.5224860000000  0.5066450000000  0.4051450000000 1.0
C      1  0.5408430000000  0.4717780000000  0.5349510000000 1.0
C      1  0.5547160000000  0.5851660000000  0.5564330000000 1.0
C      1  0.5299300000000  0.5817300000000  0.5695180000000 1.0
C      1  0.4859420000000  0.4628540000000  0.4368640000000 1.0
C      1  0.5942370000000  0.4370640000000  0.5125240000000 1.0
C      1  0.4803830000000  0.4211670000000  0.5373750000000 1.0
END
