TITL C-4164232-771-587 8.84287133666358 125000 -10433.1149499413 0 0 71 (C1) n - 1
REM
REM in /home/nfs/bkarasulu/CARBON/AIRSS/Generating-Clusters/ReaxFF-fromJPCA2015/Units_Real/with-SteepDescent/Only-C1/SD-CG/Try1-3A/FIRE-CG
REM
REM
REM
REM
REM
REM ./C.cell (11c1c37f851c82e70ff6c80c92926a4b)
REM
REM compiler GCC version 9.2.1 20190827 (Red Hat 9.2.1-1)
REM options -cpp -mtune=generic -march=x86-64 -g -O0 -fpre-include=/usr/include/finclude/math-vector-fortran.h
REM seed -2012999266 -1149808259 481920586 -1100961640 743446659 1373063773 -1507443253 -1651151953 -1969645435 -1994756773 1284453049 921778570 550750153 -1878764859 350007932 757360239 -2070423397 490105637 630993287 445020492 -815354980 -989728979 1614864618 -477497309 139620344 83250380 124867400 -1323764345 -2110494683 657500064 -840378506 -1947585943 -1375454520
REM
CELL 1.54180   50.00000   50.00000   50.00000   90.00000   90.00000   90.00000
LATT -1
SFAC C  
C      1  0.5165860000000  0.4953460000000  0.5276020000000 1.0
C      1  0.4300360000000  0.5106190000000  0.4905540000000 1.0
C      1  0.4832140000000  0.4610690000000  0.5437010000000 1.0
C      1  0.4826800000000  0.4994560000000  0.5745000000000 1.0
C      1  0.4779920000000  0.5477860000000  0.4338420000000 1.0
C      1  0.4438340000000  0.4561830000000  0.4789410000000 1.0
C      1  0.5547240000000  0.4597380000000  0.5443420000000 1.0
C      1  0.5568380000000  0.4890900000000  0.5470040000000 1.0
C      1  0.4442270000000  0.5088270000000  0.5429600000000 1.0
C      1  0.4349540000000  0.4857070000000  0.4753990000000 1.0
C      1  0.4961670000000  0.5586340000000  0.4523710000000 1.0
C      1  0.4683880000000  0.5617220000000  0.5327150000000 1.0
C      1  0.4785230000000  0.5449750000000  0.5554460000000 1.0
C      1  0.5241170000000  0.4955570000000  0.4597090000000 1.0
C      1  0.4522110000000  0.5558310000000  0.4844070000000 1.0
C      1  0.5625530000000  0.5350530000000  0.5220520000000 1.0
C      1  0.5076340000000  0.5476910000000  0.5539030000000 1.0
C      1  0.5050780000000  0.4565980000000  0.4784800000000 1.0
C      1  0.5562770000000  0.4612230000000  0.4701660000000 1.0
C      1  0.4324900000000  0.4529610000000  0.5412520000000 1.0
C      1  0.5208550000000  0.4707960000000  0.5131350000000 1.0
C      1  0.5771570000000  0.4934670000000  0.5006120000000 1.0
C      1  0.5478400000000  0.5378700000000  0.5452220000000 1.0
C      1  0.4881840000000  0.4806640000000  0.4348660000000 1.0
C      1  0.5309050000000  0.4443690000000  0.4763400000000 1.0
C      1  0.5305460000000  0.5009390000000  0.5563800000000 1.0
C      1  0.4959310000000  0.4409800000000  0.4995540000000 1.0
C      1  0.5187320000000  0.5410880000000  0.4601890000000 1.0
C      1  0.4408730000000  0.4816070000000  0.5330020000000 1.0
C      1  0.5089680000000  0.5419940000000  0.5244000000000 1.0
C      1  0.4662020000000  0.4709840000000  0.5224140000000 1.0
C      1  0.5117070000000  0.4971850000000  0.5803450000000 1.0
C      1  0.5428300000000  0.5314910000000  0.4476540000000 1.0
C      1  0.4388850000000  0.4536990000000  0.4486860000000 1.0
C      1  0.4310260000000  0.5366900000000  0.4751870000000 1.0
C      1  0.5299440000000  0.5316300000000  0.5653580000000 1.0
C      1  0.4642870000000  0.4452300000000  0.4588180000000 1.0
C      1  0.5625960000000  0.4853510000000  0.4553430000000 1.0
C      1  0.4894970000000  0.5399130000000  0.4075400000000 1.0
C      1  0.4997710000000  0.5738200000000  0.4901200000000 1.0
C      1  0.4658970000000  0.4464930000000  0.5038590000000 1.0
C      1  0.5230740000000  0.5575040000000  0.5033260000000 1.0
C      1  0.5078870000000  0.4690020000000  0.5849690000000 1.0
C      1  0.4498930000000  0.5488370000000  0.5129730000000 1.0
C      1  0.5114370000000  0.4925690000000  0.4219100000000 1.0
C      1  0.5718900000000  0.5055380000000  0.4745900000000 1.0
C      1  0.5409760000000  0.5017530000000  0.4370940000000 1.0
C      1  0.5360500000000  0.4284230000000  0.5000240000000 1.0
C      1  0.4878620000000  0.5080670000000  0.4908940000000 1.0
C      1  0.4390650000000  0.5217400000000  0.5174730000000 1.0
C      1  0.4819480000000  0.4699380000000  0.5715230000000 1.0
C      1  0.5134380000000  0.5161640000000  0.4759760000000 1.0
C      1  0.4633750000000  0.5236510000000  0.4441690000000 1.0
C      1  0.4779270000000  0.5656010000000  0.4715350000000 1.0
C      1  0.5316890000000  0.4459490000000  0.5509460000000 1.0
C      1  0.5689090000000  0.5055180000000  0.5263600000000 1.0
C      1  0.4477330000000  0.4330210000000  0.5255930000000 1.0
C      1  0.5062960000000  0.4487040000000  0.5288690000000 1.0
C      1  0.4983190000000  0.5146580000000  0.5181320000000 1.0
C      1  0.4870910000000  0.5751780000000  0.5156080000000 1.0
C      1  0.4386250000000  0.4830450000000  0.4463510000000 1.0
C      1  0.4665780000000  0.5188190000000  0.5599060000000 1.0
C      1  0.5584740000000  0.5321600000000  0.4724030000000 1.0
C      1  0.5259470000000  0.4534990000000  0.5719540000000 1.0
C      1  0.5039150000000  0.5140760000000  0.4032850000000 1.0
C      1  0.5491700000000  0.4551450000000  0.5147570000000 1.0
C      1  0.4713010000000  0.5153990000000  0.4699610000000 1.0
C      1  0.5692550000000  0.4659290000000  0.4953690000000 1.0
C      1  0.5490160000000  0.5456250000000  0.4971840000000 1.0
C      1  0.4893550000000  0.4587460000000  0.4544450000000 1.0
C      1  0.4623510000000  0.4954150000000  0.4340490000000 1.0
END
