TITL C-4164243-3780-338 30.5766328601711 125000 -20254.5364710092 0 0 138 (C1) n - 1
REM
REM in /home/nfs/bkarasulu/CARBON/AIRSS/Generating-Clusters/ReaxFF-fromJPCA2015/Units_Real/with-SteepDescent/Only-C1/SD-CG/Try1-3A/FIRE-CG
REM
REM
REM
REM
REM
REM ./C.cell (11c1c37f851c82e70ff6c80c92926a4b)
REM
REM compiler GCC version 9.2.1 20190827 (Red Hat 9.2.1-1)
REM options -cpp -mtune=generic -march=x86-64 -g -O0 -fpre-include=/usr/include/finclude/math-vector-fortran.h
REM seed 1391044548 1052322725 862433476 755577521 -223760101 258347933 1967131778 -190764593 1129949591 1500357797 -947398567 -209623774 -1317516602 -561264699 -916744171 -2062357717 79860829 -258707297 641732361 1537622928 158051720 -2132771248 -1618601220 -1974280511 -1270047806 -1502801990 1769697839 -1111114157 -1212639682 -330138188 344473129 745483072 2144475390
REM
CELL 1.54180   50.00000   50.00000   50.00000   90.00000   90.00000   90.00000
LATT -1
SFAC C  
C      1  0.4929160000000  0.4899930000000  0.4033260000000 1.0
C      1  0.4414780000000  0.4621340000000  0.4925780000000 1.0
C      1  0.5971400000000  0.5374200000000  0.4489330000000 1.0
C      1  0.5584630000000  0.4879170000000  0.5051850000000 1.0
C      1  0.5033690000000  0.4469240000000  0.5862810000000 1.0
C      1  0.4194760000000  0.5019360000000  0.5493860000000 1.0
C      1  0.5793240000000  0.5479750000000  0.5472090000000 1.0
C      1  0.5465550000000  0.4036750000000  0.4901320000000 1.0
C      1  0.4830010000000  0.5196710000000  0.6021810000000 1.0
C      1  0.4617050000000  0.4179860000000  0.5578710000000 1.0
C      1  0.6168690000000  0.5193850000000  0.4892090000000 1.0
C      1  0.5273260000000  0.5705540000000  0.5526290000000 1.0
C      1  0.5362580000000  0.5851080000000  0.4993940000000 1.0
C      1  0.4176530000000  0.5190120000000  0.4543140000000 1.0
C      1  0.5746220000000  0.5200940000000  0.5601050000000 1.0
C      1  0.5000190000000  0.4985220000000  0.5014440000000 1.0
C      1  0.4275010000000  0.4586660000000  0.5638440000000 1.0
C      1  0.5184260000000  0.5473690000000  0.4893800000000 1.0
C      1  0.4857340000000  0.4296510000000  0.5487000000000 1.0
C      1  0.4033300000000  0.4905410000000  0.5259520000000 1.0
C      1  0.4669820000000  0.5115350000000  0.4647300000000 1.0
C      1  0.4207860000000  0.4430740000000  0.5455250000000 1.0
C      1  0.5281720000000  0.4913430000000  0.5864670000000 1.0
C      1  0.5046960000000  0.4759080000000  0.5938430000000 1.0
C      1  0.4896790000000  0.5295890000000  0.4553520000000 1.0
C      1  0.4816440000000  0.5946240000000  0.4856450000000 1.0
C      1  0.5799020000000  0.4532990000000  0.5164090000000 1.0
C      1  0.4360180000000  0.4683470000000  0.5188390000000 1.0
C      1  0.4739960000000  0.5649160000000  0.5612820000000 1.0
C      1  0.5280650000000  0.5559710000000  0.4234170000000 1.0
C      1  0.5043320000000  0.4216970000000  0.5263580000000 1.0
C      1  0.5302830000000  0.5232400000000  0.5256070000000 1.0
C      1  0.4084800000000  0.4547800000000  0.4354870000000 1.0
C      1  0.5071580000000  0.4135190000000  0.4558660000000 1.0
C      1  0.4562210000000  0.5816860000000  0.4818570000000 1.0
C      1  0.4376950000000  0.5398200000000  0.5923160000000 1.0
C      1  0.4570190000000  0.5310160000000  0.6024140000000 1.0
C      1  0.4162080000000  0.5629920000000  0.4853400000000 1.0
C      1  0.5005950000000  0.3933260000000  0.4752410000000 1.0
C      1  0.5162850000000  0.4887740000000  0.5436130000000 1.0
C      1  0.5333840000000  0.5277170000000  0.4138570000000 1.0
C      1  0.4445150000000  0.4189170000000  0.5102590000000 1.0
C      1  0.5406930000000  0.4815290000000  0.5597380000000 1.0
C      1  0.5106330000000  0.4591660000000  0.4619990000000 1.0
C      1  0.4783830000000  0.4948410000000  0.4862090000000 1.0
C      1  0.4484150000000  0.5294600000000  0.4861450000000 1.0
C      1  0.5225290000000  0.3985770000000  0.5236630000000 1.0
C      1  0.4924490000000  0.5031480000000  0.5508670000000 1.0
C      1  0.5542030000000  0.5335480000000  0.5778460000000 1.0
C      1  0.5079750000000  0.5190300000000  0.4015960000000 1.0
C      1  0.4660980000000  0.5547340000000  0.4876840000000 1.0
C      1  0.4231210000000  0.5337280000000  0.5542150000000 1.0
C      1  0.4226900000000  0.5648300000000  0.5141490000000 1.0
C      1  0.5173170000000  0.4615050000000  0.4348910000000 1.0
C      1  0.5213350000000  0.5867060000000  0.5241280000000 1.0
C      1  0.5350770000000  0.5023280000000  0.4640920000000 1.0
C      1  0.4312250000000  0.5787890000000  0.4652940000000 1.0
C      1  0.5212450000000  0.3890130000000  0.4954110000000 1.0
C      1  0.4423750000000  0.5212150000000  0.5163800000000 1.0
C      1  0.4890690000000  0.4578960000000  0.5138690000000 1.0
C      1  0.5946050000000  0.4697470000000  0.4715600000000 1.0
C      1  0.5632050000000  0.4629940000000  0.4444340000000 1.0
C      1  0.5791120000000  0.4811390000000  0.5258210000000 1.0
C      1  0.4459490000000  0.4923590000000  0.5309580000000 1.0
C      1  0.4374770000000  0.4330430000000  0.4895140000000 1.0
C      1  0.4137380000000  0.4937100000000  0.4690670000000 1.0
C      1  0.5042260000000  0.4372720000000  0.5030550000000 1.0
C      1  0.5476590000000  0.4123550000000  0.5180790000000 1.0
C      1  0.4581030000000  0.4818850000000  0.5788460000000 1.0
C      1  0.4436020000000  0.4430330000000  0.4506650000000 1.0
C      1  0.4796850000000  0.4324970000000  0.5771840000000 1.0
C      1  0.5295010000000  0.4362650000000  0.5744060000000 1.0
C      1  0.4285860000000  0.4834820000000  0.5721800000000 1.0
C      1  0.4988850000000  0.5836390000000  0.4647070000000 1.0
C      1  0.4500900000000  0.5652440000000  0.5275630000000 1.0
C      1  0.5563280000000  0.5578140000000  0.5622210000000 1.0
C      1  0.5534100000000  0.4420170000000  0.5263270000000 1.0
C      1  0.4810110000000  0.4122940000000  0.4674780000000 1.0
C      1  0.6266700000000  0.5024970000000  0.5060550000000 1.0
C      1  0.5293380000000  0.5200450000000  0.5880420000000 1.0
C      1  0.5645330000000  0.4418550000000  0.4629300000000 1.0
C      1  0.5392630000000  0.4652660000000  0.5066320000000 1.0
C      1  0.5004850000000  0.5583310000000  0.5704860000000 1.0
C      1  0.6080820000000  0.5136620000000  0.4602220000000 1.0
C      1  0.4928470000000  0.5850890000000  0.5154250000000 1.0
C      1  0.4670150000000  0.4889480000000  0.5524510000000 1.0
C      1  0.5090670000000  0.4873950000000  0.4277940000000 1.0
C      1  0.5959650000000  0.4884840000000  0.4509820000000 1.0
C      1  0.5840220000000  0.4497690000000  0.4871340000000 1.0
C      1  0.4446210000000  0.5489490000000  0.5675020000000 1.0
C      1  0.4329920000000  0.5580070000000  0.4463750000000 1.0
C      1  0.4577830000000  0.4918800000000  0.4407660000000 1.0
C      1  0.5522410000000  0.5160820000000  0.5079110000000 1.0
C      1  0.5860570000000  0.5527440000000  0.5188870000000 1.0
C      1  0.4101580000000  0.4612450000000  0.5271180000000 1.0
C      1  0.4634600000000  0.4632170000000  0.4442940000000 1.0
C      1  0.5094520000000  0.5076840000000  0.4492320000000 1.0
C      1  0.4195700000000  0.4623320000000  0.4573890000000 1.0
C      1  0.4862310000000  0.5282630000000  0.5374670000000 1.0
C      1  0.4951280000000  0.4608410000000  0.3935030000000 1.0
C      1  0.4717790000000  0.4672870000000  0.4916710000000 1.0
C      1  0.5232690000000  0.5474350000000  0.5375080000000 1.0
C      1  0.4583950000000  0.5260990000000  0.4146990000000 1.0
C      1  0.5702730000000  0.5328290000000  0.4363320000000 1.0
C      1  0.4402070000000  0.4223890000000  0.5375230000000 1.0
C      1  0.4927310000000  0.5568370000000  0.4991690000000 1.0
C      1  0.5269180000000  0.5879890000000  0.4700760000000 1.0
C      1  0.4715980000000  0.5816000000000  0.5380960000000 1.0
C      1  0.4179000000000  0.5391860000000  0.5264640000000 1.0
C      1  0.4837590000000  0.4596390000000  0.4651570000000 1.0
C      1  0.5044830000000  0.5357990000000  0.5884400000000 1.0
C      1  0.4855550000000  0.5368650000000  0.4067170000000 1.0
C      1  0.5035060000000  0.5217310000000  0.5154700000000 1.0
C      1  0.4062820000000  0.4973570000000  0.4972590000000 1.0
C      1  0.5528560000000  0.5261340000000  0.4601230000000 1.0
C      1  0.4988790000000  0.5589870000000  0.4209130000000 1.0
C      1  0.4185940000000  0.5336240000000  0.4796700000000 1.0
C      1  0.5252280000000  0.4468900000000  0.4837320000000 1.0
C      1  0.4529220000000  0.4218430000000  0.4699620000000 1.0
C      1  0.4635880000000  0.4982960000000  0.4137810000000 1.0
C      1  0.5419260000000  0.5564060000000  0.5026070000000 1.0
C      1  0.6065520000000  0.5493860000000  0.4980900000000 1.0
C      1  0.5587140000000  0.5121920000000  0.4198370000000 1.0
C      1  0.5067540000000  0.4436700000000  0.4151210000000 1.0
C      1  0.4799640000000  0.4909020000000  0.5973050000000 1.0
C      1  0.5692870000000  0.4937530000000  0.5502230000000 1.0
C      1  0.5115410000000  0.4768140000000  0.5178420000000 1.0
C      1  0.5455000000000  0.4506550000000  0.5551130000000 1.0
C      1  0.5312500000000  0.5461880000000  0.4630450000000 1.0
C      1  0.6013830000000  0.5584690000000  0.4705510000000 1.0
C      1  0.4605520000000  0.5383050000000  0.5310140000000 1.0
C      1  0.4351690000000  0.5339500000000  0.4335970000000 1.0
C      1  0.4995920000000  0.4252920000000  0.4335960000000 1.0
C      1  0.5415130000000  0.4245310000000  0.4696220000000 1.0
C      1  0.5702010000000  0.4871000000000  0.4329950000000 1.0
C      1  0.5368190000000  0.5707830000000  0.4482910000000 1.0
C      1  0.4902340000000  0.5581270000000  0.4487460000000 1.0
C      1  0.5660590000000  0.5406230000000  0.5010280000000 1.0
END
