TITL C-4164245-3996-232 4.07167988655758e-09 125000 -2640.61990305401 0 0 19 (C1) n - 1
REM
REM in /home/nfs/bkarasulu/CARBON/AIRSS/Generating-Clusters/ReaxFF-fromJPCA2015/Units_Real/with-SteepDescent/Only-C1/SD-CG/Try1-3A/FIRE-CG
REM
REM
REM
REM
REM
REM ./C.cell (11c1c37f851c82e70ff6c80c92926a4b)
REM
REM compiler GCC version 9.2.1 20190827 (Red Hat 9.2.1-1)
REM options -cpp -mtune=generic -march=x86-64 -g -O0 -fpre-include=/usr/include/finclude/math-vector-fortran.h
REM seed -1240846983 -10185005 -301569834 700478067 -921241576 -574203544 -2014572474 -1194299302 370273124 -741946353 1407957185 -1630551563 1425252174 769908589 921217939 1767155427 -2058345179 1820660466 -775243600 1052928015 -929417338 -802011231 646966950 41945016 412087753 -1593332757 1928881377 -645557955 -1369937832 348021107 -1760327907 -14383819 1900555941
REM
CELL 1.54180   50.00000   50.00000   50.00000   90.00000   90.00000   90.00000
LATT -1
SFAC C  
C      1  0.5356020000000  0.4983740000000  0.5305590000000 1.0
C      1  0.5531180000000  0.5112450000000  0.5127360000000 1.0
C      1  0.4618850000000  0.5147130000000  0.4875120000000 1.0
C      1  0.5278570000000  0.4686950000000  0.5239070000000 1.0
C      1  0.4677970000000  0.4633670000000  0.4823790000000 1.0
C      1  0.5125650000000  0.4632400000000  0.5005820000000 1.0
C      1  0.5116690000000  0.5313250000000  0.5022860000000 1.0
C      1  0.4657810000000  0.4982080000000  0.5332820000000 1.0
C      1  0.5240620000000  0.5052840000000  0.4616880000000 1.0
C      1  0.5309470000000  0.5265610000000  0.4805310000000 1.0
C      1  0.4543450000000  0.5243810000000  0.4648330000000 1.0
C      1  0.5122360000000  0.4780060000000  0.4603040000000 1.0
C      1  0.4979480000000  0.4588860000000  0.4782830000000 1.0
C      1  0.5615640000000  0.5268700000000  0.4904040000000 1.0
C      1  0.5151620000000  0.5190250000000  0.5294080000000 1.0
C      1  0.4825660000000  0.5296400000000  0.5052130000000 1.0
C      1  0.4539720000000  0.4843470000000  0.4962240000000 1.0
C      1  0.4461270000000  0.4788220000000  0.5273050000000 1.0
C      1  0.4847970000000  0.5190120000000  0.5325650000000 1.0
END
