TITL C-4164241-3639-270 5.02502723689547 125000 -5566.89367100135 0 0 38 (C1) n - 1
REM
REM in /home/nfs/bkarasulu/CARBON/AIRSS/Generating-Clusters/ReaxFF-fromJPCA2015/Units_Real/with-SteepDescent/Only-C1/SD-CG/Try1-3A/FIRE-CG
REM
REM
REM
REM
REM
REM ./C.cell (11c1c37f851c82e70ff6c80c92926a4b)
REM
REM compiler GCC version 9.2.1 20190827 (Red Hat 9.2.1-1)
REM options -cpp -mtune=generic -march=x86-64 -g -O0 -fpre-include=/usr/include/finclude/math-vector-fortran.h
REM seed 947384286 887679813 -380723994 1473570558 1769573100 -801500056 2031854212 1103535095 -878507200 1869519146 -734625852 -453456021 -1100520957 2144847702 667947250 1799820979 -271602691 1690703963 -930020066 -1600912946 1863443272 -1136323898 517041806 1874470230 -250286497 1861401687 -2098464162 501390692 713280579 -1410061193 -918389802 -735533608 -1523811703
REM
CELL 1.54180   50.00000   50.00000   50.00000   90.00000   90.00000   90.00000
LATT -1
SFAC C  
C      1  0.4524730000000  0.5011270000000  0.5222960000000 1.0
C      1  0.5386220000000  0.4975000000000  0.4575570000000 1.0
C      1  0.5106670000000  0.4334530000000  0.5228200000000 1.0
C      1  0.4665640000000  0.4921950000000  0.5442590000000 1.0
C      1  0.5067620000000  0.4551200000000  0.4536740000000 1.0
C      1  0.5702260000000  0.5088850000000  0.5336990000000 1.0
C      1  0.5378260000000  0.5322710000000  0.4937520000000 1.0
C      1  0.4997010000000  0.5334730000000  0.5477800000000 1.0
C      1  0.4389000000000  0.5097310000000  0.5011390000000 1.0
C      1  0.5338150000000  0.4453690000000  0.5378710000000 1.0
C      1  0.4914500000000  0.5062490000000  0.5548220000000 1.0
C      1  0.5414850000000  0.4639330000000  0.4905810000000 1.0
C      1  0.5065790000000  0.4809770000000  0.5537820000000 1.0
C      1  0.4515360000000  0.4639600000000  0.4869890000000 1.0
C      1  0.4850290000000  0.4458180000000  0.4711450000000 1.0
C      1  0.5349340000000  0.4414070000000  0.5086440000000 1.0
C      1  0.5551240000000  0.4880580000000  0.5324710000000 1.0
C      1  0.4481510000000  0.5394880000000  0.4977540000000 1.0
C      1  0.4685800000000  0.4443630000000  0.4961400000000 1.0
C      1  0.5503120000000  0.5095990000000  0.4833470000000 1.0
C      1  0.4522490000000  0.5046200000000  0.4617110000000 1.0
C      1  0.4819800000000  0.5547830000000  0.5324820000000 1.0
C      1  0.4844010000000  0.4458530000000  0.5225130000000 1.0
C      1  0.5284090000000  0.5167680000000  0.4401400000000 1.0
C      1  0.4733180000000  0.5493730000000  0.4846770000000 1.0
C      1  0.5305470000000  0.4705130000000  0.4642460000000 1.0
C      1  0.4562160000000  0.5490790000000  0.5225580000000 1.0
C      1  0.5209370000000  0.5396110000000  0.5304570000000 1.0
C      1  0.4383020000000  0.4871840000000  0.4787420000000 1.0
C      1  0.5335700000000  0.4717400000000  0.5493480000000 1.0
C      1  0.4828220000000  0.4667250000000  0.5422150000000 1.0
C      1  0.5185130000000  0.5348500000000  0.4268810000000 1.0
C      1  0.4759550000000  0.5487620000000  0.4541360000000 1.0
C      1  0.5234790000000  0.5532520000000  0.5055960000000 1.0
C      1  0.5552440000000  0.4866910000000  0.5014720000000 1.0
C      1  0.4923930000000  0.5586680000000  0.5049800000000 1.0
C      1  0.4974690000000  0.5450130000000  0.4358590000000 1.0
C      1  0.4654580000000  0.5235420000000  0.4514650000000 1.0
END
