TITL C-4164234-2335-398 11.9676170116579 125000 -24750.5916855513 0 0 165 (C1) n - 1
REM
REM in /home/nfs/bkarasulu/CARBON/AIRSS/Generating-Clusters/ReaxFF-fromJPCA2015/Units_Real/with-SteepDescent/Only-C1/SD-CG/Try1-3A/FIRE-CG
REM
REM
REM
REM
REM
REM ./C.cell (11c1c37f851c82e70ff6c80c92926a4b)
REM
REM compiler GCC version 9.2.1 20190827 (Red Hat 9.2.1-1)
REM options -cpp -mtune=generic -march=x86-64 -g -O0 -fpre-include=/usr/include/finclude/math-vector-fortran.h
REM seed -1138303741 1408144792 994337532 -143709838 -1816295111 6371744 -883497169 -1576892347 1923409641 1362536591 -1077081944 746079602 1054557929 -1480421836 1083526566 216552789 1142079498 182637634 -1154229440 -1885782494 -1310357969 -281507592 903103285 1943644513 -1052395044 1013800352 929477093 -607447884 2039973347 -142221363 607970288 251833554 -1295046989
REM
CELL 1.54180   50.00000   50.00000   50.00000   90.00000   90.00000   90.00000
LATT -1
SFAC C  
C      1  0.4127690000000  0.5303740000000  0.4451840000000 1.0
C      1  0.5192700000000  0.4452380000000  0.4531510000000 1.0
C      1  0.4730180000000  0.5382210000000  0.4162370000000 1.0
C      1  0.5346410000000  0.5322060000000  0.4650140000000 1.0
C      1  0.4729510000000  0.5945590000000  0.5087840000000 1.0
C      1  0.4524320000000  0.5178570000000  0.4097550000000 1.0
C      1  0.5165080000000  0.4248550000000  0.5893540000000 1.0
C      1  0.4625280000000  0.4712480000000  0.4414600000000 1.0
C      1  0.4852390000000  0.6158010000000  0.4610800000000 1.0
C      1  0.5025130000000  0.4616640000000  0.6100730000000 1.0
C      1  0.4595840000000  0.4822510000000  0.4897920000000 1.0
C      1  0.5222880000000  0.4653050000000  0.5404490000000 1.0
C      1  0.6095820000000  0.4950320000000  0.5186300000000 1.0
C      1  0.5737840000000  0.5715120000000  0.5227680000000 1.0
C      1  0.4868230000000  0.3918800000000  0.4879370000000 1.0
C      1  0.5728890000000  0.5347920000000  0.5613540000000 1.0
C      1  0.5122300000000  0.5151070000000  0.5070970000000 1.0
C      1  0.5683900000000  0.4543400000000  0.4218560000000 1.0
C      1  0.5446180000000  0.3945210000000  0.4960200000000 1.0
C      1  0.4815480000000  0.5096980000000  0.5424720000000 1.0
C      1  0.5093240000000  0.5538810000000  0.5876820000000 1.0
C      1  0.4700760000000  0.4481940000000  0.4581350000000 1.0
C      1  0.4936620000000  0.4981750000000  0.5667770000000 1.0
C      1  0.4629700000000  0.4832580000000  0.5986320000000 1.0
C      1  0.4461270000000  0.4968500000000  0.4497470000000 1.0
C      1  0.4864610000000  0.5421810000000  0.5443090000000 1.0
C      1  0.5119960000000  0.4857060000000  0.4771790000000 1.0
C      1  0.4727140000000  0.5645330000000  0.4303610000000 1.0
C      1  0.4518880000000  0.4730730000000  0.5492120000000 1.0
C      1  0.5374480000000  0.5326900000000  0.3854960000000 1.0
C      1  0.4732700000000  0.5424180000000  0.4959150000000 1.0
C      1  0.5391210000000  0.4851460000000  0.4760350000000 1.0
C      1  0.5232240000000  0.5536900000000  0.4814150000000 1.0
C      1  0.4052760000000  0.4779040000000  0.5464720000000 1.0
C      1  0.5267200000000  0.4507560000000  0.5966300000000 1.0
C      1  0.4703110000000  0.4426840000000  0.4035240000000 1.0
C      1  0.4375120000000  0.4888060000000  0.5882010000000 1.0
C      1  0.4700280000000  0.4504480000000  0.5468210000000 1.0
C      1  0.4181520000000  0.4287850000000  0.4965230000000 1.0
C      1  0.3987480000000  0.4635410000000  0.5224900000000 1.0
C      1  0.5321390000000  0.6093340000000  0.4869130000000 1.0
C      1  0.4002400000000  0.4815780000000  0.4977600000000 1.0
C      1  0.3877560000000  0.5279330000000  0.4818260000000 1.0
C      1  0.4657060000000  0.5949530000000  0.4768470000000 1.0
C      1  0.5558400000000  0.4927680000000  0.5283420000000 1.0
C      1  0.4290580000000  0.5222630000000  0.5537360000000 1.0
C      1  0.4885770000000  0.5125840000000  0.4578220000000 1.0
C      1  0.6022980000000  0.5059800000000  0.4716340000000 1.0
C      1  0.5037210000000  0.4069330000000  0.5081820000000 1.0
C      1  0.4161240000000  0.5020930000000  0.5106640000000 1.0
C      1  0.5643510000000  0.5118310000000  0.5056620000000 1.0
C      1  0.5146650000000  0.4863660000000  0.6152050000000 1.0
C      1  0.4689700000000  0.4385430000000  0.5783740000000 1.0
C      1  0.4090140000000  0.4364270000000  0.5230640000000 1.0
C      1  0.4932460000000  0.5881720000000  0.5545420000000 1.0
C      1  0.4384600000000  0.5164680000000  0.5814380000000 1.0
C      1  0.5790250000000  0.5459700000000  0.4324190000000 1.0
C      1  0.5506920000000  0.5927990000000  0.4705530000000 1.0
C      1  0.5258900000000  0.3955320000000  0.4737620000000 1.0
C      1  0.3950570000000  0.5110270000000  0.4612220000000 1.0
C      1  0.5841970000000  0.4910420000000  0.4576550000000 1.0
C      1  0.3980670000000  0.5699730000000  0.5033800000000 1.0
C      1  0.4590850000000  0.4902280000000  0.4005520000000 1.0
C      1  0.5866470000000  0.5140760000000  0.5482740000000 1.0
C      1  0.4752760000000  0.4584720000000  0.5987050000000 1.0
C      1  0.4146590000000  0.4436590000000  0.4730250000000 1.0
C      1  0.4935250000000  0.4318680000000  0.4554560000000 1.0
C      1  0.4915300000000  0.4192590000000  0.5781300000000 1.0
C      1  0.5503970000000  0.5207000000000  0.5765430000000 1.0
C      1  0.4487570000000  0.4253890000000  0.5026320000000 1.0
C      1  0.4088700000000  0.5050630000000  0.5394890000000 1.0
C      1  0.5096990000000  0.4892050000000  0.4054500000000 1.0
C      1  0.5639530000000  0.4581580000000  0.5621550000000 1.0
C      1  0.5313420000000  0.4713550000000  0.4124120000000 1.0
C      1  0.4317770000000  0.5132540000000  0.4300270000000 1.0
C      1  0.5012890000000  0.5355920000000  0.4895350000000 1.0
C      1  0.5379450000000  0.5065410000000  0.5475950000000 1.0
C      1  0.5285110000000  0.5254240000000  0.5279770000000 1.0
C      1  0.5801860000000  0.4805890000000  0.5500750000000 1.0
C      1  0.4970800000000  0.4527370000000  0.5369480000000 1.0
C      1  0.4535880000000  0.4286150000000  0.5319570000000 1.0
C      1  0.5909650000000  0.5582380000000  0.4794300000000 1.0
C      1  0.4948350000000  0.6089070000000  0.4341220000000 1.0
C      1  0.5350320000000  0.5671770000000  0.5509350000000 1.0
C      1  0.5288050000000  0.3994950000000  0.5209530000000 1.0
C      1  0.4850880000000  0.4915000000000  0.4769440000000 1.0
C      1  0.4925890000000  0.4983220000000  0.5184830000000 1.0
C      1  0.5013610000000  0.4004240000000  0.4594060000000 1.0
C      1  0.4183010000000  0.5559520000000  0.4570680000000 1.0
C      1  0.4129920000000  0.4605550000000  0.4513220000000 1.0
C      1  0.5325220000000  0.4428880000000  0.4789930000000 1.0
C      1  0.4826440000000  0.4808980000000  0.4136660000000 1.0
C      1  0.5287310000000  0.5339040000000  0.5941930000000 1.0
C      1  0.4471620000000  0.4615380000000  0.4037760000000 1.0
C      1  0.4546730000000  0.5450740000000  0.4725140000000 1.0
C      1  0.4362460000000  0.4606990000000  0.4311630000000 1.0
C      1  0.5590160000000  0.4807230000000  0.4183140000000 1.0
C      1  0.5366500000000  0.4150370000000  0.5446040000000 1.0
C      1  0.5713390000000  0.4161620000000  0.4712430000000 1.0
C      1  0.4450050000000  0.4977560000000  0.5088980000000 1.0
C      1  0.5159340000000  0.5773710000000  0.5706680000000 1.0
C      1  0.4289960000000  0.4686520000000  0.5669100000000 1.0
C      1  0.4923250000000  0.5845060000000  0.4213340000000 1.0
C      1  0.5099920000000  0.4334510000000  0.4957580000000 1.0
C      1  0.5502980000000  0.4955650000000  0.5942880000000 1.0
C      1  0.4794050000000  0.5037970000000  0.5903130000000 1.0
C      1  0.4967030000000  0.5950210000000  0.5248920000000 1.0
C      1  0.4283650000000  0.4278360000000  0.5447290000000 1.0
C      1  0.5711290000000  0.5189410000000  0.4311590000000 1.0
C      1  0.5597940000000  0.4333510000000  0.5452400000000 1.0
C      1  0.5537350000000  0.4308620000000  0.4233670000000 1.0
C      1  0.4644090000000  0.5271690000000  0.5882720000000 1.0
C      1  0.5690820000000  0.5742240000000  0.4927880000000 1.0
C      1  0.5189850000000  0.4874600000000  0.5581080000000 1.0
C      1  0.5483780000000  0.4671420000000  0.5850620000000 1.0
C      1  0.5425520000000  0.5851380000000  0.4440750000000 1.0
C      1  0.6015330000000  0.4708570000000  0.5325530000000 1.0
C      1  0.4251160000000  0.5535320000000  0.5479380000000 1.0
C      1  0.6058520000000  0.5347210000000  0.4733210000000 1.0
C      1  0.4445160000000  0.5761630000000  0.5507640000000 1.0
C      1  0.4952000000000  0.4294080000000  0.4121540000000 1.0
C      1  0.5688260000000  0.4229560000000  0.4460990000000 1.0
C      1  0.5243790000000  0.4436760000000  0.4229980000000 1.0
C      1  0.5161500000000  0.5489330000000  0.5389770000000 1.0
C      1  0.3871320000000  0.5452920000000  0.4975370000000 1.0
C      1  0.5139260000000  0.5174010000000  0.3979770000000 1.0
C      1  0.4800300000000  0.5498840000000  0.5765910000000 1.0
C      1  0.4694730000000  0.5767430000000  0.5660490000000 1.0
C      1  0.5082240000000  0.6141590000000  0.4741130000000 1.0
C      1  0.6067770000000  0.4843850000000  0.4909700000000 1.0
C      1  0.5017610000000  0.5323840000000  0.4198340000000 1.0
C      1  0.4681630000000  0.5510850000000  0.5225550000000 1.0
C      1  0.5372360000000  0.5690640000000  0.5019060000000 1.0
C      1  0.5976010000000  0.5524020000000  0.4535880000000 1.0
C      1  0.5644590000000  0.4997290000000  0.4428830000000 1.0
C      1  0.5895630000000  0.5172000000000  0.5195050000000 1.0
C      1  0.4887130000000  0.4528790000000  0.4950990000000 1.0
C      1  0.4122020000000  0.5774190000000  0.4750250000000 1.0
C      1  0.5309230000000  0.5088230000000  0.6123190000000 1.0
C      1  0.5179960000000  0.5938760000000  0.4300120000000 1.0
C      1  0.4937480000000  0.4044040000000  0.4254450000000 1.0
C      1  0.4117790000000  0.5627090000000  0.5262620000000 1.0
C      1  0.5478540000000  0.5513340000000  0.4055740000000 1.0
C      1  0.5756470000000  0.4285240000000  0.5211500000000 1.0
C      1  0.4545370000000  0.5775030000000  0.5227440000000 1.0
C      1  0.5162940000000  0.4115910000000  0.5653550000000 1.0
C      1  0.4609070000000  0.5193390000000  0.4589800000000 1.0
C      1  0.5527040000000  0.5122730000000  0.4786910000000 1.0
C      1  0.5932350000000  0.4504090000000  0.5125250000000 1.0
C      1  0.5231560000000  0.5929780000000  0.5111390000000 1.0
C      1  0.5581870000000  0.5664940000000  0.4257010000000 1.0
C      1  0.5703060000000  0.4102110000000  0.4981920000000 1.0
C      1  0.4382170000000  0.4394830000000  0.5693450000000 1.0
C      1  0.4523360000000  0.5001220000000  0.5382480000000 1.0
C      1  0.4625300000000  0.4528190000000  0.4853930000000 1.0
C      1  0.5521360000000  0.4619900000000  0.4931800000000 1.0
C      1  0.5423270000000  0.4696020000000  0.5203280000000 1.0
C      1  0.4593830000000  0.3981080000000  0.4911970000000 1.0
C      1  0.5853990000000  0.4644710000000  0.4886280000000 1.0
C      1  0.4369670000000  0.5903940000000  0.4728120000000 1.0
C      1  0.5647520000000  0.5611660000000  0.5483820000000 1.0
C      1  0.4914590000000  0.4703530000000  0.5153460000000 1.0
C      1  0.5124230000000  0.5250430000000  0.4465890000000 1.0
C      1  0.4003070000000  0.4827090000000  0.4684560000000 1.0
C      1  0.4677830000000  0.5673340000000  0.4586160000000 1.0
END
