TITL C-4164238-4211-474 11.7323230061171 125000 -15763.1590128677 0 0 108 (C1) n - 1
REM
REM in /home/nfs/bkarasulu/CARBON/AIRSS/Generating-Clusters/ReaxFF-fromJPCA2015/Units_Real/with-SteepDescent/Only-C1/SD-CG/Try1-3A/FIRE-CG
REM
REM
REM
REM
REM
REM ./C.cell (11c1c37f851c82e70ff6c80c92926a4b)
REM
REM compiler GCC version 9.2.1 20190827 (Red Hat 9.2.1-1)
REM options -cpp -mtune=generic -march=x86-64 -g -O0 -fpre-include=/usr/include/finclude/math-vector-fortran.h
REM seed 1980946396 -1163951108 -1856650371 1330223446 -669305846 -956681000 2043356450 -876605757 -1580726816 1649177732 -2129395595 -2134664846 -246069222 -2111174326 -836727118 1514222489 2050635398 -155487327 452871691 -990276495 -1287687565 -1160080584 373100064 213316241 -1770703473 -1790939510 -1719214384 -1721718898 -1495391505 365615384 302943237 -728560563 -1322556346
REM
CELL 1.54180   50.00000   50.00000   50.00000   90.00000   90.00000   90.00000
LATT -1
SFAC C  
C      1  0.4736530000000  0.4247340000000  0.4742930000000 1.0
C      1  0.5475390000000  0.4227880000000  0.5457350000000 1.0
C      1  0.4821060000000  0.4697350000000  0.5385610000000 1.0
C      1  0.5264410000000  0.5122620000000  0.5814600000000 1.0
C      1  0.5336760000000  0.4817200000000  0.4660430000000 1.0
C      1  0.4468550000000  0.5554950000000  0.5710850000000 1.0
C      1  0.5470130000000  0.4666220000000  0.5178900000000 1.0
C      1  0.4912510000000  0.5569700000000  0.4993250000000 1.0
C      1  0.4337130000000  0.4746830000000  0.5415950000000 1.0
C      1  0.4913970000000  0.4436090000000  0.4195390000000 1.0
C      1  0.5078440000000  0.4055940000000  0.5022790000000 1.0
C      1  0.5225050000000  0.5899560000000  0.5097320000000 1.0
C      1  0.4463970000000  0.5389330000000  0.5065380000000 1.0
C      1  0.5151130000000  0.4490830000000  0.4366430000000 1.0
C      1  0.5458050000000  0.5516160000000  0.4920460000000 1.0
C      1  0.4289210000000  0.5380390000000  0.4823830000000 1.0
C      1  0.5018020000000  0.4174470000000  0.4757800000000 1.0
C      1  0.5306830000000  0.5357440000000  0.4722240000000 1.0
C      1  0.5445850000000  0.4999890000000  0.4225740000000 1.0
C      1  0.4191790000000  0.5127060000000  0.4800620000000 1.0
C      1  0.4473950000000  0.5483810000000  0.4319550000000 1.0
C      1  0.5250100000000  0.5201240000000  0.4116400000000 1.0
C      1  0.5431640000000  0.4753520000000  0.4396140000000 1.0
C      1  0.4823160000000  0.4585400000000  0.5119580000000 1.0
C      1  0.5674200000000  0.4860540000000  0.5514590000000 1.0
C      1  0.4610060000000  0.5153260000000  0.5072440000000 1.0
C      1  0.4833660000000  0.5950770000000  0.5257160000000 1.0
C      1  0.4139040000000  0.4565530000000  0.5017720000000 1.0
C      1  0.4264110000000  0.4972990000000  0.5576410000000 1.0
C      1  0.4613020000000  0.4950120000000  0.4896430000000 1.0
C      1  0.4483100000000  0.5450970000000  0.4602370000000 1.0
C      1  0.4592420000000  0.5909410000000  0.5107910000000 1.0
C      1  0.4733450000000  0.5878570000000  0.4588920000000 1.0
C      1  0.4265630000000  0.4800550000000  0.4505630000000 1.0
C      1  0.5663990000000  0.5110050000000  0.5685900000000 1.0
C      1  0.5850670000000  0.4804020000000  0.5272640000000 1.0
C      1  0.5060670000000  0.4157570000000  0.5432780000000 1.0
C      1  0.4841310000000  0.4901400000000  0.4318200000000 1.0
C      1  0.4777180000000  0.5654330000000  0.4401690000000 1.0
C      1  0.5743070000000  0.4638670000000  0.5059200000000 1.0
C      1  0.5350720000000  0.4459150000000  0.5599370000000 1.0
C      1  0.4822130000000  0.4552380000000  0.5665020000000 1.0
C      1  0.5223070000000  0.4323010000000  0.4595750000000 1.0
C      1  0.4359140000000  0.5004450000000  0.4363550000000 1.0
C      1  0.4595130000000  0.4126890000000  0.5217090000000 1.0
C      1  0.4104280000000  0.4924430000000  0.5345060000000 1.0
C      1  0.4454760000000  0.4580030000000  0.4441900000000 1.0
C      1  0.4624250000000  0.4495230000000  0.4210910000000 1.0
C      1  0.4994590000000  0.5146560000000  0.3981040000000 1.0
C      1  0.6044690000000  0.5014820000000  0.5167980000000 1.0
C      1  0.5629460000000  0.5170290000000  0.4364940000000 1.0
C      1  0.4931500000000  0.4698920000000  0.4510120000000 1.0
C      1  0.5368560000000  0.4953590000000  0.5070740000000 1.0
C      1  0.5086980000000  0.5901340000000  0.5365350000000 1.0
C      1  0.4469120000000  0.4230880000000  0.5462960000000 1.0
C      1  0.4676430000000  0.4525640000000  0.4637820000000 1.0
C      1  0.4528130000000  0.4201510000000  0.4944440000000 1.0
C      1  0.5061300000000  0.5837150000000  0.4856590000000 1.0
C      1  0.5320280000000  0.5376270000000  0.5140070000000 1.0
C      1  0.5450150000000  0.5392500000000  0.4457570000000 1.0
C      1  0.4363890000000  0.4446250000000  0.4939780000000 1.0
C      1  0.5873760000000  0.5226330000000  0.5049180000000 1.0
C      1  0.4608610000000  0.4663020000000  0.4919160000000 1.0
C      1  0.5269460000000  0.5473390000000  0.4251610000000 1.0
C      1  0.5447660000000  0.5308090000000  0.5741950000000 1.0
C      1  0.4652470000000  0.5381860000000  0.5672940000000 1.0
C      1  0.5438110000000  0.5051560000000  0.4798960000000 1.0
C      1  0.5571290000000  0.5613610000000  0.5347220000000 1.0
C      1  0.5875320000000  0.5286060000000  0.5561530000000 1.0
C      1  0.4566160000000  0.5047860000000  0.5653060000000 1.0
C      1  0.4630140000000  0.4911530000000  0.5401370000000 1.0
C      1  0.4747520000000  0.5079490000000  0.4150320000000 1.0
C      1  0.5089350000000  0.4756300000000  0.4736890000000 1.0
C      1  0.4033440000000  0.4810530000000  0.5085120000000 1.0
C      1  0.4874680000000  0.4050360000000  0.5234360000000 1.0
C      1  0.5763350000000  0.5386750000000  0.5302460000000 1.0
C      1  0.4101030000000  0.4890640000000  0.4779020000000 1.0
C      1  0.5036990000000  0.4988990000000  0.5821020000000 1.0
C      1  0.5400200000000  0.5563240000000  0.5578130000000 1.0
C      1  0.4576780000000  0.4390870000000  0.5664670000000 1.0
C      1  0.5801430000000  0.5013870000000  0.4551450000000 1.0
C      1  0.4771700000000  0.5432010000000  0.4596880000000 1.0
C      1  0.4634810000000  0.5615690000000  0.5109880000000 1.0
C      1  0.4795350000000  0.4866590000000  0.5780160000000 1.0
C      1  0.5138060000000  0.5684220000000  0.5580730000000 1.0
C      1  0.5126130000000  0.5794830000000  0.4587820000000 1.0
C      1  0.5070400000000  0.4374450000000  0.5621990000000 1.0
C      1  0.5177780000000  0.5046060000000  0.5410210000000 1.0
C      1  0.5060690000000  0.4586970000000  0.4962680000000 1.0
C      1  0.5294510000000  0.4169610000000  0.5206700000000 1.0
C      1  0.4345790000000  0.4473630000000  0.5549540000000 1.0
C      1  0.5694930000000  0.4581040000000  0.4770790000000 1.0
C      1  0.4630180000000  0.5944760000000  0.4822530000000 1.0
C      1  0.4947600000000  0.5473060000000  0.5643700000000 1.0
C      1  0.5061240000000  0.5437960000000  0.5202930000000 1.0
C      1  0.5430150000000  0.4447230000000  0.4763430000000 1.0
C      1  0.4869710000000  0.5102960000000  0.4962250000000 1.0
C      1  0.5427500000000  0.5151220000000  0.5288690000000 1.0
C      1  0.4970350000000  0.5356390000000  0.4788840000000 1.0
C      1  0.4978930000000  0.5276250000000  0.5432640000000 1.0
C      1  0.5079340000000  0.5682250000000  0.4336210000000 1.0
C      1  0.5473780000000  0.5746040000000  0.5101470000000 1.0
C      1  0.5736340000000  0.5124610000000  0.4812990000000 1.0
C      1  0.5706280000000  0.4738900000000  0.4528730000000 1.0
C      1  0.5082240000000  0.4973850000000  0.5149320000000 1.0
C      1  0.5419080000000  0.4730900000000  0.5478680000000 1.0
C      1  0.4456710000000  0.5217260000000  0.4215300000000 1.0
C      1  0.5314870000000  0.4455610000000  0.5036950000000 1.0
END
