TITL C-4164239-2837-7 49.7216058544765 125000 -26805.9715904746 0 0 182 (C1) n - 1
REM
REM in /home/nfs/bkarasulu/CARBON/AIRSS/Generating-Clusters/ReaxFF-fromJPCA2015/Units_Real/with-SteepDescent/Only-C1/SD-CG/Try1-3A/FIRE-CG
REM
REM
REM
REM
REM
REM ./C.cell (11c1c37f851c82e70ff6c80c92926a4b)
REM
REM compiler GCC version 9.2.1 20190827 (Red Hat 9.2.1-1)
REM options -cpp -mtune=generic -march=x86-64 -g -O0 -fpre-include=/usr/include/finclude/math-vector-fortran.h
REM seed 962792615 149924526 -1933477713 662120212 -809761789 1905242701 1693047213 808452281 12658007 -2023576587 1693172139 1216757587 515720708 903240362 864454043 -1277088263 -1381128093 -222297661 326014644 1903561631 -2115592154 -54836561 -1224172617 -2145946083 -615101235 -1187051094 1071451862 -1194478495 -1557630178 90838220 802648612 -145131222 -1386968828
REM
CELL 1.54180   50.00000   50.00000   50.00000   90.00000   90.00000   90.00000
LATT -1
SFAC C  
C      1  0.4860430000000  0.5420510000000  0.5888550000000 1.0
C      1  0.5748710000000  0.5044140000000  0.4374690000000 1.0
C      1  0.5168570000000  0.5048520000000  0.5415790000000 1.0
C      1  0.5656720000000  0.4179000000000  0.4988760000000 1.0
C      1  0.4638850000000  0.4115140000000  0.4808780000000 1.0
C      1  0.4720220000000  0.4689580000000  0.4072200000000 1.0
C      1  0.4243060000000  0.5579860000000  0.5152470000000 1.0
C      1  0.5582500000000  0.4857240000000  0.4866580000000 1.0
C      1  0.5042250000000  0.5272460000000  0.6068550000000 1.0
C      1  0.5152160000000  0.4002860000000  0.5591010000000 1.0
C      1  0.5019690000000  0.4975080000000  0.4689300000000 1.0
C      1  0.4937140000000  0.4899370000000  0.4081810000000 1.0
C      1  0.4450170000000  0.4807960000000  0.4102970000000 1.0
C      1  0.3864870000000  0.4955390000000  0.4899410000000 1.0
C      1  0.5977070000000  0.4967140000000  0.5498490000000 1.0
C      1  0.4406770000000  0.4117830000000  0.5009320000000 1.0
C      1  0.3835190000000  0.4841310000000  0.4652390000000 1.0
C      1  0.5282450000000  0.6006790000000  0.4854170000000 1.0
C      1  0.4132240000000  0.4995950000000  0.5728900000000 1.0
C      1  0.4346730000000  0.4781360000000  0.4856630000000 1.0
C      1  0.5346210000000  0.4380200000000  0.4093340000000 1.0
C      1  0.5005830000000  0.5162590000000  0.3600480000000 1.0
C      1  0.4332650000000  0.5104160000000  0.4091410000000 1.0
C      1  0.5847040000000  0.5712690000000  0.4550320000000 1.0
C      1  0.4918230000000  0.4665260000000  0.4460520000000 1.0
C      1  0.5556990000000  0.4735150000000  0.6053730000000 1.0
C      1  0.5091820000000  0.4944320000000  0.5167080000000 1.0
C      1  0.4212190000000  0.5450360000000  0.5414790000000 1.0
C      1  0.5629740000000  0.4887760000000  0.5150820000000 1.0
C      1  0.4563950000000  0.6015280000000  0.4753940000000 1.0
C      1  0.4790490000000  0.5365680000000  0.4038510000000 1.0
C      1  0.5083420000000  0.5802040000000  0.5830450000000 1.0
C      1  0.5581770000000  0.5601150000000  0.4087390000000 1.0
C      1  0.4885480000000  0.5208990000000  0.3806280000000 1.0
C      1  0.4301960000000  0.4550280000000  0.5005430000000 1.0
C      1  0.4624630000000  0.4474820000000  0.5495980000000 1.0
C      1  0.4276000000000  0.5056790000000  0.4567860000000 1.0
C      1  0.4666520000000  0.5931530000000  0.4489880000000 1.0
C      1  0.4580190000000  0.5372010000000  0.4809640000000 1.0
C      1  0.5665060000000  0.4264620000000  0.4576230000000 1.0
C      1  0.4944080000000  0.5379940000000  0.5618550000000 1.0
C      1  0.4225950000000  0.5612060000000  0.4641620000000 1.0
C      1  0.4689220000000  0.5384550000000  0.4548150000000 1.0
C      1  0.4265290000000  0.4410700000000  0.4320200000000 1.0
C      1  0.4839870000000  0.6060050000000  0.5216210000000 1.0
C      1  0.5772920000000  0.4441340000000  0.4373440000000 1.0
C      1  0.4390470000000  0.4178430000000  0.5295010000000 1.0
C      1  0.5020170000000  0.5823310000000  0.4277660000000 1.0
C      1  0.5812920000000  0.4304280000000  0.4821420000000 1.0
C      1  0.4502580000000  0.5020640000000  0.5549340000000 1.0
C      1  0.4834760000000  0.4651270000000  0.5592200000000 1.0
C      1  0.5901420000000  0.5287110000000  0.4323450000000 1.0
C      1  0.4755930000000  0.4398160000000  0.4832070000000 1.0
C      1  0.4669780000000  0.4101730000000  0.5821470000000 1.0
C      1  0.4704010000000  0.5124990000000  0.4427580000000 1.0
C      1  0.5377100000000  0.5985780000000  0.5349210000000 1.0
C      1  0.4798620000000  0.5709550000000  0.5851640000000 1.0
C      1  0.4232130000000  0.4301560000000  0.4874010000000 1.0
C      1  0.4623210000000  0.4190420000000  0.5439260000000 1.0
C      1  0.6157460000000  0.4794930000000  0.4573800000000 1.0
C      1  0.4337920000000  0.4479050000000  0.5679740000000 1.0
C      1  0.6094070000000  0.4834840000000  0.4880390000000 1.0
C      1  0.4634940000000  0.5908620000000  0.5364100000000 1.0
C      1  0.6032920000000  0.5155620000000  0.5295200000000 1.0
C      1  0.5611320000000  0.5692570000000  0.4372040000000 1.0
C      1  0.5357350000000  0.4199000000000  0.5662910000000 1.0
C      1  0.5113640000000  0.4620320000000  0.5653600000000 1.0
C      1  0.5002590000000  0.4702890000000  0.5103170000000 1.0
C      1  0.5598970000000  0.4541420000000  0.4130420000000 1.0
C      1  0.5572680000000  0.6055990000000  0.4855380000000 1.0
C      1  0.4693510000000  0.5621040000000  0.4881660000000 1.0
C      1  0.5013940000000  0.5076010000000  0.4949220000000 1.0
C      1  0.5117680000000  0.6094500000000  0.5365570000000 1.0
C      1  0.5735070000000  0.5346570000000  0.4089490000000 1.0
C      1  0.5315720000000  0.5389200000000  0.6046180000000 1.0
C      1  0.5407970000000  0.4509400000000  0.5336230000000 1.0
C      1  0.4768480000000  0.4879380000000  0.4569910000000 1.0
C      1  0.5314520000000  0.5622080000000  0.5867440000000 1.0
C      1  0.4353800000000  0.5824380000000  0.4751500000000 1.0
C      1  0.4907540000000  0.3938990000000  0.4723810000000 1.0
C      1  0.4131790000000  0.5508490000000  0.4900120000000 1.0
C      1  0.5298190000000  0.5604720000000  0.4066470000000 1.0
C      1  0.5742460000000  0.5941290000000  0.5062820000000 1.0
C      1  0.4935530000000  0.4003370000000  0.4457180000000 1.0
C      1  0.5033650000000  0.6111660000000  0.4743360000000 1.0
C      1  0.5168660000000  0.5621370000000  0.5237730000000 1.0
C      1  0.4535590000000  0.4283820000000  0.4281120000000 1.0
C      1  0.4232990000000  0.4252690000000  0.4576340000000 1.0
C      1  0.4764470000000  0.4398400000000  0.4130600000000 1.0
C      1  0.5623200000000  0.5847150000000  0.5325190000000 1.0
C      1  0.4022860000000  0.5194110000000  0.4981950000000 1.0
C      1  0.4761090000000  0.4922390000000  0.5597190000000 1.0
C      1  0.5503600000000  0.4077320000000  0.5188520000000 1.0
C      1  0.4960760000000  0.5599420000000  0.5433960000000 1.0
C      1  0.4090590000000  0.5181110000000  0.5471530000000 1.0
C      1  0.6025550000000  0.5095820000000  0.4987010000000 1.0
C      1  0.4362690000000  0.5041660000000  0.6181520000000 1.0
C      1  0.5139860000000  0.5784410000000  0.4992570000000 1.0
C      1  0.5037930000000  0.3981990000000  0.5308290000000 1.0
C      1  0.5497850000000  0.4952090000000  0.5715420000000 1.0
C      1  0.5132940000000  0.5334900000000  0.4829790000000 1.0
C      1  0.4970290000000  0.5606770000000  0.4833840000000 1.0
C      1  0.4804700000000  0.6091080000000  0.4927020000000 1.0
C      1  0.5772530000000  0.4640590000000  0.5895480000000 1.0
C      1  0.4513600000000  0.4623840000000  0.5207450000000 1.0
C      1  0.4242320000000  0.4689810000000  0.4251700000000 1.0
C      1  0.5021110000000  0.5612620000000  0.4098170000000 1.0
C      1  0.5539050000000  0.5117310000000  0.4150280000000 1.0
C      1  0.5698850000000  0.5594270000000  0.5472970000000 1.0
C      1  0.4544110000000  0.5162250000000  0.4998840000000 1.0
C      1  0.4707600000000  0.5514250000000  0.5280350000000 1.0
C      1  0.5344810000000  0.5264630000000  0.4373950000000 1.0
C      1  0.5418420000000  0.4653550000000  0.4761320000000 1.0
C      1  0.4208780000000  0.4390550000000  0.5433520000000 1.0
C      1  0.4065390000000  0.4903800000000  0.4422080000000 1.0
C      1  0.4289270000000  0.5066970000000  0.4894050000000 1.0
C      1  0.4450430000000  0.5268220000000  0.5723720000000 1.0
C      1  0.5562750000000  0.4986210000000  0.4598300000000 1.0
C      1  0.5185370000000  0.3962080000000  0.4799770000000 1.0
C      1  0.5564460000000  0.5290520000000  0.5916250000000 1.0
C      1  0.5395280000000  0.5360440000000  0.4953090000000 1.0
C      1  0.5273950000000  0.4154580000000  0.4263980000000 1.0
C      1  0.4945610000000  0.6018940000000  0.4464350000000 1.0
C      1  0.4849580000000  0.5142210000000  0.4200830000000 1.0
C      1  0.5373760000000  0.4143470000000  0.4551200000000 1.0
C      1  0.5293890000000  0.4576620000000  0.6061650000000 1.0
C      1  0.5151430000000  0.5194480000000  0.4557720000000 1.0
C      1  0.4368950000000  0.4861060000000  0.5347330000000 1.0
C      1  0.4748100000000  0.4603360000000  0.5026570000000 1.0
C      1  0.3962750000000  0.4856140000000  0.5243560000000 1.0
C      1  0.4408540000000  0.5540290000000  0.5614100000000 1.0
C      1  0.5742010000000  0.4796830000000  0.5608040000000 1.0
C      1  0.5905890000000  0.5309610000000  0.4818140000000 1.0
C      1  0.5484070000000  0.5022500000000  0.5973350000000 1.0
C      1  0.4682520000000  0.5247090000000  0.5231190000000 1.0
C      1  0.4139530000000  0.4671100000000  0.5367880000000 1.0
C      1  0.4060840000000  0.5127150000000  0.4194090000000 1.0
C      1  0.5351710000000  0.5437360000000  0.5208260000000 1.0
C      1  0.5199910000000  0.4492690000000  0.5136860000000 1.0
C      1  0.4972780000000  0.5005060000000  0.6166390000000 1.0
C      1  0.4619590000000  0.5643310000000  0.4400820000000 1.0
C      1  0.5627640000000  0.4666510000000  0.5339350000000 1.0
C      1  0.4528460000000  0.5716900000000  0.5144670000000 1.0
C      1  0.4462970000000  0.5367180000000  0.4136360000000 1.0
C      1  0.5102960000000  0.4523810000000  0.4096430000000 1.0
C      1  0.4984250000000  0.4151810000000  0.4225450000000 1.0
C      1  0.6142840000000  0.4542580000000  0.5160680000000 1.0
C      1  0.5028080000000  0.5905130000000  0.5565300000000 1.0
C      1  0.5978150000000  0.5444750000000  0.4564610000000 1.0
C      1  0.6004990000000  0.4548060000000  0.4952450000000 1.0
C      1  0.5386180000000  0.5267250000000  0.5414040000000 1.0
C      1  0.4943340000000  0.4432120000000  0.4614400000000 1.0
C      1  0.4485470000000  0.4812310000000  0.6041000000000 1.0
C      1  0.5623010000000  0.5391800000000  0.4788440000000 1.0
C      1  0.4896770000000  0.4014710000000  0.5706410000000 1.0
C      1  0.4358130000000  0.5541910000000  0.4342880000000 1.0
C      1  0.5116950000000  0.4743720000000  0.4279110000000 1.0
C      1  0.4473710000000  0.4850820000000  0.4611620000000 1.0
C      1  0.5367190000000  0.4792860000000  0.4517630000000 1.0
C      1  0.5245520000000  0.3975380000000  0.5079860000000 1.0
C      1  0.4796710000000  0.4803860000000  0.6054310000000 1.0
C      1  0.4488050000000  0.4128940000000  0.4531410000000 1.0
C      1  0.4297600000000  0.4765060000000  0.5811090000000 1.0
C      1  0.4445760000000  0.4239910000000  0.5884290000000 1.0
C      1  0.5811200000000  0.5371160000000  0.5320970000000 1.0
C      1  0.4607580000000  0.5760500000000  0.5623720000000 1.0
C      1  0.5505450000000  0.5478730000000  0.5672100000000 1.0
C      1  0.5054390000000  0.4713370000000  0.6162260000000 1.0
C      1  0.4889380000000  0.5142750000000  0.5476110000000 1.0
C      1  0.4786180000000  0.4064680000000  0.5309230000000 1.0
C      1  0.3951370000000  0.5114710000000  0.5255280000000 1.0
C      1  0.5259370000000  0.4859500000000  0.5612110000000 1.0
C      1  0.5514900000000  0.4274760000000  0.5427920000000 1.0
C      1  0.5200030000000  0.4334430000000  0.4669320000000 1.0
C      1  0.5311740000000  0.4441110000000  0.4878750000000 1.0
C      1  0.5623030000000  0.5155500000000  0.5285190000000 1.0
C      1  0.5491880000000  0.5469460000000  0.4518670000000 1.0
C      1  0.5968580000000  0.4615620000000  0.4456140000000 1.0
C      1  0.5575870000000  0.4815640000000  0.4069480000000 1.0
C      1  0.5810490000000  0.5894320000000  0.4780940000000 1.0
C      1  0.4249100000000  0.5175680000000  0.5927270000000 1.0
C      1  0.5239410000000  0.4413060000000  0.5826480000000 1.0
END
