TITL C-4164244-2836-706 3.23861254112453 125000 -17130.2336648513 0 0 114 (C1) n - 1
REM
REM in /home/nfs/bkarasulu/CARBON/AIRSS/Generating-Clusters/ReaxFF-fromJPCA2015/Units_Real/with-SteepDescent/Only-C1/SD-CG/Try1-3A/FIRE-CG
REM
REM
REM
REM
REM
REM ./C.cell (11c1c37f851c82e70ff6c80c92926a4b)
REM
REM compiler GCC version 9.2.1 20190827 (Red Hat 9.2.1-1)
REM options -cpp -mtune=generic -march=x86-64 -g -O0 -fpre-include=/usr/include/finclude/math-vector-fortran.h
REM seed 2035185970 -1615542958 -862471522 -1979148166 -479684099 -1830675514 338115360 -1263218884 -1438594765 -171702410 -2131669154 -1170187064 -1007457652 -56818745 2086907035 -242134652 121235269 -74775206 -1088834586 -321419585 -129207087 889389814 1734318075 -1113862355 -1480613654 -271635238 -472831923 2058113738 -609908560 1894647366 -340324318 -16502197 974632907
REM
CELL 1.54180   50.00000   50.00000   50.00000   90.00000   90.00000   90.00000
LATT -1
SFAC C  
C      1  0.4388080000000  0.4562580000000  0.5578370000000 1.0
C      1  0.5697520000000  0.4401160000000  0.4386890000000 1.0
C      1  0.4632130000000  0.5327780000000  0.5224270000000 1.0
C      1  0.5627050000000  0.4844290000000  0.4134580000000 1.0
C      1  0.4802710000000  0.5782070000000  0.4513580000000 1.0
C      1  0.5010180000000  0.5254580000000  0.5435820000000 1.0
C      1  0.4959590000000  0.5629060000000  0.4962980000000 1.0
C      1  0.5417630000000  0.5343650000000  0.4854490000000 1.0
C      1  0.4072690000000  0.5241210000000  0.5250570000000 1.0
C      1  0.5000050000000  0.4190320000000  0.5475150000000 1.0
C      1  0.5221660000000  0.5310940000000  0.5642910000000 1.0
C      1  0.4947570000000  0.5852820000000  0.4755400000000 1.0
C      1  0.5120830000000  0.4668300000000  0.5288310000000 1.0
C      1  0.4832750000000  0.5595700000000  0.5768380000000 1.0
C      1  0.4859220000000  0.4565590000000  0.5207550000000 1.0
C      1  0.4930970000000  0.4705480000000  0.4115820000000 1.0
C      1  0.4658240000000  0.5686620000000  0.5539800000000 1.0
C      1  0.5626500000000  0.5508720000000  0.4962120000000 1.0
C      1  0.5078250000000  0.4770600000000  0.4831000000000 1.0
C      1  0.5313000000000  0.5920100000000  0.4946150000000 1.0
C      1  0.5378090000000  0.4753320000000  0.5777810000000 1.0
C      1  0.5258990000000  0.5788720000000  0.4417410000000 1.0
C      1  0.4450930000000  0.4534220000000  0.4366640000000 1.0
C      1  0.4648380000000  0.4879820000000  0.5881820000000 1.0
C      1  0.4839910000000  0.5468060000000  0.4191350000000 1.0
C      1  0.5669480000000  0.4578830000000  0.4210230000000 1.0
C      1  0.5852030000000  0.5004580000000  0.4846930000000 1.0
C      1  0.4977330000000  0.4485770000000  0.5827200000000 1.0
C      1  0.4751520000000  0.5115720000000  0.4684080000000 1.0
C      1  0.4477290000000  0.5483050000000  0.5415870000000 1.0
C      1  0.5322150000000  0.5824620000000  0.5210080000000 1.0
C      1  0.4569890000000  0.5141730000000  0.5985910000000 1.0
C      1  0.5202040000000  0.5179220000000  0.5935380000000 1.0
C      1  0.5274350000000  0.4287600000000  0.5534730000000 1.0
C      1  0.4699360000000  0.4179700000000  0.4584750000000 1.0
C      1  0.5124850000000  0.5352070000000  0.4883550000000 1.0
C      1  0.4619720000000  0.4149920000000  0.5123650000000 1.0
C      1  0.4833860000000  0.4933490000000  0.4916700000000 1.0
C      1  0.4457010000000  0.4296340000000  0.4461950000000 1.0
C      1  0.4254370000000  0.5036490000000  0.5678690000000 1.0
C      1  0.4394370000000  0.5200680000000  0.5825700000000 1.0
C      1  0.5549000000000  0.4952870000000  0.4928450000000 1.0
C      1  0.4413290000000  0.5207390000000  0.4365580000000 1.0
C      1  0.4275630000000  0.5330240000000  0.4806890000000 1.0
C      1  0.5903060000000  0.4685810000000  0.4941610000000 1.0
C      1  0.5562970000000  0.4923840000000  0.5613860000000 1.0
C      1  0.5159100000000  0.4709720000000  0.4550930000000 1.0
C      1  0.5170890000000  0.4888460000000  0.5938800000000 1.0
C      1  0.5647070000000  0.5421430000000  0.5427700000000 1.0
C      1  0.5696150000000  0.4809560000000  0.5370900000000 1.0
C      1  0.4429870000000  0.4229750000000  0.5332300000000 1.0
C      1  0.5084320000000  0.5156410000000  0.5177720000000 1.0
C      1  0.5650370000000  0.4930620000000  0.4419230000000 1.0
C      1  0.4724720000000  0.5389120000000  0.5991190000000 1.0
C      1  0.5463430000000  0.4262000000000  0.4820780000000 1.0
C      1  0.4542940000000  0.5786320000000  0.5137600000000 1.0
C      1  0.4311490000000  0.5629470000000  0.5218500000000 1.0
C      1  0.4239050000000  0.4843310000000  0.4615610000000 1.0
C      1  0.4237620000000  0.5137890000000  0.4592200000000 1.0
C      1  0.4954180000000  0.4296630000000  0.4505980000000 1.0
C      1  0.4564220000000  0.5395300000000  0.4757080000000 1.0
C      1  0.5506560000000  0.5215060000000  0.5578710000000 1.0
C      1  0.4816080000000  0.4288970000000  0.5681240000000 1.0
C      1  0.4819510000000  0.5129370000000  0.5265980000000 1.0
C      1  0.5709170000000  0.5550080000000  0.4650550000000 1.0
C      1  0.5211650000000  0.5165060000000  0.4423730000000 1.0
C      1  0.4955980000000  0.5241180000000  0.6036420000000 1.0
C      1  0.5751370000000  0.4601870000000  0.5172740000000 1.0
C      1  0.5699400000000  0.4268430000000  0.4643510000000 1.0
C      1  0.5297610000000  0.4429870000000  0.5284710000000 1.0
C      1  0.5359550000000  0.4736050000000  0.4912850000000 1.0
C      1  0.4557830000000  0.5451880000000  0.4295650000000 1.0
C      1  0.5565560000000  0.5314730000000  0.4608420000000 1.0
C      1  0.4427060000000  0.4810760000000  0.5709570000000 1.0
C      1  0.4533320000000  0.4309560000000  0.5601270000000 1.0
C      1  0.5223920000000  0.5169850000000  0.4129480000000 1.0
C      1  0.4573300000000  0.5604520000000  0.4537170000000 1.0
C      1  0.4307620000000  0.4499930000000  0.5303220000000 1.0
C      1  0.4402240000000  0.4760080000000  0.4394390000000 1.0
C      1  0.4155210000000  0.5436780000000  0.5051910000000 1.0
C      1  0.4615820000000  0.4988020000000  0.4384960000000 1.0
C      1  0.5360450000000  0.4923500000000  0.4485560000000 1.0
C      1  0.5555470000000  0.5623860000000  0.5219720000000 1.0
C      1  0.4668860000000  0.4741150000000  0.5068950000000 1.0
C      1  0.5504390000000  0.5692410000000  0.4507230000000 1.0
C      1  0.4548760000000  0.4190710000000  0.4842800000000 1.0
C      1  0.4267890000000  0.4631170000000  0.4810810000000 1.0
C      1  0.5899790000000  0.5191590000000  0.5066160000000 1.0
C      1  0.4906710000000  0.4751060000000  0.5912540000000 1.0
C      1  0.4939140000000  0.5215330000000  0.4082150000000 1.0
C      1  0.4802690000000  0.4964730000000  0.4151090000000 1.0
C      1  0.4678620000000  0.5527000000000  0.5015270000000 1.0
C      1  0.4992110000000  0.5683510000000  0.4314790000000 1.0
C      1  0.5011970000000  0.5238330000000  0.4633380000000 1.0
C      1  0.5167010000000  0.4737260000000  0.3933690000000 1.0
C      1  0.4112310000000  0.5124040000000  0.5442540000000 1.0
C      1  0.5230860000000  0.4926590000000  0.5255160000000 1.0
C      1  0.5032520000000  0.5761880000000  0.5212660000000 1.0
C      1  0.4995580000000  0.4545360000000  0.4369640000000 1.0
C      1  0.4381270000000  0.4675440000000  0.5075750000000 1.0
C      1  0.4866860000000  0.4273300000000  0.5221860000000 1.0
C      1  0.5491550000000  0.4458510000000  0.5051380000000 1.0
C      1  0.5211130000000  0.5953990000000  0.4682910000000 1.0
C      1  0.5113480000000  0.5609540000000  0.5733060000000 1.0
C      1  0.5192290000000  0.4182370000000  0.4713570000000 1.0
C      1  0.4769480000000  0.5840000000000  0.5319330000000 1.0
C      1  0.4338810000000  0.4355360000000  0.4717270000000 1.0
C      1  0.5370270000000  0.4941950000000  0.4008840000000 1.0
C      1  0.5838730000000  0.4485110000000  0.4766180000000 1.0
C      1  0.5509140000000  0.4975740000000  0.5213480000000 1.0
C      1  0.5263970000000  0.4485440000000  0.5752110000000 1.0
C      1  0.5015160000000  0.3998130000000  0.4774160000000 1.0
C      1  0.5773750000000  0.5146100000000  0.4578460000000 1.0
C      1  0.5868340000000  0.5355800000000  0.5253530000000 1.0
END
