TITL C-4164232-771-559 71.8244628980212 125000 -19660.8578146708 0 0 133 (C1) n - 1
REM
REM in /home/nfs/bkarasulu/CARBON/AIRSS/Generating-Clusters/ReaxFF-fromJPCA2015/Units_Real/with-SteepDescent/Only-C1/SD-CG/Try1-3A/FIRE-CG
REM
REM
REM
REM
REM
REM ./C.cell (11c1c37f851c82e70ff6c80c92926a4b)
REM
REM compiler GCC version 9.2.1 20190827 (Red Hat 9.2.1-1)
REM options -cpp -mtune=generic -march=x86-64 -g -O0 -fpre-include=/usr/include/finclude/math-vector-fortran.h
REM seed 1547271476 -561817393 725416331 561439220 167485214 -1275506639 -1151506769 -516748919 1232181404 -622826093 -1126041728 -1765244326 -2089659527 -1803064776 -781885442 -1878899468 -212679173 -444858912 1266864627 -636160057 -1755579393 1360617862 -2021647016 1773482754 -453170195 2052063657 141842483 -245175455 656789988 1773480544 1633513567 -1919555818 90262441
REM
CELL 1.54180   50.00000   50.00000   50.00000   90.00000   90.00000   90.00000
LATT -1
SFAC C  
C      1  0.5410380000000  0.5292230000000  0.5224130000000 1.0
C      1  0.4291330000000  0.4541110000000  0.4599480000000 1.0
C      1  0.4432130000000  0.4780100000000  0.4114990000000 1.0
C      1  0.4834220000000  0.5141820000000  0.5807160000000 1.0
C      1  0.4702490000000  0.4661640000000  0.4898340000000 1.0
C      1  0.5378310000000  0.4894000000000  0.4899830000000 1.0
C      1  0.5710010000000  0.4995350000000  0.4422670000000 1.0
C      1  0.5240740000000  0.5175280000000  0.4209040000000 1.0
C      1  0.5154940000000  0.5946420000000  0.4884140000000 1.0
C      1  0.5177700000000  0.5072520000000  0.5905270000000 1.0
C      1  0.5124980000000  0.4084570000000  0.5498790000000 1.0
C      1  0.5181520000000  0.4053950000000  0.4463560000000 1.0
C      1  0.5060320000000  0.6005390000000  0.5153320000000 1.0
C      1  0.5585050000000  0.5799090000000  0.5114380000000 1.0
C      1  0.4063550000000  0.5447730000000  0.5036390000000 1.0
C      1  0.5216080000000  0.5944080000000  0.5392070000000 1.0
C      1  0.5398870000000  0.5575120000000  0.5160420000000 1.0
C      1  0.5285560000000  0.4039870000000  0.5054720000000 1.0
C      1  0.5786900000000  0.4807950000000  0.5393060000000 1.0
C      1  0.4274360000000  0.4669600000000  0.4340340000000 1.0
C      1  0.4861220000000  0.4410060000000  0.5804440000000 1.0
C      1  0.5092210000000  0.4528870000000  0.5196000000000 1.0
C      1  0.4131760000000  0.5177130000000  0.5433700000000 1.0
C      1  0.5902530000000  0.5292450000000  0.5075320000000 1.0
C      1  0.5344820000000  0.4862600000000  0.5394940000000 1.0
C      1  0.5059340000000  0.4380300000000  0.4777730000000 1.0
C      1  0.5293270000000  0.5846710000000  0.4661840000000 1.0
C      1  0.5550320000000  0.5545520000000  0.4528710000000 1.0
C      1  0.4536690000000  0.5107770000000  0.4945470000000 1.0
C      1  0.4905920000000  0.4492470000000  0.4988900000000 1.0
C      1  0.5540700000000  0.5666500000000  0.5571910000000 1.0
C      1  0.5253080000000  0.4615830000000  0.4096000000000 1.0
C      1  0.5177230000000  0.4905570000000  0.4665770000000 1.0
C      1  0.5788660000000  0.4801460000000  0.5103990000000 1.0
C      1  0.5378450000000  0.4484250000000  0.4530010000000 1.0
C      1  0.4730430000000  0.4873150000000  0.5814530000000 1.0
C      1  0.5113990000000  0.5476080000000  0.4193700000000 1.0
C      1  0.4644780000000  0.5661380000000  0.4649070000000 1.0
C      1  0.5211610000000  0.4789790000000  0.5927560000000 1.0
C      1  0.4552700000000  0.4771780000000  0.5566500000000 1.0
C      1  0.5074620000000  0.4204760000000  0.5763350000000 1.0
C      1  0.5510180000000  0.5896970000000  0.5380550000000 1.0
C      1  0.4151910000000  0.5426440000000  0.4768440000000 1.0
C      1  0.5238280000000  0.4796330000000  0.5133300000000 1.0
C      1  0.4986880000000  0.4991590000000  0.5087940000000 1.0
C      1  0.5687110000000  0.5212090000000  0.5730970000000 1.0
C      1  0.5092650000000  0.5379640000000  0.4594560000000 1.0
C      1  0.5482100000000  0.4149900000000  0.4877920000000 1.0
C      1  0.4583580000000  0.5532690000000  0.5589730000000 1.0
C      1  0.5740060000000  0.5068340000000  0.4983550000000 1.0
C      1  0.5753220000000  0.5652240000000  0.4710660000000 1.0
C      1  0.4850030000000  0.5475820000000  0.4742800000000 1.0
C      1  0.5432000000000  0.5134750000000  0.5841960000000 1.0
C      1  0.4892070000000  0.4089850000000  0.4506930000000 1.0
C      1  0.4364730000000  0.5574520000000  0.4608560000000 1.0
C      1  0.4170650000000  0.5137640000000  0.4702940000000 1.0
C      1  0.5541240000000  0.4387950000000  0.5317670000000 1.0
C      1  0.5122800000000  0.4577490000000  0.4585610000000 1.0
C      1  0.5562950000000  0.5847150000000  0.4821760000000 1.0
C      1  0.4860340000000  0.5389190000000  0.4088530000000 1.0
C      1  0.4832880000000  0.5104880000000  0.3986860000000 1.0
C      1  0.4189540000000  0.4652280000000  0.4855440000000 1.0
C      1  0.4703400000000  0.4468280000000  0.5549290000000 1.0
C      1  0.4414170000000  0.5632130000000  0.5112110000000 1.0
C      1  0.4557280000000  0.4240410000000  0.5378510000000 1.0
C      1  0.5286750000000  0.5526200000000  0.5601740000000 1.0
C      1  0.4575010000000  0.5269430000000  0.5699890000000 1.0
C      1  0.4549670000000  0.5367210000000  0.5083440000000 1.0
C      1  0.5424360000000  0.4622030000000  0.5795810000000 1.0
C      1  0.5411280000000  0.4195390000000  0.4593250000000 1.0
C      1  0.4233410000000  0.4525160000000  0.5126480000000 1.0
C      1  0.4722500000000  0.4316400000000  0.4435560000000 1.0
C      1  0.4953630000000  0.4724010000000  0.4125320000000 1.0
C      1  0.5024470000000  0.5111560000000  0.5538070000000 1.0
C      1  0.5843590000000  0.5062010000000  0.5518200000000 1.0
C      1  0.4562880000000  0.4216440000000  0.4871790000000 1.0
C      1  0.5896350000000  0.5402670000000  0.4797090000000 1.0
C      1  0.5753480000000  0.5466950000000  0.5586140000000 1.0
C      1  0.4653180000000  0.3967450000000  0.5399970000000 1.0
C      1  0.4083080000000  0.5436220000000  0.5314960000000 1.0
C      1  0.5343910000000  0.5404700000000  0.4747870000000 1.0
C      1  0.4941270000000  0.4608520000000  0.5430290000000 1.0
C      1  0.5454580000000  0.5160150000000  0.4962020000000 1.0
C      1  0.5233120000000  0.5568650000000  0.4949880000000 1.0
C      1  0.4275430000000  0.4943070000000  0.4277150000000 1.0
C      1  0.4808980000000  0.5416770000000  0.5205600000000 1.0
C      1  0.5077320000000  0.4988730000000  0.4057620000000 1.0
C      1  0.4805530000000  0.5898980000000  0.5264280000000 1.0
C      1  0.4697230000000  0.4846750000000  0.4017220000000 1.0
C      1  0.4803370000000  0.5720300000000  0.4409520000000 1.0
C      1  0.5281050000000  0.4388840000000  0.5820160000000 1.0
C      1  0.4433420000000  0.4307780000000  0.5115970000000 1.0
C      1  0.4312920000000  0.5113060000000  0.5646310000000 1.0
C      1  0.5834760000000  0.4559430000000  0.4637160000000 1.0
C      1  0.4942690000000  0.5032840000000  0.4807750000000 1.0
C      1  0.4154660000000  0.4691810000000  0.5354580000000 1.0
C      1  0.5092180000000  0.4830960000000  0.5518030000000 1.0
C      1  0.5081580000000  0.5735200000000  0.5559040000000 1.0
C      1  0.5281390000000  0.4249490000000  0.5298760000000 1.0
C      1  0.5106090000000  0.5666620000000  0.4416510000000 1.0
C      1  0.4796120000000  0.5710330000000  0.5505850000000 1.0
C      1  0.5141080000000  0.5126290000000  0.4468130000000 1.0
C      1  0.5558810000000  0.5139020000000  0.4215930000000 1.0
C      1  0.4205940000000  0.4951040000000  0.5218190000000 1.0
C      1  0.4920770000000  0.4676030000000  0.5903200000000 1.0
C      1  0.5639890000000  0.5384480000000  0.4311730000000 1.0
C      1  0.4839980000000  0.4592250000000  0.4422280000000 1.0
C      1  0.5284250000000  0.5258350000000  0.5472360000000 1.0
C      1  0.4353640000000  0.5140950000000  0.4465930000000 1.0
C      1  0.4260680000000  0.5916460000000  0.5392740000000 1.0
C      1  0.5796140000000  0.4557100000000  0.4938380000000 1.0
C      1  0.5547950000000  0.4644880000000  0.5492500000000 1.0
C      1  0.4689790000000  0.4750700000000  0.4628690000000 1.0
C      1  0.4503950000000  0.4907180000000  0.5297810000000 1.0
C      1  0.5461120000000  0.4563340000000  0.4142130000000 1.0
C      1  0.4963740000000  0.5541730000000  0.4996770000000 1.0
C      1  0.4854940000000  0.4122890000000  0.4816020000000 1.0
C      1  0.4950510000000  0.3943280000000  0.5314240000000 1.0
C      1  0.5012330000000  0.3962190000000  0.5026400000000 1.0
C      1  0.4141520000000  0.4928960000000  0.4898110000000 1.0
C      1  0.4308480000000  0.5645290000000  0.5441420000000 1.0
C      1  0.4258520000000  0.4816640000000  0.5610480000000 1.0
C      1  0.4588470000000  0.5868900000000  0.5058990000000 1.0
C      1  0.4672110000000  0.5041710000000  0.4688010000000 1.0
C      1  0.4416710000000  0.5419100000000  0.4374920000000 1.0
C      1  0.5852420000000  0.5181260000000  0.4596290000000 1.0
C      1  0.5636920000000  0.4666400000000  0.4450510000000 1.0
C      1  0.5637850000000  0.4340300000000  0.5053350000000 1.0
C      1  0.4654390000000  0.4882960000000  0.5079260000000 1.0
C      1  0.4653120000000  0.5532280000000  0.4238560000000 1.0
C      1  0.5893930000000  0.5314180000000  0.5370380000000 1.0
C      1  0.4908970000000  0.5169560000000  0.5293170000000 1.0
C      1  0.4486040000000  0.4321420000000  0.4615700000000 1.0
END
