TITL C-4164234-2335-662 -29.4927989624576 125000 -11522.9057221762 0 0 77 (C1) n - 1
REM
REM in /home/nfs/bkarasulu/CARBON/AIRSS/Generating-Clusters/ReaxFF-fromJPCA2015/Units_Real/with-SteepDescent/Only-C1/SD-CG/Try1-3A/FIRE-CG
REM
REM
REM
REM
REM
REM ./C.cell (11c1c37f851c82e70ff6c80c92926a4b)
REM
REM compiler GCC version 9.2.1 20190827 (Red Hat 9.2.1-1)
REM options -cpp -mtune=generic -march=x86-64 -g -O0 -fpre-include=/usr/include/finclude/math-vector-fortran.h
REM seed -153370671 580220154 -883909495 -282431278 1277481444 1042231965 846868932 -2008420237 -489770306 249976035 -1541402142 -1452750721 -1877752248 838430617 -1312373456 1456697542 1996789615 908712275 -101738385 659478430 -1685918788 549080809 -1326820393 -452491776 -652422184 -946607617 1651537486 1332992477 81451840 363317215 1585346165 -314756303 -1083439441
REM
CELL 1.54180   50.00000   50.00000   50.00000   90.00000   90.00000   90.00000
LATT -1
SFAC C  
C      1  0.5553200000000  0.5104710000000  0.4908400000000 1.0
C      1  0.5154740000000  0.4532030000000  0.4370190000000 1.0
C      1  0.4712020000000  0.5015970000000  0.4230290000000 1.0
C      1  0.5578130000000  0.5507530000000  0.5436300000000 1.0
C      1  0.5779980000000  0.5647820000000  0.5279410000000 1.0
C      1  0.5080230000000  0.5107680000000  0.5820010000000 1.0
C      1  0.5232950000000  0.5212490000000  0.4307900000000 1.0
C      1  0.4313320000000  0.5145160000000  0.4560990000000 1.0
C      1  0.4769390000000  0.4745930000000  0.4190280000000 1.0
C      1  0.4284880000000  0.4900430000000  0.5022950000000 1.0
C      1  0.4591840000000  0.5594290000000  0.4399370000000 1.0
C      1  0.5322730000000  0.5097240000000  0.5664880000000 1.0
C      1  0.5388200000000  0.4702500000000  0.4326740000000 1.0
C      1  0.5617850000000  0.5211170000000  0.5379980000000 1.0
C      1  0.5192530000000  0.4307830000000  0.5149080000000 1.0
C      1  0.5065260000000  0.5472850000000  0.5384570000000 1.0
C      1  0.4567930000000  0.4803940000000  0.5050690000000 1.0
C      1  0.5218590000000  0.5485330000000  0.4412050000000 1.0
C      1  0.4901470000000  0.5582590000000  0.4872830000000 1.0
C      1  0.4708550000000  0.5050930000000  0.4973150000000 1.0
C      1  0.4693330000000  0.4479200000000  0.4506880000000 1.0
C      1  0.4791310000000  0.4744700000000  0.5607450000000 1.0
C      1  0.5549250000000  0.4564700000000  0.4529980000000 1.0
C      1  0.5306000000000  0.5647440000000  0.5392640000000 1.0
C      1  0.4279450000000  0.5156030000000  0.4861450000000 1.0
C      1  0.5728540000000  0.5211870000000  0.5106570000000 1.0
C      1  0.5092540000000  0.5256220000000  0.5193590000000 1.0
C      1  0.4925150000000  0.4854070000000  0.5381880000000 1.0
C      1  0.4898230000000  0.5061070000000  0.4731760000000 1.0
C      1  0.5753470000000  0.5489480000000  0.5010370000000 1.0
C      1  0.5696040000000  0.4823740000000  0.4961160000000 1.0
C      1  0.4795930000000  0.5440730000000  0.5520690000000 1.0
C      1  0.5173080000000  0.5740890000000  0.4869570000000 1.0
C      1  0.4908170000000  0.5460260000000  0.4400840000000 1.0
C      1  0.4688180000000  0.5600290000000  0.5046910000000 1.0
C      1  0.4918110000000  0.5342890000000  0.4686980000000 1.0
C      1  0.5415540000000  0.4679330000000  0.5365510000000 1.0
C      1  0.4536040000000  0.4831930000000  0.5691640000000 1.0
C      1  0.4552740000000  0.5119080000000  0.5727970000000 1.0
C      1  0.4999230000000  0.4401120000000  0.5550300000000 1.0
C      1  0.4279920000000  0.4939310000000  0.5322840000000 1.0
C      1  0.4365410000000  0.4709480000000  0.5478610000000 1.0
C      1  0.5096420000000  0.4848260000000  0.4756100000000 1.0
C      1  0.5261520000000  0.5735450000000  0.5133800000000 1.0
C      1  0.5718730000000  0.4767890000000  0.4673170000000 1.0
C      1  0.4342550000000  0.4630840000000  0.4775570000000 1.0
C      1  0.5614700000000  0.5023090000000  0.4597030000000 1.0
C      1  0.4946880000000  0.5210620000000  0.4242140000000 1.0
C      1  0.4811760000000  0.5252330000000  0.5734010000000 1.0
C      1  0.5268420000000  0.5134070000000  0.4994730000000 1.0
C      1  0.4509990000000  0.5285560000000  0.4879220000000 1.0
C      1  0.5254620000000  0.4403310000000  0.5420880000000 1.0
C      1  0.5098700000000  0.4554010000000  0.4668840000000 1.0
C      1  0.4962160000000  0.4586620000000  0.5779590000000 1.0
C      1  0.4463090000000  0.4665450000000  0.4513850000000 1.0
C      1  0.4394500000000  0.5163360000000  0.5480020000000 1.0
C      1  0.4432160000000  0.5400040000000  0.4505850000000 1.0
C      1  0.4482670000000  0.4947820000000  0.4417320000000 1.0
C      1  0.4536320000000  0.5399870000000  0.5377690000000 1.0
C      1  0.4512220000000  0.4470220000000  0.5378360000000 1.0
C      1  0.4816240000000  0.4401020000000  0.4779300000000 1.0
C      1  0.4783120000000  0.4368610000000  0.5333870000000 1.0
C      1  0.5091660000000  0.4826600000000  0.5860390000000 1.0
C      1  0.5423940000000  0.4992690000000  0.4382610000000 1.0
C      1  0.4872060000000  0.4498060000000  0.4271530000000 1.0
C      1  0.5434100000000  0.4393300000000  0.4996550000000 1.0
C      1  0.4857620000000  0.5092340000000  0.5233970000000 1.0
C      1  0.5346840000000  0.5623430000000  0.4648360000000 1.0
C      1  0.4572060000000  0.4542290000000  0.4919250000000 1.0
C      1  0.4910990000000  0.4338560000000  0.5065810000000 1.0
C      1  0.4445900000000  0.5457490000000  0.5091610000000 1.0
C      1  0.5157480000000  0.4757550000000  0.5246060000000 1.0
C      1  0.5489190000000  0.4979040000000  0.5498030000000 1.0
C      1  0.5372690000000  0.4421520000000  0.4715510000000 1.0
C      1  0.5205940000000  0.4872880000000  0.5000480000000 1.0
C      1  0.5578660000000  0.4614390000000  0.5123250000000 1.0
C      1  0.5554630000000  0.5559200000000  0.4819560000000 1.0
END
