TITL C-4164245-3996-99 -17.0016530782716 125000 -7037.10955508327 0 0 48 (C1) n - 1
REM
REM in /home/nfs/bkarasulu/CARBON/AIRSS/Generating-Clusters/ReaxFF-fromJPCA2015/Units_Real/with-SteepDescent/Only-C1/SD-CG/Try1-3A/FIRE-CG
REM
REM
REM
REM
REM
REM ./C.cell (11c1c37f851c82e70ff6c80c92926a4b)
REM
REM compiler GCC version 9.2.1 20190827 (Red Hat 9.2.1-1)
REM options -cpp -mtune=generic -march=x86-64 -g -O0 -fpre-include=/usr/include/finclude/math-vector-fortran.h
REM seed -1367244269 865978742 -722550920 1679975759 689482134 1220058095 1037274767 1822568114 221687966 186531269 -832396504 -1116756748 1961726321 -1784560013 -1621094221 -679257433 219178888 -1429174070 2013078437 -1736732169 -419862485 113633695 1272747440 1881421025 811445127 -2009020239 171879315 -1990744240 -2094293848 770511822 -2030825907 134135978 -712912198
REM
CELL 1.54180   50.00000   50.00000   50.00000   90.00000   90.00000   90.00000
LATT -1
SFAC C  
C      1  0.4563260000000  0.4377020000000  0.5394220000000 1.0
C      1  0.5178810000000  0.5341180000000  0.4493590000000 1.0
C      1  0.4765450000000  0.5252990000000  0.4455740000000 1.0
C      1  0.5344660000000  0.5177920000000  0.5567670000000 1.0
C      1  0.4381170000000  0.5126480000000  0.5256230000000 1.0
C      1  0.5474110000000  0.4971420000000  0.5387600000000 1.0
C      1  0.4431910000000  0.4949650000000  0.4636720000000 1.0
C      1  0.4979820000000  0.4764710000000  0.4557170000000 1.0
C      1  0.5252030000000  0.4524290000000  0.4794030000000 1.0
C      1  0.5027070000000  0.5649860000000  0.4731120000000 1.0
C      1  0.5278170000000  0.5564340000000  0.4836570000000 1.0
C      1  0.5050270000000  0.4527770000000  0.5504940000000 1.0
C      1  0.5084450000000  0.4944870000000  0.4779540000000 1.0
C      1  0.5715260000000  0.4609360000000  0.5141750000000 1.0
C      1  0.5645850000000  0.5190110000000  0.4943060000000 1.0
C      1  0.5457890000000  0.5559290000000  0.5237000000000 1.0
C      1  0.5493900000000  0.4673370000000  0.5328170000000 1.0
C      1  0.4913580000000  0.5022630000000  0.5003590000000 1.0
C      1  0.4845350000000  0.4744060000000  0.5461040000000 1.0
C      1  0.4947460000000  0.5491540000000  0.4476180000000 1.0
C      1  0.5150040000000  0.4411610000000  0.5020070000000 1.0
C      1  0.5703250000000  0.4965090000000  0.4753730000000 1.0
C      1  0.4829000000000  0.5669230000000  0.4942800000000 1.0
C      1  0.5824560000000  0.4727000000000  0.4892120000000 1.0
C      1  0.4392340000000  0.4835120000000  0.5251600000000 1.0
C      1  0.4189270000000  0.5255990000000  0.4776940000000 1.0
C      1  0.5313780000000  0.4666950000000  0.4568800000000 1.0
C      1  0.4606310000000  0.4406860000000  0.5097960000000 1.0
C      1  0.4868260000000  0.5225800000000  0.5414820000000 1.0
C      1  0.4863540000000  0.4424580000000  0.4933140000000 1.0
C      1  0.4243290000000  0.5161470000000  0.5027420000000 1.0
C      1  0.5257040000000  0.4498150000000  0.5294870000000 1.0
C      1  0.4706320000000  0.5212560000000  0.4963740000000 1.0
C      1  0.5361580000000  0.5462210000000  0.5497270000000 1.0
C      1  0.5281370000000  0.5112590000000  0.4631880000000 1.0
C      1  0.5513740000000  0.5483600000000  0.4954450000000 1.0
C      1  0.4862450000000  0.4996870000000  0.4382480000000 1.0
C      1  0.4507850000000  0.4683320000000  0.4748750000000 1.0
C      1  0.4649350000000  0.5645870000000  0.5143570000000 1.0
C      1  0.4635070000000  0.5320140000000  0.5236330000000 1.0
C      1  0.4546480000000  0.5223500000000  0.4703880000000 1.0
C      1  0.4553010000000  0.4675580000000  0.5448390000000 1.0
C      1  0.5485120000000  0.4904010000000  0.4570080000000 1.0
C      1  0.4782470000000  0.4583470000000  0.4710310000000 1.0
C      1  0.5572210000000  0.5051320000000  0.5151530000000 1.0
C      1  0.5094850000000  0.5324900000000  0.5563780000000 1.0
C      1  0.4944330000000  0.4971810000000  0.5299870000000 1.0
C      1  0.4432640000000  0.4637490000000  0.5033500000000 1.0
END
