TITL C-4164242-3624-365 -11.239100004799 125000 -12854.5475785649 0 0 87 (C1) n - 1
REM
REM in /home/nfs/bkarasulu/CARBON/AIRSS/Generating-Clusters/ReaxFF-fromJPCA2015/Units_Real/with-SteepDescent/Only-C1/SD-CG/Try1-3A/FIRE-CG
REM
REM
REM
REM
REM
REM ./C.cell (11c1c37f851c82e70ff6c80c92926a4b)
REM
REM compiler GCC version 9.2.1 20190827 (Red Hat 9.2.1-1)
REM options -cpp -mtune=generic -march=x86-64 -g -O0 -fpre-include=/usr/include/finclude/math-vector-fortran.h
REM seed -2030989530 -1790068173 1718734619 -1098889741 1808896486 -943799857 -1169834681 900859831 462054971 -933503392 -43791973 -1010029382 1491296361 817692344 20118133 -1386146467 640474609 977142988 1997957330 1115972646 -73545063 -2077202950 -1059688355 -1883360251 -913570794 -1894741086 848939609 -1828946987 1379556681 1847213431 1136432682 512466760 -2067498435
REM
CELL 1.54180   50.00000   50.00000   50.00000   90.00000   90.00000   90.00000
LATT -1
SFAC C  
C      1  0.4329130000000  0.5319020000000  0.4601860000000 1.0
C      1  0.5003110000000  0.5792990000000  0.5037990000000 1.0
C      1  0.5035260000000  0.4634140000000  0.5265800000000 1.0
C      1  0.5698980000000  0.4849700000000  0.5292300000000 1.0
C      1  0.5229450000000  0.5308600000000  0.5877420000000 1.0
C      1  0.5456210000000  0.5067160000000  0.5641720000000 1.0
C      1  0.4340920000000  0.4841370000000  0.5122030000000 1.0
C      1  0.5205120000000  0.4649310000000  0.5025790000000 1.0
C      1  0.4771750000000  0.5417490000000  0.4803670000000 1.0
C      1  0.5615050000000  0.4651460000000  0.4794420000000 1.0
C      1  0.4899540000000  0.5567240000000  0.4579780000000 1.0
C      1  0.5449620000000  0.5543100000000  0.4680680000000 1.0
C      1  0.5028630000000  0.4375980000000  0.4559890000000 1.0
C      1  0.5424640000000  0.4466310000000  0.5523530000000 1.0
C      1  0.5092320000000  0.4084850000000  0.5031700000000 1.0
C      1  0.5214330000000  0.4727790000000  0.4318890000000 1.0
C      1  0.5278520000000  0.4457080000000  0.4416460000000 1.0
C      1  0.5601720000000  0.4597970000000  0.5311130000000 1.0
C      1  0.4870240000000  0.4501750000000  0.4778060000000 1.0
C      1  0.4605700000000  0.5043970000000  0.4368030000000 1.0
C      1  0.4385790000000  0.4651580000000  0.4891460000000 1.0
C      1  0.5024680000000  0.4886470000000  0.5406180000000 1.0
C      1  0.4241830000000  0.5088150000000  0.5000810000000 1.0
C      1  0.5012120000000  0.4980630000000  0.4874270000000 1.0
C      1  0.5306220000000  0.5491110000000  0.5673180000000 1.0
C      1  0.5581370000000  0.5191190000000  0.4984480000000 1.0
C      1  0.4649370000000  0.4957270000000  0.5868200000000 1.0
C      1  0.4632880000000  0.5636300000000  0.5341230000000 1.0
C      1  0.4702360000000  0.4265770000000  0.4866450000000 1.0
C      1  0.5664010000000  0.5343970000000  0.4384760000000 1.0
C      1  0.4443540000000  0.4676290000000  0.4393560000000 1.0
C      1  0.4901940000000  0.5816280000000  0.4762730000000 1.0
C      1  0.4236240000000  0.5062440000000  0.4708720000000 1.0
C      1  0.5512020000000  0.5676890000000  0.5136580000000 1.0
C      1  0.4716720000000  0.4100490000000  0.4603160000000 1.0
C      1  0.5488150000000  0.4535360000000  0.4582830000000 1.0
C      1  0.5791670000000  0.5131600000000  0.4568830000000 1.0
C      1  0.4859240000000  0.4412290000000  0.5346980000000 1.0
C      1  0.4454060000000  0.5675190000000  0.4760620000000 1.0
C      1  0.5306300000000  0.5039580000000  0.5895950000000 1.0
C      1  0.5277010000000  0.5040500000000  0.5405700000000 1.0
C      1  0.4954440000000  0.5312040000000  0.4234840000000 1.0
C      1  0.4798620000000  0.4294760000000  0.4397680000000 1.0
C      1  0.4930230000000  0.4768340000000  0.4248470000000 1.0
C      1  0.4322960000000  0.5352270000000  0.5081290000000 1.0
C      1  0.4837040000000  0.5489170000000  0.5491800000000 1.0
C      1  0.5019270000000  0.4166490000000  0.5315420000000 1.0
C      1  0.5410180000000  0.4922080000000  0.4424580000000 1.0
C      1  0.4407220000000  0.5116700000000  0.5790420000000 1.0
C      1  0.5474100000000  0.4510230000000  0.5038490000000 1.0
C      1  0.5473970000000  0.5154920000000  0.4299120000000 1.0
C      1  0.4712240000000  0.4570070000000  0.4308030000000 1.0
C      1  0.5227210000000  0.4915610000000  0.4957640000000 1.0
C      1  0.5599860000000  0.4953240000000  0.4715950000000 1.0
C      1  0.5127370000000  0.5556180000000  0.5447680000000 1.0
C      1  0.4431540000000  0.4361690000000  0.5059570000000 1.0
C      1  0.5678540000000  0.5570080000000  0.5331740000000 1.0
C      1  0.4880920000000  0.4020500000000  0.4834950000000 1.0
C      1  0.5363310000000  0.5082510000000  0.5138590000000 1.0
C      1  0.4733300000000  0.5469510000000  0.4327720000000 1.0
C      1  0.4727530000000  0.5229260000000  0.5563990000000 1.0
C      1  0.5305200000000  0.4227350000000  0.5368030000000 1.0
C      1  0.5491020000000  0.5470610000000  0.4933730000000 1.0
C      1  0.4524430000000  0.4774870000000  0.5333480000000 1.0
C      1  0.5285750000000  0.4605170000000  0.5716020000000 1.0
C      1  0.5574590000000  0.5341240000000  0.5648630000000 1.0
C      1  0.4581750000000  0.4493900000000  0.5303930000000 1.0
C      1  0.4742360000000  0.4967630000000  0.5445010000000 1.0
C      1  0.5153680000000  0.4769660000000  0.5903620000000 1.0
C      1  0.4387560000000  0.5469050000000  0.5333480000000 1.0
C      1  0.4880660000000  0.4854930000000  0.5897140000000 1.0
C      1  0.4669300000000  0.4702920000000  0.4772150000000 1.0
C      1  0.4461360000000  0.5442100000000  0.4827150000000 1.0
C      1  0.4827710000000  0.5140900000000  0.4797770000000 1.0
C      1  0.5356420000000  0.4215020000000  0.5083800000000 1.0
C      1  0.4325840000000  0.5316850000000  0.5580830000000 1.0
C      1  0.5420220000000  0.5523720000000  0.4450670000000 1.0
C      1  0.4685290000000  0.4961720000000  0.4631740000000 1.0
C      1  0.4729900000000  0.5827140000000  0.5142980000000 1.0
C      1  0.5136310000000  0.5435610000000  0.4427340000000 1.0
C      1  0.5216320000000  0.5640450000000  0.5182480000000 1.0
C      1  0.5759650000000  0.5110220000000  0.5220300000000 1.0
C      1  0.5782000000000  0.5340010000000  0.5433100000000 1.0
C      1  0.4281330000000  0.4782520000000  0.4622380000000 1.0
C      1  0.4628270000000  0.5872680000000  0.4860600000000 1.0
C      1  0.4843500000000  0.5038890000000  0.4215270000000 1.0
C      1  0.4502000000000  0.5302540000000  0.4372530000000 1.0
END
