TITL C-4164234-2335-611 -5.08111367055232 125000 -16863.0171892865 0 0 113 (C1) n - 1
REM
REM in /home/nfs/bkarasulu/CARBON/AIRSS/Generating-Clusters/ReaxFF-fromJPCA2015/Units_Real/with-SteepDescent/Only-C1/SD-CG/Try1-3A/FIRE-CG
REM
REM
REM
REM
REM
REM ./C.cell (11c1c37f851c82e70ff6c80c92926a4b)
REM
REM compiler GCC version 9.2.1 20190827 (Red Hat 9.2.1-1)
REM options -cpp -mtune=generic -march=x86-64 -g -O0 -fpre-include=/usr/include/finclude/math-vector-fortran.h
REM seed -230224435 162069789 148402788 1006260471 -1844715119 -1911423085 1377587555 255641720 -198455249 -2144855722 -1416951040 626182729 1683288543 490582176 401684359 -860313519 -1826207177 -1085907709 -1015386602 -1667987785 1140577485 -1031166553 -1585348755 -1845902770 -963782592 -1227314758 848056348 1441219364 -748182801 -931161426 -638198499 483798623 -1056020541
REM
CELL 1.54180   50.00000   50.00000   50.00000   90.00000   90.00000   90.00000
LATT -1
SFAC C  
C      1  0.4269770000000  0.5083700000000  0.4584320000000 1.0
C      1  0.4363720000000  0.4653780000000  0.4358270000000 1.0
C      1  0.4427730000000  0.5004310000000  0.5780850000000 1.0
C      1  0.5766440000000  0.5476670000000  0.4787920000000 1.0
C      1  0.4931080000000  0.5605280000000  0.5123380000000 1.0
C      1  0.5767990000000  0.5277540000000  0.4589470000000 1.0
C      1  0.5253360000000  0.5454740000000  0.5742250000000 1.0
C      1  0.5499500000000  0.5608570000000  0.5203110000000 1.0
C      1  0.4643580000000  0.4600980000000  0.4721850000000 1.0
C      1  0.4170920000000  0.5380310000000  0.5043030000000 1.0
C      1  0.5520180000000  0.4190540000000  0.4872330000000 1.0
C      1  0.5698040000000  0.4378860000000  0.4743380000000 1.0
C      1  0.4807060000000  0.5675560000000  0.5633730000000 1.0
C      1  0.5131270000000  0.4706500000000  0.5792300000000 1.0
C      1  0.4440220000000  0.4984540000000  0.4990400000000 1.0
C      1  0.5086380000000  0.5773320000000  0.4613410000000 1.0
C      1  0.4831220000000  0.4088140000000  0.5217580000000 1.0
C      1  0.5769270000000  0.4592870000000  0.4926240000000 1.0
C      1  0.5157220000000  0.4993420000000  0.5197450000000 1.0
C      1  0.4545040000000  0.5202510000000  0.5136020000000 1.0
C      1  0.5570620000000  0.4567640000000  0.5175730000000 1.0
C      1  0.5157510000000  0.5334570000000  0.5489020000000 1.0
C      1  0.5336610000000  0.4745300000000  0.5129710000000 1.0
C      1  0.4939740000000  0.4908320000000  0.5021570000000 1.0
C      1  0.4830340000000  0.5052130000000  0.4809780000000 1.0
C      1  0.4842200000000  0.4662440000000  0.4080180000000 1.0
C      1  0.5535800000000  0.5475090000000  0.5605580000000 1.0
C      1  0.4863040000000  0.4420840000000  0.5632070000000 1.0
C      1  0.5569180000000  0.4665800000000  0.4356310000000 1.0
C      1  0.5359690000000  0.4348430000000  0.5636220000000 1.0
C      1  0.4846060000000  0.4506480000000  0.4532140000000 1.0
C      1  0.5219830000000  0.5873150000000  0.5518390000000 1.0
C      1  0.4620850000000  0.5487000000000  0.5072380000000 1.0
C      1  0.5715290000000  0.4871430000000  0.4489140000000 1.0
C      1  0.5328520000000  0.5643160000000  0.4520420000000 1.0
C      1  0.4381840000000  0.4738520000000  0.5675160000000 1.0
C      1  0.5347630000000  0.5181480000000  0.4299800000000 1.0
C      1  0.4242220000000  0.4765700000000  0.4586990000000 1.0
C      1  0.5370400000000  0.4210830000000  0.4419590000000 1.0
C      1  0.5473990000000  0.5528730000000  0.4752250000000 1.0
C      1  0.4303310000000  0.5603920000000  0.4688430000000 1.0
C      1  0.5782920000000  0.4996570000000  0.5032290000000 1.0
C      1  0.4541990000000  0.4918640000000  0.5518880000000 1.0
C      1  0.4379870000000  0.5462540000000  0.5487610000000 1.0
C      1  0.4166840000000  0.4902940000000  0.5071770000000 1.0
C      1  0.4460610000000  0.4397620000000  0.5312090000000 1.0
C      1  0.4459840000000  0.5059500000000  0.4391890000000 1.0
C      1  0.4593660000000  0.5478030000000  0.5686590000000 1.0
C      1  0.4359990000000  0.4547560000000  0.4768690000000 1.0
C      1  0.5312100000000  0.4100430000000  0.4680150000000 1.0
C      1  0.5328590000000  0.4922360000000  0.5856940000000 1.0
C      1  0.5480660000000  0.5728150000000  0.5462380000000 1.0
C      1  0.4898630000000  0.4944520000000  0.4125920000000 1.0
C      1  0.4134370000000  0.4640810000000  0.5205100000000 1.0
C      1  0.5031420000000  0.5790690000000  0.4906540000000 1.0
C      1  0.5806400000000  0.4845500000000  0.4802760000000 1.0
C      1  0.4112010000000  0.5149700000000  0.5206230000000 1.0
C      1  0.4641020000000  0.5204270000000  0.5785520000000 1.0
C      1  0.4417480000000  0.5661300000000  0.4446390000000 1.0
C      1  0.5086020000000  0.4498850000000  0.4099480000000 1.0
C      1  0.4821590000000  0.5335800000000  0.4384310000000 1.0
C      1  0.5054150000000  0.4416380000000  0.5013460000000 1.0
C      1  0.5090120000000  0.4662490000000  0.4486900000000 1.0
C      1  0.5656170000000  0.5131780000000  0.4383460000000 1.0
C      1  0.5084460000000  0.5709220000000  0.5713360000000 1.0
C      1  0.5640290000000  0.5223290000000  0.5509680000000 1.0
C      1  0.4881620000000  0.4206010000000  0.4937430000000 1.0
C      1  0.4309780000000  0.4467490000000  0.5052060000000 1.0
C      1  0.4917410000000  0.5759160000000  0.4372330000000 1.0
C      1  0.4916770000000  0.4225350000000  0.4465950000000 1.0
C      1  0.4276590000000  0.4569370000000  0.5460780000000 1.0
C      1  0.4690410000000  0.5124540000000  0.4243090000000 1.0
C      1  0.4617650000000  0.4891190000000  0.4781640000000 1.0
C      1  0.4798260000000  0.5040150000000  0.5604970000000 1.0
C      1  0.4997120000000  0.5508150000000  0.4233980000000 1.0
C      1  0.5573550000000  0.4981000000000  0.5678560000000 1.0
C      1  0.4937350000000  0.6033720000000  0.5043810000000 1.0
C      1  0.4994590000000  0.4661030000000  0.5525300000000 1.0
C      1  0.5348230000000  0.5267660000000  0.4822370000000 1.0
C      1  0.5016980000000  0.4089910000000  0.4705860000000 1.0
C      1  0.5593940000000  0.4730710000000  0.5585180000000 1.0
C      1  0.5076630000000  0.3977500000000  0.5296800000000 1.0
C      1  0.5131750000000  0.4409360000000  0.5813720000000 1.0
C      1  0.5204920000000  0.4815350000000  0.4685880000000 1.0
C      1  0.5277900000000  0.4706180000000  0.4216980000000 1.0
C      1  0.5183580000000  0.4981030000000  0.4150400000000 1.0
C      1  0.4365960000000  0.5179490000000  0.5374630000000 1.0
C      1  0.5107310000000  0.5115390000000  0.6160880000000 1.0
C      1  0.5279020000000  0.5471010000000  0.4291450000000 1.0
C      1  0.4833110000000  0.5774420000000  0.5355420000000 1.0
C      1  0.4346090000000  0.5559220000000  0.5216940000000 1.0
C      1  0.5216860000000  0.5453330000000  0.5226230000000 1.0
C      1  0.5228020000000  0.5187210000000  0.5954790000000 1.0
C      1  0.5210300000000  0.4284900000000  0.5215810000000 1.0
C      1  0.4644180000000  0.5695580000000  0.4320520000000 1.0
C      1  0.5724640000000  0.5462460000000  0.5088290000000 1.0
C      1  0.5224400000000  0.5101610000000  0.4617590000000 1.0
C      1  0.4653810000000  0.5978130000000  0.4938710000000 1.0
C      1  0.4706850000000  0.4283860000000  0.5425110000000 1.0
C      1  0.5202140000000  0.4470940000000  0.5429650000000 1.0
C      1  0.5124070000000  0.4257970000000  0.4262610000000 1.0
C      1  0.4523700000000  0.5718950000000  0.4884010000000 1.0
C      1  0.5594630000000  0.4474690000000  0.5495230000000 1.0
C      1  0.5032470000000  0.5090300000000  0.5462560000000 1.0
C      1  0.4211260000000  0.5337550000000  0.4755200000000 1.0
C      1  0.4556780000000  0.4586190000000  0.4158760000000 1.0
C      1  0.5020480000000  0.5992700000000  0.5332610000000 1.0
C      1  0.5131730000000  0.4693440000000  0.4944200000000 1.0
C      1  0.4940060000000  0.5209630000000  0.4613670000000 1.0
C      1  0.5261540000000  0.5231350000000  0.5074940000000 1.0
C      1  0.5592360000000  0.4404610000000  0.4464970000000 1.0
C      1  0.5492320000000  0.4288030000000  0.5142930000000 1.0
C      1  0.5755040000000  0.5200110000000  0.5228700000000 1.0
END
