TITL C-4164245-3996-133 -40.5832156783881 125000 -14575.4989572447 0 0 99 (C1) n - 1
REM
REM in /home/nfs/bkarasulu/CARBON/AIRSS/Generating-Clusters/ReaxFF-fromJPCA2015/Units_Real/with-SteepDescent/Only-C1/SD-CG/Try1-3A/FIRE-CG
REM
REM
REM
REM
REM
REM ./C.cell (11c1c37f851c82e70ff6c80c92926a4b)
REM
REM compiler GCC version 9.2.1 20190827 (Red Hat 9.2.1-1)
REM options -cpp -mtune=generic -march=x86-64 -g -O0 -fpre-include=/usr/include/finclude/math-vector-fortran.h
REM seed -2096394501 797722621 -126937600 2054068281 -1019825737 -1743318270 991602930 -1359035000 -1353650169 -101270352 -2067474518 -1748406551 -385424081 -541495436 -763042241 -446422694 -696588930 -1578016150 1453205785 -1484799075 217673891 -1506702436 -249050730 -739767929 -1129759336 1903496728 -1597014865 1659828641 -505548197 880523252 121771047 -575772215 -1556961885
REM
CELL 1.54180   50.00000   50.00000   50.00000   90.00000   90.00000   90.00000
LATT -1
SFAC C  
C      1  0.5099080000000  0.4928080000000  0.5131210000000 1.0
C      1  0.4037450000000  0.4839780000000  0.5069820000000 1.0
C      1  0.4471340000000  0.5360170000000  0.4559530000000 1.0
C      1  0.4587510000000  0.5026750000000  0.5781540000000 1.0
C      1  0.5609100000000  0.5678850000000  0.4901140000000 1.0
C      1  0.4209900000000  0.5063390000000  0.5428500000000 1.0
C      1  0.5182260000000  0.5061520000000  0.5846210000000 1.0
C      1  0.5314900000000  0.5157000000000  0.4799940000000 1.0
C      1  0.5153610000000  0.5867730000000  0.4727870000000 1.0
C      1  0.4444720000000  0.4390060000000  0.4832980000000 1.0
C      1  0.5577360000000  0.5464730000000  0.5416610000000 1.0
C      1  0.5020840000000  0.4698450000000  0.5614350000000 1.0
C      1  0.5326700000000  0.4294680000000  0.5233170000000 1.0
C      1  0.4478370000000  0.5476520000000  0.5242570000000 1.0
C      1  0.4869800000000  0.5472620000000  0.4708180000000 1.0
C      1  0.4290100000000  0.4652020000000  0.5455380000000 1.0
C      1  0.4901280000000  0.4989420000000  0.5732130000000 1.0
C      1  0.5222240000000  0.5480120000000  0.4332130000000 1.0
C      1  0.5388660000000  0.4878200000000  0.5735900000000 1.0
C      1  0.4541270000000  0.5212930000000  0.5130630000000 1.0
C      1  0.4726610000000  0.4655050000000  0.5203040000000 1.0
C      1  0.5145430000000  0.5465780000000  0.5007120000000 1.0
C      1  0.5182010000000  0.4545080000000  0.4452080000000 1.0
C      1  0.5389460000000  0.4423570000000  0.5486440000000 1.0
C      1  0.4924190000000  0.4507960000000  0.4279750000000 1.0
C      1  0.4645970000000  0.5635220000000  0.5086900000000 1.0
C      1  0.4195540000000  0.5166060000000  0.4903010000000 1.0
C      1  0.4181050000000  0.4877230000000  0.4831100000000 1.0
C      1  0.4129110000000  0.4699780000000  0.5234610000000 1.0
C      1  0.5803690000000  0.5422520000000  0.5267840000000 1.0
C      1  0.5475400000000  0.4302300000000  0.4718750000000 1.0
C      1  0.4840970000000  0.4434260000000  0.5670480000000 1.0
C      1  0.5872880000000  0.5146240000000  0.5171440000000 1.0
C      1  0.4895220000000  0.4203960000000  0.5525000000000 1.0
C      1  0.5598250000000  0.4763080000000  0.4537200000000 1.0
C      1  0.5022080000000  0.4107160000000  0.4715020000000 1.0
C      1  0.4681390000000  0.4448660000000  0.4422900000000 1.0
C      1  0.5444450000000  0.5233220000000  0.5358560000000 1.0
C      1  0.5094190000000  0.4744170000000  0.4681710000000 1.0
C      1  0.4508370000000  0.4291100000000  0.5099190000000 1.0
C      1  0.4882270000000  0.5006240000000  0.4146870000000 1.0
C      1  0.4825040000000  0.5475370000000  0.5533670000000 1.0
C      1  0.5414460000000  0.4656390000000  0.5343650000000 1.0
C      1  0.4781660000000  0.4905850000000  0.5067870000000 1.0
C      1  0.4314330000000  0.5413380000000  0.4785810000000 1.0
C      1  0.4632540000000  0.4904320000000  0.4152070000000 1.0
C      1  0.4942740000000  0.4507710000000  0.5106270000000 1.0
C      1  0.4938160000000  0.5424390000000  0.4317290000000 1.0
C      1  0.5614390000000  0.5362670000000  0.4480780000000 1.0
C      1  0.5200870000000  0.5684740000000  0.4520470000000 1.0
C      1  0.4866280000000  0.5498840000000  0.4958330000000 1.0
C      1  0.4874500000000  0.5903210000000  0.4711860000000 1.0
C      1  0.5445960000000  0.5236240000000  0.4314560000000 1.0
C      1  0.5732100000000  0.5480760000000  0.4703970000000 1.0
C      1  0.4868640000000  0.5180110000000  0.5500660000000 1.0
C      1  0.4694620000000  0.5049850000000  0.5302720000000 1.0
C      1  0.5664720000000  0.4721070000000  0.5263510000000 1.0
C      1  0.5482450000000  0.4380590000000  0.4995410000000 1.0
C      1  0.5291320000000  0.4601240000000  0.5710200000000 1.0
C      1  0.5278430000000  0.4736740000000  0.4225590000000 1.0
C      1  0.4530730000000  0.5500860000000  0.5537660000000 1.0
C      1  0.4452840000000  0.5668830000000  0.4880640000000 1.0
C      1  0.5174340000000  0.4790720000000  0.5371340000000 1.0
C      1  0.5410910000000  0.5687360000000  0.5494940000000 1.0
C      1  0.5261520000000  0.5212000000000  0.5112890000000 1.0
C      1  0.5552030000000  0.5008550000000  0.5521370000000 1.0
C      1  0.4470760000000  0.4913810000000  0.4376460000000 1.0
C      1  0.5306980000000  0.5550510000000  0.5717760000000 1.0
C      1  0.5843740000000  0.5056570000000  0.4899230000000 1.0
C      1  0.4683140000000  0.5551000000000  0.4504280000000 1.0
C      1  0.5303590000000  0.5725430000000  0.4980390000000 1.0
C      1  0.4644370000000  0.4266980000000  0.4652640000000 1.0
C      1  0.4947380000000  0.5691850000000  0.5347670000000 1.0
C      1  0.5854720000000  0.5272920000000  0.4785880000000 1.0
C      1  0.4349420000000  0.4912610000000  0.5615480000000 1.0
C      1  0.5786630000000  0.4947160000000  0.5365750000000 1.0
C      1  0.4497230000000  0.4503950000000  0.5305820000000 1.0
C      1  0.4611700000000  0.5078240000000  0.4889270000000 1.0
C      1  0.4747860000000  0.4132320000000  0.5078030000000 1.0
C      1  0.5114230000000  0.4684990000000  0.4955230000000 1.0
C      1  0.4998010000000  0.4233950000000  0.5219260000000 1.0
C      1  0.5120630000000  0.5030060000000  0.4626940000000 1.0
C      1  0.4776550000000  0.4065420000000  0.4804650000000 1.0
C      1  0.4599280000000  0.5112420000000  0.4590870000000 1.0
C      1  0.5476540000000  0.4502620000000  0.4512380000000 1.0
C      1  0.5242160000000  0.4174020000000  0.4723590000000 1.0
C      1  0.4613210000000  0.5813280000000  0.4680110000000 1.0
C      1  0.4334020000000  0.4638940000000  0.4731180000000 1.0
C      1  0.5659650000000  0.4616560000000  0.4999910000000 1.0
C      1  0.4897120000000  0.5153590000000  0.4424890000000 1.0
C      1  0.5823020000000  0.5679300000000  0.5098210000000 1.0
C      1  0.4459690000000  0.4639730000000  0.4472300000000 1.0
C      1  0.4502200000000  0.5286230000000  0.5720660000000 1.0
C      1  0.4078640000000  0.5116800000000  0.5179810000000 1.0
C      1  0.5002380000000  0.4737080000000  0.4111440000000 1.0
C      1  0.5465360000000  0.4930810000000  0.4332790000000 1.0
C      1  0.5223300000000  0.5773290000000  0.5280340000000 1.0
C      1  0.5238320000000  0.5332500000000  0.5824370000000 1.0
C      1  0.5717540000000  0.4811580000000  0.4800110000000 1.0
END
