TITL C-4164245-3996-128 -3.92484735394227 125000 -13526.2106818424 0 0 91 (C1) n - 1
REM
REM in /home/nfs/bkarasulu/CARBON/AIRSS/Generating-Clusters/ReaxFF-fromJPCA2015/Units_Real/with-SteepDescent/Only-C1/SD-CG/Try1-3A/FIRE-CG
REM
REM
REM
REM
REM
REM ./C.cell (11c1c37f851c82e70ff6c80c92926a4b)
REM
REM compiler GCC version 9.2.1 20190827 (Red Hat 9.2.1-1)
REM options -cpp -mtune=generic -march=x86-64 -g -O0 -fpre-include=/usr/include/finclude/math-vector-fortran.h
REM seed 2120882757 108669894 -479818888 -908654488 395866359 558527185 1375352864 -1292137787 409956084 -230915566 1892412619 660680973 1908605084 -630532935 -2097672905 -353761602 -2048352756 1821218141 254405340 1357836646 723628273 -1237746697 -1943859068 -1759573605 -142083281 -795779234 839288611 -536029048 -713571734 1167018014 -947595601 474568281 2146976344
REM
CELL 1.54180   50.00000   50.00000   50.00000   90.00000   90.00000   90.00000
LATT -1
SFAC C  
C      1  0.5901790000000  0.4762670000000  0.4902730000000 1.0
C      1  0.5529720000000  0.4809730000000  0.4653210000000 1.0
C      1  0.4410530000000  0.4489200000000  0.4541880000000 1.0
C      1  0.4468540000000  0.5263020000000  0.5262420000000 1.0
C      1  0.4944010000000  0.4701380000000  0.4402210000000 1.0
C      1  0.5715820000000  0.4976110000000  0.5525090000000 1.0
C      1  0.4535080000000  0.4236230000000  0.4614090000000 1.0
C      1  0.5568650000000  0.4519970000000  0.5209750000000 1.0
C      1  0.5754560000000  0.5044180000000  0.4979020000000 1.0
C      1  0.5215850000000  0.4243310000000  0.5436050000000 1.0
C      1  0.5150650000000  0.5819170000000  0.4942360000000 1.0
C      1  0.5421300000000  0.5435530000000  0.4449140000000 1.0
C      1  0.4705830000000  0.5854810000000  0.5173500000000 1.0
C      1  0.4829000000000  0.5232660000000  0.4876130000000 1.0
C      1  0.5722010000000  0.5277820000000  0.4792410000000 1.0
C      1  0.4689190000000  0.4981190000000  0.4819150000000 1.0
C      1  0.5061550000000  0.5036040000000  0.4210270000000 1.0
C      1  0.4883890000000  0.4574890000000  0.5770330000000 1.0
C      1  0.4731960000000  0.4410650000000  0.5701330000000 1.0
C      1  0.4785600000000  0.5591350000000  0.5547530000000 1.0
C      1  0.4504840000000  0.5382330000000  0.4592350000000 1.0
C      1  0.4570220000000  0.5713950000000  0.5391100000000 1.0
C      1  0.4945830000000  0.4102170000000  0.4846620000000 1.0
C      1  0.5151570000000  0.4206600000000  0.5031240000000 1.0
C      1  0.5041400000000  0.4350080000000  0.5246150000000 1.0
C      1  0.5044050000000  0.4207710000000  0.4592340000000 1.0
C      1  0.5295730000000  0.4879700000000  0.4309000000000 1.0
C      1  0.4220330000000  0.4849540000000  0.5334190000000 1.0
C      1  0.5380980000000  0.4321520000000  0.5617560000000 1.0
C      1  0.5607920000000  0.5539710000000  0.5212310000000 1.0
C      1  0.4888290000000  0.5294110000000  0.5605620000000 1.0
C      1  0.4495480000000  0.5762200000000  0.4974700000000 1.0
C      1  0.5181880000000  0.5486090000000  0.4279270000000 1.0
C      1  0.4664510000000  0.5239430000000  0.4384110000000 1.0
C      1  0.4806690000000  0.4880370000000  0.4222370000000 1.0
C      1  0.4390960000000  0.4773790000000  0.4562320000000 1.0
C      1  0.5249100000000  0.4983330000000  0.5730560000000 1.0
C      1  0.4382120000000  0.5068470000000  0.5426910000000 1.0
C      1  0.4996250000000  0.4830790000000  0.5785420000000 1.0
C      1  0.4219170000000  0.5162310000000  0.4951520000000 1.0
C      1  0.5337250000000  0.4384810000000  0.4882170000000 1.0
C      1  0.4790650000000  0.4582380000000  0.4778740000000 1.0
C      1  0.5262440000000  0.5478920000000  0.4691600000000 1.0
C      1  0.4731560000000  0.5318830000000  0.5138970000000 1.0
C      1  0.5552330000000  0.4963840000000  0.4416550000000 1.0
C      1  0.5476890000000  0.5528660000000  0.5404650000000 1.0
C      1  0.5024220000000  0.5855980000000  0.4681180000000 1.0
C      1  0.5110800000000  0.5252990000000  0.4800030000000 1.0
C      1  0.4985040000000  0.4853890000000  0.5325110000000 1.0
C      1  0.4819700000000  0.4946050000000  0.5571250000000 1.0
C      1  0.4530670000000  0.5654160000000  0.4704380000000 1.0
C      1  0.4575930000000  0.4611670000000  0.4970630000000 1.0
C      1  0.5617320000000  0.5234570000000  0.4523920000000 1.0
C      1  0.4576960000000  0.4968360000000  0.4376150000000 1.0
C      1  0.5440980000000  0.4900360000000  0.4916440000000 1.0
C      1  0.5824380000000  0.5077190000000  0.5268530000000 1.0
C      1  0.4563640000000  0.4328730000000  0.5084880000000 1.0
C      1  0.4533580000000  0.4908140000000  0.5591210000000 1.0
C      1  0.5170780000000  0.5266180000000  0.5699840000000 1.0
C      1  0.5344190000000  0.4635230000000  0.5048590000000 1.0
C      1  0.5038140000000  0.5691270000000  0.5461900000000 1.0
C      1  0.5908150000000  0.4818340000000  0.5361760000000 1.0
C      1  0.4795200000000  0.4359870000000  0.4561260000000 1.0
C      1  0.4460780000000  0.4407290000000  0.5594150000000 1.0
C      1  0.5081740000000  0.4625730000000  0.5208770000000 1.0
C      1  0.5397250000000  0.5663290000000  0.4876820000000 1.0
C      1  0.5490780000000  0.4555700000000  0.5497770000000 1.0
C      1  0.4953970000000  0.5288890000000  0.5313360000000 1.0
C      1  0.4348970000000  0.4735520000000  0.4857020000000 1.0
C      1  0.5220690000000  0.4611560000000  0.4396420000000 1.0
C      1  0.5791060000000  0.4749150000000  0.4652210000000 1.0
C      1  0.4996260000000  0.5813490000000  0.5193790000000 1.0
C      1  0.5832940000000  0.4620250000000  0.5155250000000 1.0
C      1  0.4202680000000  0.4886400000000  0.5042440000000 1.0
C      1  0.5270670000000  0.4393650000000  0.4599390000000 1.0
C      1  0.4955020000000  0.5295770000000  0.4273020000000 1.0
C      1  0.5263460000000  0.5519190000000  0.5581160000000 1.0
C      1  0.4428390000000  0.5146640000000  0.4747490000000 1.0
C      1  0.5245610000000  0.5083580000000  0.4972070000000 1.0
C      1  0.4848170000000  0.5698880000000  0.4343890000000 1.0
C      1  0.4356240000000  0.4683700000000  0.5538480000000 1.0
C      1  0.4343820000000  0.5646380000000  0.5193050000000 1.0
C      1  0.4656400000000  0.4135340000000  0.4870880000000 1.0
C      1  0.4875650000000  0.4819690000000  0.4661160000000 1.0
C      1  0.5127130000000  0.5078690000000  0.5222450000000 1.0
C      1  0.4228230000000  0.5380540000000  0.5151800000000 1.0
C      1  0.5115440000000  0.5753160000000  0.4406890000000 1.0
C      1  0.4736660000000  0.5822280000000  0.4578020000000 1.0
C      1  0.5474240000000  0.4842230000000  0.5610500000000 1.0
C      1  0.4566680000000  0.4300420000000  0.5361900000000 1.0
C      1  0.5657430000000  0.5528100000000  0.4935870000000 1.0
END
