TITL C-4164238-4211-612 -15.4750680443532 125000 -9642.1805079243 0 0 65 (C1) n - 1
REM
REM in /home/nfs/bkarasulu/CARBON/AIRSS/Generating-Clusters/ReaxFF-fromJPCA2015/Units_Real/with-SteepDescent/Only-C1/SD-CG/Try1-3A/FIRE-CG
REM
REM
REM
REM
REM
REM ./C.cell (11c1c37f851c82e70ff6c80c92926a4b)
REM
REM compiler GCC version 9.2.1 20190827 (Red Hat 9.2.1-1)
REM options -cpp -mtune=generic -march=x86-64 -g -O0 -fpre-include=/usr/include/finclude/math-vector-fortran.h
REM seed -1685355682 1517553995 -1784221040 -1857694230 555542405 -1291776770 -2057795836 1837950075 66278627 873112436 972353548 1173762799 -1589994614 716816753 -1933751174 -1333532283 639877253 -866420197 1514910998 66427615 -226553634 -338808056 264704654 461936406 1152917704 1428966640 2077294156 1953497739 1280836556 2009140390 1987100914 -1180549787 -1243227926
REM
CELL 1.54180   50.00000   50.00000   50.00000   90.00000   90.00000   90.00000
LATT -1
SFAC C  
C      1  0.4773000000000  0.4566840000000  0.4332250000000 1.0
C      1  0.5421620000000  0.4424570000000  0.5055570000000 1.0
C      1  0.4341080000000  0.4922700000000  0.4615330000000 1.0
C      1  0.5416710000000  0.5493060000000  0.5169560000000 1.0
C      1  0.4479040000000  0.4698570000000  0.4742500000000 1.0
C      1  0.5193840000000  0.5656900000000  0.4748890000000 1.0
C      1  0.4505180000000  0.5539920000000  0.4954250000000 1.0
C      1  0.5097680000000  0.4362830000000  0.4613630000000 1.0
C      1  0.4425060000000  0.4661660000000  0.5029860000000 1.0
C      1  0.4796170000000  0.4762070000000  0.5447110000000 1.0
C      1  0.5054550000000  0.4470490000000  0.4347520000000 1.0
C      1  0.5170120000000  0.4608280000000  0.5785260000000 1.0
C      1  0.4867330000000  0.4822910000000  0.4216750000000 1.0
C      1  0.5056230000000  0.4879660000000  0.5826610000000 1.0
C      1  0.4397860000000  0.5162200000000  0.4479390000000 1.0
C      1  0.4831480000000  0.4321590000000  0.4722660000000 1.0
C      1  0.4805170000000  0.5507480000000  0.5084030000000 1.0
C      1  0.4263500000000  0.5173550000000  0.4727610000000 1.0
C      1  0.5473850000000  0.4992320000000  0.5106830000000 1.0
C      1  0.5249890000000  0.5110260000000  0.5778890000000 1.0
C      1  0.4619190000000  0.5549190000000  0.4720040000000 1.0
C      1  0.4956840000000  0.5704490000000  0.5234250000000 1.0
C      1  0.5012140000000  0.5037600000000  0.4816580000000 1.0
C      1  0.5443410000000  0.5069120000000  0.5573850000000 1.0
C      1  0.4325470000000  0.4852840000000  0.5224310000000 1.0
C      1  0.5220150000000  0.5399250000000  0.4440720000000 1.0
C      1  0.5056230000000  0.5175150000000  0.5290310000000 1.0
C      1  0.5442730000000  0.5347320000000  0.4618410000000 1.0
C      1  0.4838140000000  0.5091550000000  0.4320720000000 1.0
C      1  0.4901230000000  0.4593790000000  0.5054700000000 1.0
C      1  0.4673440000000  0.5165910000000  0.5656790000000 1.0
C      1  0.5670800000000  0.4872730000000  0.4684240000000 1.0
C      1  0.5065610000000  0.5127420000000  0.4494800000000 1.0
C      1  0.5318270000000  0.4799520000000  0.5264870000000 1.0
C      1  0.5399280000000  0.5516500000000  0.4874920000000 1.0
C      1  0.4546930000000  0.4685300000000  0.5303940000000 1.0
C      1  0.4734170000000  0.5536160000000  0.4483240000000 1.0
C      1  0.5149170000000  0.4738080000000  0.4253660000000 1.0
C      1  0.5360710000000  0.4529180000000  0.5569840000000 1.0
C      1  0.5243860000000  0.5689930000000  0.5308030000000 1.0
C      1  0.5703830000000  0.4868140000000  0.4980140000000 1.0
C      1  0.5405730000000  0.5217750000000  0.5292380000000 1.0
C      1  0.4635520000000  0.5275050000000  0.4381580000000 1.0
C      1  0.5280150000000  0.4954260000000  0.4395260000000 1.0
C      1  0.5039730000000  0.5613180000000  0.4517340000000 1.0
C      1  0.4775990000000  0.5544480000000  0.5371300000000 1.0
C      1  0.4342990000000  0.5157190000000  0.5230550000000 1.0
C      1  0.4516440000000  0.5241060000000  0.5437150000000 1.0
C      1  0.5144670000000  0.5384190000000  0.5742120000000 1.0
C      1  0.5283590000000  0.4384780000000  0.5304070000000 1.0
C      1  0.4949340000000  0.5220680000000  0.5022330000000 1.0
C      1  0.5039970000000  0.4883730000000  0.5329540000000 1.0
C      1  0.4787400000000  0.4896990000000  0.5706750000000 1.0
C      1  0.5501150000000  0.5066870000000  0.4544340000000 1.0
C      1  0.5569990000000  0.4595030000000  0.4697000000000 1.0
C      1  0.5059960000000  0.4761060000000  0.4880330000000 1.0
C      1  0.4822640000000  0.4314670000000  0.5015050000000 1.0
C      1  0.4328840000000  0.5307600000000  0.4976760000000 1.0
C      1  0.5247440000000  0.5558630000000  0.5557750000000 1.0
C      1  0.5000120000000  0.4380050000000  0.5238450000000 1.0
C      1  0.4645780000000  0.4512330000000  0.4591690000000 1.0
C      1  0.5663380000000  0.4566900000000  0.4974810000000 1.0
C      1  0.5488110000000  0.4790630000000  0.5510200000000 1.0
C      1  0.5277170000000  0.4536960000000  0.4786420000000 1.0
C      1  0.4892910000000  0.5348900000000  0.5544010000000 1.0
END
