TITL C-4164246-3563-163 -4.34033341027345 125000 -25553.1183912664 0 0 168 (C1) n - 1
REM
REM in /home/nfs/bkarasulu/CARBON/AIRSS/Generating-Clusters/ReaxFF-fromJPCA2015/Units_Real/with-SteepDescent/Only-C1/SD-CG/Try1-3A/FIRE-CG
REM
REM
REM
REM
REM
REM ./C.cell (11c1c37f851c82e70ff6c80c92926a4b)
REM
REM compiler GCC version 9.2.1 20190827 (Red Hat 9.2.1-1)
REM options -cpp -mtune=generic -march=x86-64 -g -O0 -fpre-include=/usr/include/finclude/math-vector-fortran.h
REM seed 1996642623 -1415870095 -243962142 -758853635 1389144407 -1379476187 612783431 -1461046431 -1870910489 1974277412 -1398843667 -451494880 -396683705 -863797532 -1678839000 146085662 -275522200 -1604461340 -487583067 -1502020980 -82808538 2046265583 -1075288084 -1714249650 570312125 -891844781 1831625435 1553207720 -1707801279 -1817291325 1903954739 -1360068676 -628005749
REM
CELL 1.54180   50.00000   50.00000   50.00000   90.00000   90.00000   90.00000
LATT -1
SFAC C  
C      1  0.6237720000000  0.4987540000000  0.4762410000000 1.0
C      1  0.5483280000000  0.5246760000000  0.5540490000000 1.0
C      1  0.4527980000000  0.4163840000000  0.5507630000000 1.0
C      1  0.5942730000000  0.4759390000000  0.5307870000000 1.0
C      1  0.4790060000000  0.5970160000000  0.4616820000000 1.0
C      1  0.4731830000000  0.5630730000000  0.5916680000000 1.0
C      1  0.5212530000000  0.4107210000000  0.5261490000000 1.0
C      1  0.5415190000000  0.4064950000000  0.4772290000000 1.0
C      1  0.4737160000000  0.5254910000000  0.4595700000000 1.0
C      1  0.4252600000000  0.4908310000000  0.4915340000000 1.0
C      1  0.4955050000000  0.4704770000000  0.4906510000000 1.0
C      1  0.5033170000000  0.6121460000000  0.4995580000000 1.0
C      1  0.5255250000000  0.5344510000000  0.4545590000000 1.0
C      1  0.5449700000000  0.5395730000000  0.4751580000000 1.0
C      1  0.4184150000000  0.5497060000000  0.5543760000000 1.0
C      1  0.5726900000000  0.4505890000000  0.5862390000000 1.0
C      1  0.4023660000000  0.4856730000000  0.5083990000000 1.0
C      1  0.4723440000000  0.4400590000000  0.5799900000000 1.0
C      1  0.5493660000000  0.4957220000000  0.5920590000000 1.0
C      1  0.4137990000000  0.4980840000000  0.5584720000000 1.0
C      1  0.4961820000000  0.5741660000000  0.5737420000000 1.0
C      1  0.5998740000000  0.5007980000000  0.5155390000000 1.0
C      1  0.5871890000000  0.4486450000000  0.5199630000000 1.0
C      1  0.4016360000000  0.4844510000000  0.4543700000000 1.0
C      1  0.4457030000000  0.5039290000000  0.4220840000000 1.0
C      1  0.3944930000000  0.5356960000000  0.5048570000000 1.0
C      1  0.5275290000000  0.5862610000000  0.5681720000000 1.0
C      1  0.4906920000000  0.4024830000000  0.5414970000000 1.0
C      1  0.4651190000000  0.3993660000000  0.4524180000000 1.0
C      1  0.4925160000000  0.4018970000000  0.4361850000000 1.0
C      1  0.4594000000000  0.4965530000000  0.3959960000000 1.0
C      1  0.5511990000000  0.5869960000000  0.4517370000000 1.0
C      1  0.4711890000000  0.5339430000000  0.5949870000000 1.0
C      1  0.4501880000000  0.4238220000000  0.4544090000000 1.0
C      1  0.4680990000000  0.3908460000000  0.4804350000000 1.0
C      1  0.4612520000000  0.5833120000000  0.4431470000000 1.0
C      1  0.4245510000000  0.4662610000000  0.4507310000000 1.0
C      1  0.5132340000000  0.5483200000000  0.5788760000000 1.0
C      1  0.5475890000000  0.6010460000000  0.4774490000000 1.0
C      1  0.4954510000000  0.4029400000000  0.4823560000000 1.0
C      1  0.5479240000000  0.4797230000000  0.4910900000000 1.0
C      1  0.5711540000000  0.4845730000000  0.4252130000000 1.0
C      1  0.5686700000000  0.5717190000000  0.5159670000000 1.0
C      1  0.5150200000000  0.4401910000000  0.5303990000000 1.0
C      1  0.4062420000000  0.5050240000000  0.5308590000000 1.0
C      1  0.4726500000000  0.3946560000000  0.5216130000000 1.0
C      1  0.5525700000000  0.5704200000000  0.5685930000000 1.0
C      1  0.4495930000000  0.4704830000000  0.3992430000000 1.0
C      1  0.5267070000000  0.6041420000000  0.5175930000000 1.0
C      1  0.5561630000000  0.4437190000000  0.4442900000000 1.0
C      1  0.4636550000000  0.5223950000000  0.4881360000000 1.0
C      1  0.4244190000000  0.4104370000000  0.5090640000000 1.0
C      1  0.3857550000000  0.4669220000000  0.4744610000000 1.0
C      1  0.4832120000000  0.4788860000000  0.4458060000000 1.0
C      1  0.5513660000000  0.4120840000000  0.5247530000000 1.0
C      1  0.4983550000000  0.4498900000000  0.5932270000000 1.0
C      1  0.4778030000000  0.4144470000000  0.5651700000000 1.0
C      1  0.4118910000000  0.4379400000000  0.5159570000000 1.0
C      1  0.5252760000000  0.5424250000000  0.4965770000000 1.0
C      1  0.4966160000000  0.4576310000000  0.5169090000000 1.0
C      1  0.4335630000000  0.4488070000000  0.4981860000000 1.0
C      1  0.4807220000000  0.4815940000000  0.5612430000000 1.0
C      1  0.5039700000000  0.4620880000000  0.4086260000000 1.0
C      1  0.5824900000000  0.5512410000000  0.4996410000000 1.0
C      1  0.4314650000000  0.4400140000000  0.4386380000000 1.0
C      1  0.4008260000000  0.5479930000000  0.5303350000000 1.0
C      1  0.5456740000000  0.5256640000000  0.6012140000000 1.0
C      1  0.5838400000000  0.4402510000000  0.4919290000000 1.0
C      1  0.4242490000000  0.5237860000000  0.5688450000000 1.0
C      1  0.5762880000000  0.4963660000000  0.4509330000000 1.0
C      1  0.4372450000000  0.5670560000000  0.4484930000000 1.0
C      1  0.5206140000000  0.5176480000000  0.6136450000000 1.0
C      1  0.4794340000000  0.5375730000000  0.3988970000000 1.0
C      1  0.4566300000000  0.5082400000000  0.5302870000000 1.0
C      1  0.5667010000000  0.5519460000000  0.4218420000000 1.0
C      1  0.5282800000000  0.4719160000000  0.4039290000000 1.0
C      1  0.4738740000000  0.5060620000000  0.5087740000000 1.0
C      1  0.4336730000000  0.5170630000000  0.4927950000000 1.0
C      1  0.4933840000000  0.4293940000000  0.4701320000000 1.0
C      1  0.4973590000000  0.5423720000000  0.4613420000000 1.0
C      1  0.4920630000000  0.4309410000000  0.4417650000000 1.0
C      1  0.4065660000000  0.5137780000000  0.4539510000000 1.0
C      1  0.5404390000000  0.5467690000000  0.4098850000000 1.0
C      1  0.5514100000000  0.4629880000000  0.4228510000000 1.0
C      1  0.5748550000000  0.4523140000000  0.4659340000000 1.0
C      1  0.5698070000000  0.4294480000000  0.5664310000000 1.0
C      1  0.5212040000000  0.5677950000000  0.4157000000000 1.0
C      1  0.5132370000000  0.4876150000000  0.4510790000000 1.0
C      1  0.4572860000000  0.4359140000000  0.5044340000000 1.0
C      1  0.5709500000000  0.4801320000000  0.4722530000000 1.0
C      1  0.5221960000000  0.5160430000000  0.5101450000000 1.0
C      1  0.4234390000000  0.4702710000000  0.5624280000000 1.0
C      1  0.4302510000000  0.4289530000000  0.5666750000000 1.0
C      1  0.4685010000000  0.5052960000000  0.4397600000000 1.0
C      1  0.4717570000000  0.4700430000000  0.4730760000000 1.0
C      1  0.5431470000000  0.4161570000000  0.4497580000000 1.0
C      1  0.5714680000000  0.4289940000000  0.5370240000000 1.0
C      1  0.4356370000000  0.5743520000000  0.5558120000000 1.0
C      1  0.4491530000000  0.5652220000000  0.5780210000000 1.0
C      1  0.3912490000000  0.4593700000000  0.5019530000000 1.0
C      1  0.6146970000000  0.4902680000000  0.4981510000000 1.0
C      1  0.5018490000000  0.4960430000000  0.5733160000000 1.0
C      1  0.5290490000000  0.4895980000000  0.6152840000000 1.0
C      1  0.5374600000000  0.4807020000000  0.5386500000000 1.0
C      1  0.4101700000000  0.5347130000000  0.4776420000000 1.0
C      1  0.5426280000000  0.4970430000000  0.5161680000000 1.0
C      1  0.6224770000000  0.5147000000000  0.4540570000000 1.0
C      1  0.5258060000000  0.5876810000000  0.4368040000000 1.0
C      1  0.4725920000000  0.5522390000000  0.5013410000000 1.0
C      1  0.4463870000000  0.5682120000000  0.4954000000000 1.0
C      1  0.4275790000000  0.5601740000000  0.4747290000000 1.0
C      1  0.4310410000000  0.5174270000000  0.5212050000000 1.0
C      1  0.5278920000000  0.4828560000000  0.5683850000000 1.0
C      1  0.5746870000000  0.5451900000000  0.4699710000000 1.0
C      1  0.4984650000000  0.5204740000000  0.5919490000000 1.0
C      1  0.5801020000000  0.5051320000000  0.4045510000000 1.0
C      1  0.5848950000000  0.4874670000000  0.5566030000000 1.0
C      1  0.5921460000000  0.5316250000000  0.5174080000000 1.0
C      1  0.5204820000000  0.6132960000000  0.4763530000000 1.0
C      1  0.4689290000000  0.5751710000000  0.4157280000000 1.0
C      1  0.4398310000000  0.4530700000000  0.4147640000000 1.0
C      1  0.5071000000000  0.4689650000000  0.6142760000000 1.0
C      1  0.5577020000000  0.4243470000000  0.4975740000000 1.0
C      1  0.5370210000000  0.4555880000000  0.5282440000000 1.0
C      1  0.4550360000000  0.5927690000000  0.5084430000000 1.0
C      1  0.5860780000000  0.5404910000000  0.5444040000000 1.0
C      1  0.5743780000000  0.5159160000000  0.5585800000000 1.0
C      1  0.4385170000000  0.4702450000000  0.4778610000000 1.0
C      1  0.5309930000000  0.5183630000000  0.4109020000000 1.0
C      1  0.5233040000000  0.5369730000000  0.5519890000000 1.0
C      1  0.4534410000000  0.5521320000000  0.4061970000000 1.0
C      1  0.5201630000000  0.4012620000000  0.4418310000000 1.0
C      1  0.4325730000000  0.5480930000000  0.4263040000000 1.0
C      1  0.5695920000000  0.5646750000000  0.5446810000000 1.0
C      1  0.5265680000000  0.5954220000000  0.5435000000000 1.0
C      1  0.4162860000000  0.4470180000000  0.5484030000000 1.0
C      1  0.5852340000000  0.5288120000000  0.4217690000000 1.0
C      1  0.5146060000000  0.4990830000000  0.3961520000000 1.0
C      1  0.5233640000000  0.4533050000000  0.5780240000000 1.0
C      1  0.5414550000000  0.5521190000000  0.5890190000000 1.0
C      1  0.5697570000000  0.5654090000000  0.4474990000000 1.0
C      1  0.4996210000000  0.5536960000000  0.4874920000000 1.0
C      1  0.4564130000000  0.5880820000000  0.5378340000000 1.0
C      1  0.4504160000000  0.5188490000000  0.5808920000000 1.0
C      1  0.4844990000000  0.4546360000000  0.4260920000000 1.0
C      1  0.4451420000000  0.4504690000000  0.5790090000000 1.0
C      1  0.4961860000000  0.5091570000000  0.5220550000000 1.0
C      1  0.5280200000000  0.5095780000000  0.4385730000000 1.0
C      1  0.4221260000000  0.5211570000000  0.4309070000000 1.0
C      1  0.5183010000000  0.4793220000000  0.4768820000000 1.0
C      1  0.5739050000000  0.4795590000000  0.5816510000000 1.0
C      1  0.5464300000000  0.4530540000000  0.5026350000000 1.0
C      1  0.4940890000000  0.5625180000000  0.4060340000000 1.0
C      1  0.5466050000000  0.4369450000000  0.5834210000000 1.0
C      1  0.5517440000000  0.5927800000000  0.5045020000000 1.0
C      1  0.4864410000000  0.5096090000000  0.3944720000000 1.0
C      1  0.4819300000000  0.5771590000000  0.5469420000000 1.0
C      1  0.5211260000000  0.4002810000000  0.4967500000000 1.0
C      1  0.4684580000000  0.4401080000000  0.4763450000000 1.0
C      1  0.4772760000000  0.6024560000000  0.4910370000000 1.0
C      1  0.4632170000000  0.4380050000000  0.5321810000000 1.0
C      1  0.4586150000000  0.5006160000000  0.5591990000000 1.0
C      1  0.5063570000000  0.6026590000000  0.4526860000000 1.0
C      1  0.5898320000000  0.5212140000000  0.4506490000000 1.0
C      1  0.4803760000000  0.5534080000000  0.5314050000000 1.0
C      1  0.4485540000000  0.3950180000000  0.5046440000000 1.0
C      1  0.4972170000000  0.5311850000000  0.5394370000000 1.0
C      1  0.4803460000000  0.4596410000000  0.5404970000000 1.0
END
