TITL C-4164241-3639-240 3.85784546550758 125000 -15653.5544167476 0 0 104 (C1) n - 1
REM
REM in /home/nfs/bkarasulu/CARBON/AIRSS/Generating-Clusters/ReaxFF-fromJPCA2015/Units_Real/with-SteepDescent/Only-C1/SD-CG/Try1-3A/FIRE-CG
REM
REM
REM
REM
REM
REM ./C.cell (11c1c37f851c82e70ff6c80c92926a4b)
REM
REM compiler GCC version 9.2.1 20190827 (Red Hat 9.2.1-1)
REM options -cpp -mtune=generic -march=x86-64 -g -O0 -fpre-include=/usr/include/finclude/math-vector-fortran.h
REM seed 1912250157 286452712 893612903 1643611494 -1092367855 106663442 -609450790 -1125838744 929495666 -1295262351 957839839 -1397635619 1108926880 670570729 -410329915 -1634096878 -1264508736 301344831 942758545 -707000602 -199304713 -159391363 668326025 1466400298 -847266556 -475861100 -274557850 -1679942499 1102888590 2053867024 652597510 397763746 -1771505356
REM
CELL 1.54180   50.00000   50.00000   50.00000   90.00000   90.00000   90.00000
LATT -1
SFAC C  
C      1  0.4974460000000  0.4263350000000  0.4753110000000 1.0
C      1  0.4175550000000  0.4710930000000  0.5510190000000 1.0
C      1  0.5228420000000  0.4238780000000  0.4593740000000 1.0
C      1  0.5052140000000  0.5096930000000  0.4568690000000 1.0
C      1  0.4584330000000  0.4651910000000  0.5635420000000 1.0
C      1  0.5425740000000  0.4219720000000  0.4801920000000 1.0
C      1  0.4847190000000  0.4659430000000  0.5303180000000 1.0
C      1  0.4169660000000  0.4845480000000  0.5261730000000 1.0
C      1  0.4414420000000  0.4445830000000  0.5136540000000 1.0
C      1  0.5938710000000  0.4764040000000  0.5111720000000 1.0
C      1  0.4707010000000  0.5723800000000  0.4417330000000 1.0
C      1  0.4879370000000  0.5708550000000  0.4841630000000 1.0
C      1  0.4851550000000  0.5565090000000  0.4213660000000 1.0
C      1  0.5069780000000  0.4630170000000  0.5899210000000 1.0
C      1  0.4780300000000  0.5581250000000  0.5318810000000 1.0
C      1  0.5280190000000  0.4129730000000  0.5048850000000 1.0
C      1  0.5757330000000  0.4999880000000  0.5141550000000 1.0
C      1  0.4060050000000  0.5270480000000  0.4851700000000 1.0
C      1  0.5502260000000  0.5482210000000  0.5439810000000 1.0
C      1  0.5223430000000  0.4884500000000  0.5897470000000 1.0
C      1  0.5097210000000  0.4227390000000  0.5483160000000 1.0
C      1  0.4496460000000  0.5594540000000  0.5346170000000 1.0
C      1  0.4791740000000  0.5642210000000  0.5629230000000 1.0
C      1  0.4901510000000  0.5862310000000  0.4577800000000 1.0
C      1  0.4149150000000  0.5247270000000  0.4585930000000 1.0
C      1  0.5064350000000  0.5648850000000  0.5603850000000 1.0
C      1  0.4565940000000  0.5156450000000  0.4300210000000 1.0
C      1  0.5565750000000  0.4974650000000  0.4472580000000 1.0
C      1  0.4807900000000  0.5280180000000  0.4200750000000 1.0
C      1  0.5157410000000  0.4390480000000  0.4348710000000 1.0
C      1  0.4895390000000  0.5778650000000  0.5121590000000 1.0
C      1  0.5164300000000  0.5852570000000  0.4466330000000 1.0
C      1  0.5586620000000  0.5008320000000  0.5558910000000 1.0
C      1  0.4518070000000  0.5578930000000  0.4585760000000 1.0
C      1  0.5286300000000  0.5152070000000  0.5794760000000 1.0
C      1  0.5370680000000  0.5832660000000  0.4677390000000 1.0
C      1  0.5678260000000  0.4393230000000  0.4792930000000 1.0
C      1  0.4993360000000  0.4151100000000  0.5047900000000 1.0
C      1  0.5852020000000  0.4497990000000  0.5031470000000 1.0
C      1  0.4747750000000  0.4835200000000  0.5097660000000 1.0
C      1  0.4639960000000  0.5094840000000  0.5123150000000 1.0
C      1  0.5218230000000  0.4610760000000  0.5021970000000 1.0
C      1  0.5791380000000  0.5272990000000  0.5042470000000 1.0
C      1  0.5109110000000  0.5259410000000  0.5003170000000 1.0
C      1  0.5374750000000  0.5540470000000  0.4678360000000 1.0
C      1  0.4439200000000  0.4740240000000  0.4562430000000 1.0
C      1  0.5533350000000  0.4400180000000  0.5363980000000 1.0
C      1  0.4420200000000  0.4322670000000  0.4893400000000 1.0
C      1  0.4605030000000  0.4990290000000  0.5564340000000 1.0
C      1  0.4400440000000  0.5577090000000  0.5076360000000 1.0
C      1  0.5278910000000  0.5390870000000  0.4244560000000 1.0
C      1  0.4875190000000  0.5079900000000  0.5464210000000 1.0
C      1  0.5493240000000  0.5415540000000  0.4432520000000 1.0
C      1  0.4405060000000  0.5332160000000  0.4475560000000 1.0
C      1  0.5129500000000  0.5478060000000  0.4831130000000 1.0
C      1  0.5614800000000  0.4547980000000  0.4584020000000 1.0
C      1  0.5133870000000  0.5638040000000  0.4254690000000 1.0
C      1  0.4995310000000  0.5196440000000  0.5703590000000 1.0
C      1  0.4556160000000  0.4858370000000  0.4317260000000 1.0
C      1  0.5507770000000  0.4996590000000  0.4747740000000 1.0
C      1  0.4647330000000  0.4444250000000  0.5347810000000 1.0
C      1  0.4243750000000  0.4790210000000  0.4770580000000 1.0
C      1  0.5351480000000  0.4180150000000  0.5332970000000 1.0
C      1  0.4869690000000  0.5257490000000  0.5215820000000 1.0
C      1  0.4803140000000  0.4628450000000  0.5805930000000 1.0
C      1  0.5223030000000  0.5068730000000  0.4804950000000 1.0
C      1  0.5526530000000  0.4938630000000  0.5301620000000 1.0
C      1  0.5664060000000  0.5506090000000  0.5191110000000 1.0
C      1  0.4412010000000  0.5040580000000  0.5295650000000 1.0
C      1  0.5380590000000  0.4673470000000  0.5268350000000 1.0
C      1  0.5363830000000  0.5909230000000  0.4971110000000 1.0
C      1  0.5172950000000  0.5828230000000  0.5187990000000 1.0
C      1  0.5957210000000  0.4682060000000  0.5403010000000 1.0
C      1  0.4806410000000  0.4705140000000  0.4239830000000 1.0
C      1  0.5285770000000  0.5689450000000  0.5438100000000 1.0
C      1  0.4872010000000  0.4235290000000  0.5297780000000 1.0
C      1  0.4080540000000  0.5019740000000  0.4733820000000 1.0
C      1  0.5062540000000  0.4828820000000  0.4197300000000 1.0
C      1  0.5549010000000  0.4708250000000  0.4367610000000 1.0
C      1  0.5711720000000  0.5219550000000  0.4474220000000 1.0
C      1  0.4713400000000  0.4702680000000  0.4650230000000 1.0
C      1  0.4783430000000  0.5388310000000  0.5786130000000 1.0
C      1  0.5103980000000  0.4671420000000  0.5435680000000 1.0
C      1  0.5067100000000  0.4563410000000  0.4815180000000 1.0
C      1  0.5149760000000  0.4474600000000  0.5644680000000 1.0
C      1  0.4868820000000  0.4423560000000  0.4316390000000 1.0
C      1  0.4244510000000  0.4666240000000  0.5037280000000 1.0
C      1  0.4180900000000  0.5391890000000  0.5078180000000 1.0
C      1  0.4755930000000  0.4246360000000  0.4521860000000 1.0
C      1  0.5721690000000  0.5201810000000  0.4772880000000 1.0
C      1  0.4366750000000  0.5401090000000  0.5524590000000 1.0
C      1  0.5552920000000  0.5720710000000  0.5044580000000 1.0
C      1  0.4273760000000  0.4593860000000  0.5741770000000 1.0
C      1  0.4589950000000  0.5634220000000  0.4865810000000 1.0
C      1  0.5856890000000  0.4865410000000  0.5603580000000 1.0
C      1  0.4812450000000  0.4967640000000  0.4632810000000 1.0
C      1  0.4876110000000  0.4791350000000  0.4853570000000 1.0
C      1  0.5813140000000  0.4415560000000  0.5308440000000 1.0
C      1  0.4538170000000  0.5247580000000  0.5703650000000 1.0
C      1  0.5077250000000  0.5144670000000  0.4263840000000 1.0
C      1  0.5272160000000  0.4644080000000  0.4257850000000 1.0
C      1  0.4541860000000  0.4257620000000  0.4685880000000 1.0
C      1  0.5510890000000  0.5262630000000  0.5624340000000 1.0
C      1  0.4211020000000  0.5249490000000  0.5330900000000 1.0
END
