TITL C-4164241-3639-252 11.2269167459901 125000 -26129.7205691779 0 0 175 (C1) n - 1
REM
REM in /home/nfs/bkarasulu/CARBON/AIRSS/Generating-Clusters/ReaxFF-fromJPCA2015/Units_Real/with-SteepDescent/Only-C1/SD-CG/Try1-3A/FIRE-CG
REM
REM
REM
REM
REM
REM ./C.cell (11c1c37f851c82e70ff6c80c92926a4b)
REM
REM compiler GCC version 9.2.1 20190827 (Red Hat 9.2.1-1)
REM options -cpp -mtune=generic -march=x86-64 -g -O0 -fpre-include=/usr/include/finclude/math-vector-fortran.h
REM seed 1032802142 507660810 -913053991 121835521 451553059 -1931490477 961700773 479004468 -2120544472 -33099621 1415471173 1111274196 -1687786182 -1123920905 891350799 -2019916499 1830523744 -1017283150 868560176 1026562708 700004006 -2108274275 1441935999 1975397387 -1603334873 1563808895 1976809457 -1594331404 -795918869 -207348805 -1883486507 -1477658280 -2000730303
REM
CELL 1.54180   50.00000   50.00000   50.00000   90.00000   90.00000   90.00000
LATT -1
SFAC C  
C      1  0.5197050000000  0.6112170000000  0.5221510000000 1.0
C      1  0.5203330000000  0.5608620000000  0.5797150000000 1.0
C      1  0.3944090000000  0.5066920000000  0.5332160000000 1.0
C      1  0.4158330000000  0.4683280000000  0.5582720000000 1.0
C      1  0.5445640000000  0.4462310000000  0.4102310000000 1.0
C      1  0.5068580000000  0.4006130000000  0.5046040000000 1.0
C      1  0.4650810000000  0.5474810000000  0.4085340000000 1.0
C      1  0.4846520000000  0.4577050000000  0.4859970000000 1.0
C      1  0.4758320000000  0.5637740000000  0.5246420000000 1.0
C      1  0.5130990000000  0.5380220000000  0.5114840000000 1.0
C      1  0.5230030000000  0.5123630000000  0.6037060000000 1.0
C      1  0.3912930000000  0.5453520000000  0.4681770000000 1.0
C      1  0.4091310000000  0.5405140000000  0.5150950000000 1.0
C      1  0.6128000000000  0.4651870000000  0.4918200000000 1.0
C      1  0.5427170000000  0.4427920000000  0.5805660000000 1.0
C      1  0.5079220000000  0.6134030000000  0.4968060000000 1.0
C      1  0.3972270000000  0.5570280000000  0.4929920000000 1.0
C      1  0.4562630000000  0.4771780000000  0.5892850000000 1.0
C      1  0.4885270000000  0.4845960000000  0.4935680000000 1.0
C      1  0.4943350000000  0.5083400000000  0.6028570000000 1.0
C      1  0.6023320000000  0.5534240000000  0.4914700000000 1.0
C      1  0.4491260000000  0.5203380000000  0.6082710000000 1.0
C      1  0.5240750000000  0.4790210000000  0.4405210000000 1.0
C      1  0.5008060000000  0.5550160000000  0.5312390000000 1.0
C      1  0.4147980000000  0.4255010000000  0.5253040000000 1.0
C      1  0.4266090000000  0.5644150000000  0.5590560000000 1.0
C      1  0.4806760000000  0.4801330000000  0.4027670000000 1.0
C      1  0.5234930000000  0.4408120000000  0.5248700000000 1.0
C      1  0.3808060000000  0.4620240000000  0.5208930000000 1.0
C      1  0.4730420000000  0.4927400000000  0.4548900000000 1.0
C      1  0.4509060000000  0.5031830000000  0.4770130000000 1.0
C      1  0.5003460000000  0.5935630000000  0.4780180000000 1.0
C      1  0.4518580000000  0.4259280000000  0.4334030000000 1.0
C      1  0.4224500000000  0.5136850000000  0.5770850000000 1.0
C      1  0.4581990000000  0.5425930000000  0.5233920000000 1.0
C      1  0.5824560000000  0.4700570000000  0.5729460000000 1.0
C      1  0.5197070000000  0.4148520000000  0.4830230000000 1.0
C      1  0.5610520000000  0.5152930000000  0.5419880000000 1.0
C      1  0.4142060000000  0.4531770000000  0.4509040000000 1.0
C      1  0.4610750000000  0.4697790000000  0.4436790000000 1.0
C      1  0.5827520000000  0.4543800000000  0.4338050000000 1.0
C      1  0.4379340000000  0.4752970000000  0.4222600000000 1.0
C      1  0.4389070000000  0.5005700000000  0.5283510000000 1.0
C      1  0.4141320000000  0.4926330000000  0.4346310000000 1.0
C      1  0.4939470000000  0.5412090000000  0.4075430000000 1.0
C      1  0.4366470000000  0.5869850000000  0.5404820000000 1.0
C      1  0.4572360000000  0.5831320000000  0.4509910000000 1.0
C      1  0.5404630000000  0.5240290000000  0.4164100000000 1.0
C      1  0.4389860000000  0.5300250000000  0.4788430000000 1.0
C      1  0.5383430000000  0.4866630000000  0.4939280000000 1.0
C      1  0.4353840000000  0.4037580000000  0.5281260000000 1.0
C      1  0.5406570000000  0.5108960000000  0.4768090000000 1.0
C      1  0.5799040000000  0.5204100000000  0.5645230000000 1.0
C      1  0.4850200000000  0.4727990000000  0.5428300000000 1.0
C      1  0.5141640000000  0.5956330000000  0.5465730000000 1.0
C      1  0.5226250000000  0.4066440000000  0.4423230000000 1.0
C      1  0.5042500000000  0.5180340000000  0.5593960000000 1.0
C      1  0.5360300000000  0.6125330000000  0.4982220000000 1.0
C      1  0.4715950000000  0.5342170000000  0.4475180000000 1.0
C      1  0.5859930000000  0.4313780000000  0.4575860000000 1.0
C      1  0.5012900000000  0.4969450000000  0.4529140000000 1.0
C      1  0.5588300000000  0.5675670000000  0.5150310000000 1.0
C      1  0.4660640000000  0.5882420000000  0.5346250000000 1.0
C      1  0.4757580000000  0.4172300000000  0.5486080000000 1.0
C      1  0.4928940000000  0.4108810000000  0.4445550000000 1.0
C      1  0.5222590000000  0.5746370000000  0.4736050000000 1.0
C      1  0.4366380000000  0.5427060000000  0.5041550000000 1.0
C      1  0.4360060000000  0.4973830000000  0.5976260000000 1.0
C      1  0.4299910000000  0.5477020000000  0.4577670000000 1.0
C      1  0.5046400000000  0.5466000000000  0.5587900000000 1.0
C      1  0.4632820000000  0.5522320000000  0.5861710000000 1.0
C      1  0.4903000000000  0.4518390000000  0.4081210000000 1.0
C      1  0.4835360000000  0.4828850000000  0.5928490000000 1.0
C      1  0.5498790000000  0.4705220000000  0.4584080000000 1.0
C      1  0.5753480000000  0.4795620000000  0.4712110000000 1.0
C      1  0.5996040000000  0.4698220000000  0.4512310000000 1.0
C      1  0.4754630000000  0.4036670000000  0.4673490000000 1.0
C      1  0.5690200000000  0.4206670000000  0.5043800000000 1.0
C      1  0.6102770000000  0.5114800000000  0.4721120000000 1.0
C      1  0.4300890000000  0.5858750000000  0.5140060000000 1.0
C      1  0.6193440000000  0.5091580000000  0.5188900000000 1.0
C      1  0.4327310000000  0.4083500000000  0.5619900000000 1.0
C      1  0.5573500000000  0.4670510000000  0.5897220000000 1.0
C      1  0.5173580000000  0.5621860000000  0.4424550000000 1.0
C      1  0.4958690000000  0.5274290000000  0.4905850000000 1.0
C      1  0.5419990000000  0.5484430000000  0.4321190000000 1.0
C      1  0.4211300000000  0.4115580000000  0.5035460000000 1.0
C      1  0.5107620000000  0.4459800000000  0.4761710000000 1.0
C      1  0.5388760000000  0.4903330000000  0.5909840000000 1.0
C      1  0.4525210000000  0.4274560000000  0.5655030000000 1.0
C      1  0.4314660000000  0.4209550000000  0.4800130000000 1.0
C      1  0.4075710000000  0.4961680000000  0.5588150000000 1.0
C      1  0.5150170000000  0.4517050000000  0.4470000000000 1.0
C      1  0.5259650000000  0.4828900000000  0.4074620000000 1.0
C      1  0.5126780000000  0.5173490000000  0.4690960000000 1.0
C      1  0.4612570000000  0.5167920000000  0.5358960000000 1.0
C      1  0.4746640000000  0.5080990000000  0.4932300000000 1.0
C      1  0.4210060000000  0.5193180000000  0.4295640000000 1.0
C      1  0.4684850000000  0.5736310000000  0.4223060000000 1.0
C      1  0.5150320000000  0.5225520000000  0.4000810000000 1.0
C      1  0.4832550000000  0.5033950000000  0.5479940000000 1.0
C      1  0.5345650000000  0.5787430000000  0.5574650000000 1.0
C      1  0.4376220000000  0.4730500000000  0.5208870000000 1.0
C      1  0.4746930000000  0.5317920000000  0.6052230000000 1.0
C      1  0.4750390000000  0.5793300000000  0.5807120000000 1.0
C      1  0.5408950000000  0.4051360000000  0.4659440000000 1.0
C      1  0.4792040000000  0.4011770000000  0.4982560000000 1.0
C      1  0.5629850000000  0.4684620000000  0.4183310000000 1.0
C      1  0.5807860000000  0.5730850000000  0.4953410000000 1.0
C      1  0.6088450000000  0.4473020000000  0.4669700000000 1.0
C      1  0.4043700000000  0.5394490000000  0.4438860000000 1.0
C      1  0.5392100000000  0.5540290000000  0.4965170000000 1.0
C      1  0.5901540000000  0.5415590000000  0.4431690000000 1.0
C      1  0.5808570000000  0.5144480000000  0.4359180000000 1.0
C      1  0.5131950000000  0.4860980000000  0.5086380000000 1.0
C      1  0.3862860000000  0.4879160000000  0.5101860000000 1.0
C      1  0.5141780000000  0.4388620000000  0.5750140000000 1.0
C      1  0.4007780000000  0.4783970000000  0.4568950000000 1.0
C      1  0.5012860000000  0.4670070000000  0.5717700000000 1.0
C      1  0.5759000000000  0.5242410000000  0.5220550000000 1.0
C      1  0.4841300000000  0.5975610000000  0.4538290000000 1.0
C      1  0.4328330000000  0.5758700000000  0.4645600000000 1.0
C      1  0.4343550000000  0.4495200000000  0.4748550000000 1.0
C      1  0.5182480000000  0.4557570000000  0.4006040000000 1.0
C      1  0.5267400000000  0.4819420000000  0.5662200000000 1.0
C      1  0.5002920000000  0.5730300000000  0.5897730000000 1.0
C      1  0.4797390000000  0.4292430000000  0.4249060000000 1.0
C      1  0.5604270000000  0.5015300000000  0.4196240000000 1.0
C      1  0.4979580000000  0.5397130000000  0.4365530000000 1.0
C      1  0.4940590000000  0.5823290000000  0.4316930000000 1.0
C      1  0.5168850000000  0.5112830000000  0.5207030000000 1.0
C      1  0.4491470000000  0.4104070000000  0.4591090000000 1.0
C      1  0.4041760000000  0.4851500000000  0.4854670000000 1.0
C      1  0.5856770000000  0.4691340000000  0.5001010000000 1.0
C      1  0.6208740000000  0.4939270000000  0.4931730000000 1.0
C      1  0.5041920000000  0.4965340000000  0.3942050000000 1.0
C      1  0.5595020000000  0.4380890000000  0.5568680000000 1.0
C      1  0.5493170000000  0.4502680000000  0.5325340000000 1.0
C      1  0.5761880000000  0.4489060000000  0.5195260000000 1.0
C      1  0.5639100000000  0.5538900000000  0.4528440000000 1.0
C      1  0.4573450000000  0.4948950000000  0.4100100000000 1.0
C      1  0.4654530000000  0.4075910000000  0.5230360000000 1.0
C      1  0.5508750000000  0.4093920000000  0.5227540000000 1.0
C      1  0.5851780000000  0.4500080000000  0.5526770000000 1.0
C      1  0.5577640000000  0.5676030000000  0.5447530000000 1.0
C      1  0.5316330000000  0.4331030000000  0.4334630000000 1.0
C      1  0.5550270000000  0.5357320000000  0.4794380000000 1.0
C      1  0.4573720000000  0.4663300000000  0.5396940000000 1.0
C      1  0.4692860000000  0.5560060000000  0.4659570000000 1.0
C      1  0.4097510000000  0.4538980000000  0.5329180000000 1.0
C      1  0.5974610000000  0.4960040000000  0.5677330000000 1.0
C      1  0.4182300000000  0.5799180000000  0.4896220000000 1.0
C      1  0.4628820000000  0.4545930000000  0.4671650000000 1.0
C      1  0.4857100000000  0.5927160000000  0.5562990000000 1.0
C      1  0.5441120000000  0.5947350000000  0.4762390000000 1.0
C      1  0.5035990000000  0.4196800000000  0.5564030000000 1.0
C      1  0.6007590000000  0.5332020000000  0.5127770000000 1.0
C      1  0.5564300000000  0.5453340000000  0.5865150000000 1.0
C      1  0.5291870000000  0.5060760000000  0.5468730000000 1.0
C      1  0.4356870000000  0.5433360000000  0.5754880000000 1.0
C      1  0.6085180000000  0.5402370000000  0.4660430000000 1.0
C      1  0.5816310000000  0.5082170000000  0.4655170000000 1.0
C      1  0.5669760000000  0.4173480000000  0.4743030000000 1.0
C      1  0.4512200000000  0.5226870000000  0.4209480000000 1.0
C      1  0.5332140000000  0.5399520000000  0.5999290000000 1.0
C      1  0.4148600000000  0.5147100000000  0.5211970000000 1.0
C      1  0.5035370000000  0.4611760000000  0.5223750000000 1.0
C      1  0.5736250000000  0.5500230000000  0.5653830000000 1.0
C      1  0.4307310000000  0.4458050000000  0.4283190000000 1.0
C      1  0.5358140000000  0.4624800000000  0.4809240000000 1.0
C      1  0.5203080000000  0.4110570000000  0.5310360000000 1.0
C      1  0.6102120000000  0.5005890000000  0.5436730000000 1.0
C      1  0.4319260000000  0.4780770000000  0.4910280000000 1.0
C      1  0.4442610000000  0.4596050000000  0.5662120000000 1.0
C      1  0.5678560000000  0.5800430000000  0.4704400000000 1.0
END
