TITL C-4164246-3563-26 6.44311717801842 125000 -11224.9587897063 0 0 77 (C1) n - 1
REM
REM in /home/nfs/bkarasulu/CARBON/AIRSS/Generating-Clusters/ReaxFF-fromJPCA2015/Units_Real/with-SteepDescent/Only-C1/SD-CG/Try1-3A/FIRE-CG
REM
REM
REM
REM
REM
REM ./C.cell (11c1c37f851c82e70ff6c80c92926a4b)
REM
REM compiler GCC version 9.2.1 20190827 (Red Hat 9.2.1-1)
REM options -cpp -mtune=generic -march=x86-64 -g -O0 -fpre-include=/usr/include/finclude/math-vector-fortran.h
REM seed -1664623232 1538225896 1450766507 700316250 -1254851243 651911085 887649036 -1106017988 1428560242 -1421470081 -1291456540 1997040076 695424622 -2041285884 -1278221604 1217955572 1384044129 -917204055 1451240126 -1273409658 1747621393 -1229218794 1024367284 -1144789617 1833131995 1774419028 789929935 -575610849 -1008037890 1379697773 -1759607997 -442840113 -1648416788
REM
CELL 1.54180   50.00000   50.00000   50.00000   90.00000   90.00000   90.00000
LATT -1
SFAC C  
C      1  0.4926490000000  0.4848110000000  0.5239980000000 1.0
C      1  0.5059150000000  0.5396970000000  0.5008290000000 1.0
C      1  0.4069650000000  0.4850640000000  0.5120910000000 1.0
C      1  0.4457220000000  0.4585210000000  0.5364650000000 1.0
C      1  0.4856330000000  0.4901390000000  0.5860040000000 1.0
C      1  0.4455830000000  0.4991650000000  0.4442560000000 1.0
C      1  0.5564710000000  0.5655270000000  0.5044900000000 1.0
C      1  0.4868060000000  0.5618100000000  0.5157060000000 1.0
C      1  0.4645010000000  0.4497450000000  0.5571150000000 1.0
C      1  0.4394690000000  0.5184340000000  0.5320000000000 1.0
C      1  0.5270050000000  0.5433670000000  0.4320790000000 1.0
C      1  0.5228100000000  0.5169550000000  0.5052080000000 1.0
C      1  0.4675960000000  0.5460760000000  0.4446430000000 1.0
C      1  0.4313830000000  0.4870340000000  0.5314030000000 1.0
C      1  0.4884370000000  0.4556750000000  0.4706110000000 1.0
C      1  0.5455910000000  0.4880770000000  0.4705090000000 1.0
C      1  0.5376830000000  0.4885800000000  0.5632920000000 1.0
C      1  0.5658290000000  0.5090810000000  0.4720710000000 1.0
C      1  0.4363370000000  0.4549990000000  0.4866070000000 1.0
C      1  0.5492700000000  0.5120520000000  0.5486670000000 1.0
C      1  0.5199480000000  0.4920170000000  0.4878960000000 1.0
C      1  0.5371490000000  0.4340970000000  0.4793850000000 1.0
C      1  0.5365720000000  0.4414610000000  0.5335880000000 1.0
C      1  0.5103260000000  0.4254000000000  0.5374310000000 1.0
C      1  0.5147140000000  0.4981130000000  0.5801720000000 1.0
C      1  0.5481860000000  0.5120150000000  0.5196510000000 1.0
C      1  0.4472300000000  0.4425260000000  0.5126780000000 1.0
C      1  0.4782320000000  0.4939860000000  0.4524790000000 1.0
C      1  0.4698590000000  0.5471330000000  0.5545300000000 1.0
C      1  0.5443940000000  0.5416310000000  0.5520620000000 1.0
C      1  0.5410740000000  0.5743690000000  0.4762870000000 1.0
C      1  0.5734700000000  0.5155240000000  0.5019980000000 1.0
C      1  0.5380320000000  0.5585930000000  0.4535360000000 1.0
C      1  0.5461590000000  0.5579970000000  0.5294250000000 1.0
C      1  0.4931280000000  0.5385820000000  0.4767560000000 1.0
C      1  0.5369840000000  0.4642470000000  0.5488110000000 1.0
C      1  0.5499390000000  0.4422820000000  0.5055210000000 1.0
C      1  0.5070140000000  0.5209480000000  0.5643610000000 1.0
C      1  0.5309710000000  0.4489080000000  0.4540050000000 1.0
C      1  0.4674800000000  0.5014900000000  0.5647560000000 1.0
C      1  0.5165220000000  0.5482500000000  0.5582020000000 1.0
C      1  0.5432050000000  0.4740660000000  0.4452200000000 1.0
C      1  0.4710710000000  0.5611010000000  0.4725470000000 1.0
C      1  0.4619340000000  0.5543400000000  0.5007490000000 1.0
C      1  0.5817460000000  0.4856350000000  0.5144250000000 1.0
C      1  0.4444250000000  0.5259240000000  0.4543530000000 1.0
C      1  0.4442480000000  0.5315020000000  0.5054420000000 1.0
C      1  0.4649840000000  0.4370490000000  0.4467940000000 1.0
C      1  0.4367020000000  0.5166220000000  0.4810940000000 1.0
C      1  0.4990720000000  0.5299150000000  0.4306380000000 1.0
C      1  0.5132100000000  0.4714480000000  0.5084100000000 1.0
C      1  0.5131340000000  0.4215390000000  0.4893870000000 1.0
C      1  0.4464500000000  0.4894570000000  0.5072700000000 1.0
C      1  0.4887920000000  0.5934850000000  0.5053850000000 1.0
C      1  0.4918660000000  0.5612290000000  0.5466560000000 1.0
C      1  0.5018260000000  0.4481510000000  0.4945030000000 1.0
C      1  0.5463520000000  0.5208540000000  0.4256810000000 1.0
C      1  0.5786400000000  0.5465930000000  0.5059600000000 1.0
C      1  0.4893750000000  0.5052130000000  0.5454350000000 1.0
C      1  0.5347110000000  0.4937070000000  0.4240520000000 1.0
C      1  0.4932150000000  0.4773750000000  0.4315550000000 1.0
C      1  0.4881040000000  0.5889310000000  0.4769350000000 1.0
C      1  0.4879720000000  0.4369180000000  0.5477960000000 1.0
C      1  0.4511210000000  0.5264890000000  0.5576470000000 1.0
C      1  0.5599930000000  0.5251320000000  0.4497500000000 1.0
C      1  0.4721330000000  0.4643180000000  0.5837090000000 1.0
C      1  0.5162770000000  0.5870840000000  0.4748860000000 1.0
C      1  0.4493940000000  0.4457320000000  0.4658910000000 1.0
C      1  0.4954750000000  0.5180990000000  0.4565210000000 1.0
C      1  0.4257570000000  0.4852290000000  0.4882810000000 1.0
C      1  0.5066080000000  0.5005750000000  0.4212930000000 1.0
C      1  0.4685090000000  0.4220310000000  0.5116930000000 1.0
C      1  0.4964140000000  0.4127660000000  0.5136120000000 1.0
C      1  0.5656620000000  0.4637130000000  0.5099230000000 1.0
C      1  0.4734190000000  0.4879120000000  0.5026520000000 1.0
C      1  0.4862500000000  0.4828640000000  0.4778010000000 1.0
C      1  0.5029130000000  0.4526230000000  0.4444770000000 1.0
END
