TITL C-4164245-3996-510 44.8978233283326 125000 -23010.7795421574 0 0 154 (C1) n - 1
REM
REM in /home/nfs/bkarasulu/CARBON/AIRSS/Generating-Clusters/ReaxFF-fromJPCA2015/Units_Real/with-SteepDescent/Only-C1/SD-CG/Try1-3A/FIRE-CG
REM
REM
REM
REM
REM
REM ./C.cell (11c1c37f851c82e70ff6c80c92926a4b)
REM
REM compiler GCC version 9.2.1 20190827 (Red Hat 9.2.1-1)
REM options -cpp -mtune=generic -march=x86-64 -g -O0 -fpre-include=/usr/include/finclude/math-vector-fortran.h
REM seed -1967666076 -514186477 473407556 576429921 -1448835481 5127359 1733273271 1829443963 -1451237888 -1477522424 1186726978 -1193648134 -882102585 -2099779991 -1517322715 1801871736 -2115722769 -661098712 -792341840 1128152755 -126832785 -491484697 219334757 -1978846731 1448398084 -2036325304 1183343631 1911757028 -1953318223 1614726756 -265821826 1686042097 -111963363
REM
CELL 1.54180   50.00000   50.00000   50.00000   90.00000   90.00000   90.00000
LATT -1
SFAC C  
C      1  0.4361420000000  0.4749940000000  0.5837550000000 1.0
C      1  0.5751090000000  0.5231790000000  0.5272270000000 1.0
C      1  0.4250570000000  0.4788520000000  0.4270810000000 1.0
C      1  0.5745880000000  0.5860630000000  0.5327700000000 1.0
C      1  0.3873850000000  0.4643200000000  0.5189440000000 1.0
C      1  0.4775990000000  0.4589200000000  0.6067310000000 1.0
C      1  0.4649310000000  0.4742920000000  0.5130050000000 1.0
C      1  0.4006160000000  0.5125060000000  0.4549710000000 1.0
C      1  0.4634570000000  0.5592030000000  0.4957580000000 1.0
C      1  0.5100640000000  0.5366160000000  0.6012260000000 1.0
C      1  0.5246460000000  0.4476570000000  0.5989340000000 1.0
C      1  0.4675880000000  0.5189140000000  0.5227410000000 1.0
C      1  0.5406920000000  0.5376520000000  0.4518700000000 1.0
C      1  0.5449640000000  0.4661630000000  0.4461290000000 1.0
C      1  0.4634390000000  0.5882390000000  0.5537890000000 1.0
C      1  0.4664430000000  0.5412270000000  0.4541290000000 1.0
C      1  0.5004010000000  0.3887300000000  0.5553700000000 1.0
C      1  0.5634870000000  0.4451680000000  0.5361580000000 1.0
C      1  0.5936210000000  0.4546090000000  0.4900320000000 1.0
C      1  0.4747380000000  0.5678440000000  0.5189570000000 1.0
C      1  0.3838700000000  0.4694680000000  0.4616780000000 1.0
C      1  0.4828610000000  0.5889140000000  0.4442320000000 1.0
C      1  0.4026060000000  0.4410280000000  0.5220840000000 1.0
C      1  0.4303590000000  0.5678970000000  0.4714160000000 1.0
C      1  0.5442480000000  0.4610310000000  0.5800810000000 1.0
C      1  0.5008220000000  0.4017610000000  0.4850150000000 1.0
C      1  0.5265940000000  0.5151590000000  0.4170790000000 1.0
C      1  0.5234640000000  0.5371710000000  0.5233350000000 1.0
C      1  0.5552200000000  0.5755230000000  0.4522430000000 1.0
C      1  0.4811370000000  0.4412600000000  0.5840910000000 1.0
C      1  0.4228860000000  0.4307660000000  0.4692370000000 1.0
C      1  0.4788440000000  0.4654490000000  0.4546800000000 1.0
C      1  0.4617490000000  0.5134000000000  0.5697870000000 1.0
C      1  0.4847360000000  0.5198140000000  0.4981330000000 1.0
C      1  0.4530370000000  0.4044410000000  0.5418390000000 1.0
C      1  0.5684840000000  0.5664570000000  0.4820060000000 1.0
C      1  0.4546670000000  0.4740280000000  0.4694420000000 1.0
C      1  0.4396690000000  0.4306700000000  0.4472890000000 1.0
C      1  0.4015100000000  0.5099730000000  0.4834630000000 1.0
C      1  0.5898620000000  0.5219390000000  0.5009160000000 1.0
C      1  0.5277230000000  0.5545190000000  0.5941570000000 1.0
C      1  0.4397370000000  0.4566580000000  0.5583890000000 1.0
C      1  0.5167280000000  0.5791750000000  0.5758840000000 1.0
C      1  0.5488070000000  0.5428500000000  0.5609870000000 1.0
C      1  0.5927420000000  0.5136180000000  0.5701820000000 1.0
C      1  0.5565820000000  0.5156120000000  0.4156270000000 1.0
C      1  0.4102170000000  0.4429560000000  0.4903890000000 1.0
C      1  0.5789390000000  0.4711600000000  0.5366590000000 1.0
C      1  0.4307730000000  0.5077780000000  0.4188420000000 1.0
C      1  0.4971040000000  0.5999830000000  0.4888950000000 1.0
C      1  0.4700090000000  0.4990620000000  0.4253530000000 1.0
C      1  0.5843860000000  0.5805910000000  0.5065080000000 1.0
C      1  0.5937620000000  0.5344810000000  0.5482440000000 1.0
C      1  0.4612830000000  0.4177420000000  0.4647640000000 1.0
C      1  0.4972280000000  0.4802230000000  0.3978270000000 1.0
C      1  0.4285220000000  0.5194950000000  0.4921260000000 1.0
C      1  0.5298260000000  0.4072740000000  0.4840680000000 1.0
C      1  0.4818570000000  0.5282260000000  0.3988270000000 1.0
C      1  0.5022190000000  0.4990870000000  0.4918680000000 1.0
C      1  0.5060930000000  0.4739510000000  0.4553330000000 1.0
C      1  0.4626890000000  0.4260800000000  0.4960510000000 1.0
C      1  0.4405690000000  0.4547160000000  0.4286910000000 1.0
C      1  0.4373530000000  0.4971440000000  0.5652800000000 1.0
C      1  0.5546380000000  0.4946990000000  0.5317710000000 1.0
C      1  0.4209320000000  0.4704930000000  0.4927790000000 1.0
C      1  0.5600740000000  0.4314530000000  0.5114380000000 1.0
C      1  0.4635500000000  0.5111410000000  0.4511040000000 1.0
C      1  0.4375340000000  0.4786950000000  0.5155620000000 1.0
C      1  0.5241390000000  0.4545620000000  0.4628360000000 1.0
C      1  0.5108250000000  0.5752630000000  0.4092210000000 1.0
C      1  0.4811270000000  0.5433910000000  0.4813400000000 1.0
C      1  0.5875480000000  0.5619990000000  0.5436090000000 1.0
C      1  0.4242840000000  0.5393740000000  0.5389070000000 1.0
C      1  0.5225320000000  0.4542030000000  0.4924060000000 1.0
C      1  0.5652810000000  0.4262870000000  0.4604970000000 1.0
C      1  0.5581770000000  0.5231170000000  0.4675410000000 1.0
C      1  0.5709420000000  0.5123330000000  0.5900190000000 1.0
C      1  0.5747080000000  0.4948390000000  0.4256710000000 1.0
C      1  0.5087030000000  0.4306570000000  0.5819260000000 1.0
C      1  0.5444390000000  0.4411000000000  0.5562150000000 1.0
C      1  0.5336610000000  0.4296160000000  0.5028600000000 1.0
C      1  0.4724250000000  0.4736550000000  0.4115680000000 1.0
C      1  0.4882410000000  0.4147130000000  0.5070620000000 1.0
C      1  0.5215220000000  0.4231260000000  0.5562890000000 1.0
C      1  0.4491700000000  0.5022130000000  0.4725330000000 1.0
C      1  0.5690030000000  0.4831420000000  0.5851600000000 1.0
C      1  0.5059430000000  0.4653300000000  0.6124290000000 1.0
C      1  0.5406150000000  0.5978130000000  0.5039210000000 1.0
C      1  0.4965310000000  0.5879600000000  0.5598010000000 1.0
C      1  0.4521240000000  0.5835610000000  0.4849610000000 1.0
C      1  0.4201250000000  0.5275380000000  0.4388390000000 1.0
C      1  0.4426930000000  0.4188620000000  0.5223170000000 1.0
C      1  0.4560220000000  0.5144010000000  0.4047100000000 1.0
C      1  0.3985590000000  0.4847090000000  0.4428610000000 1.0
C      1  0.4576560000000  0.4802780000000  0.6027080000000 1.0
C      1  0.5127630000000  0.4909810000000  0.6003650000000 1.0
C      1  0.4254390000000  0.4337530000000  0.5397720000000 1.0
C      1  0.4681350000000  0.5072080000000  0.5971590000000 1.0
C      1  0.5380250000000  0.4139980000000  0.4574290000000 1.0
C      1  0.5508670000000  0.5425110000000  0.5331430000000 1.0
C      1  0.5774710000000  0.4419130000000  0.4395120000000 1.0
C      1  0.4992720000000  0.5780080000000  0.5081010000000 1.0
C      1  0.4381030000000  0.5196280000000  0.5213650000000 1.0
C      1  0.4511260000000  0.5825740000000  0.5262240000000 1.0
C      1  0.5447770000000  0.5002890000000  0.4799130000000 1.0
C      1  0.5254330000000  0.4855310000000  0.5748730000000 1.0
C      1  0.5880880000000  0.4846200000000  0.5640980000000 1.0
C      1  0.4803950000000  0.5195150000000  0.5478280000000 1.0
C      1  0.5447030000000  0.5973570000000  0.5328670000000 1.0
C      1  0.5102180000000  0.5925400000000  0.4339200000000 1.0
C      1  0.5119300000000  0.4240080000000  0.4453280000000 1.0
C      1  0.4751460000000  0.3925770000000  0.5506770000000 1.0
C      1  0.4361680000000  0.5487010000000  0.4504610000000 1.0
C      1  0.5152160000000  0.5001060000000  0.4650600000000 1.0
C      1  0.5759850000000  0.4333740000000  0.4885690000000 1.0
C      1  0.5102270000000  0.5202100000000  0.5432180000000 1.0
C      1  0.5040000000000  0.5086470000000  0.3988810000000 1.0
C      1  0.4751960000000  0.4513650000000  0.4292090000000 1.0
C      1  0.5195690000000  0.5213760000000  0.4444200000000 1.0
C      1  0.4278960000000  0.5642350000000  0.5215820000000 1.0
C      1  0.5557550000000  0.5539520000000  0.4315250000000 1.0
C      1  0.5970010000000  0.4721300000000  0.5126310000000 1.0
C      1  0.4865720000000  0.5556090000000  0.4083790000000 1.0
C      1  0.5160600000000  0.5548330000000  0.5007430000000 1.0
C      1  0.5244510000000  0.6058540000000  0.4802950000000 1.0
C      1  0.5012940000000  0.4384080000000  0.4220910000000 1.0
C      1  0.4248980000000  0.5520230000000  0.4950230000000 1.0
C      1  0.4480450000000  0.5892800000000  0.5740130000000 1.0
C      1  0.4303970000000  0.4800780000000  0.5432500000000 1.0
C      1  0.5148470000000  0.4583160000000  0.4066070000000 1.0
C      1  0.4745510000000  0.5633430000000  0.4327660000000 1.0
C      1  0.4695920000000  0.4520720000000  0.5596240000000 1.0
C      1  0.4891650000000  0.4703120000000  0.5286440000000 1.0
C      1  0.5290350000000  0.4998180000000  0.5511600000000 1.0
C      1  0.5364850000000  0.5665440000000  0.4149770000000 1.0
C      1  0.5529730000000  0.5373560000000  0.5857650000000 1.0
C      1  0.5076430000000  0.4748040000000  0.5059460000000 1.0
C      1  0.5244980000000  0.5975630000000  0.5536420000000 1.0
C      1  0.5558710000000  0.4889500000000  0.4061560000000 1.0
C      1  0.5398760000000  0.4679320000000  0.4175820000000 1.0
C      1  0.4740240000000  0.5971310000000  0.4710260000000 1.0
C      1  0.4862010000000  0.4458810000000  0.5395940000000 1.0
C      1  0.5919580000000  0.4765040000000  0.4718890000000 1.0
C      1  0.5322500000000  0.5930240000000  0.4541960000000 1.0
C      1  0.4624250000000  0.4563290000000  0.4913060000000 1.0
C      1  0.5979540000000  0.4949950000000  0.4940270000000 1.0
C      1  0.4881630000000  0.4099660000000  0.4597730000000 1.0
C      1  0.5410830000000  0.5696590000000  0.4951360000000 1.0
C      1  0.5791470000000  0.5381950000000  0.4799210000000 1.0
C      1  0.4952370000000  0.5143970000000  0.6075940000000 1.0
C      1  0.3932360000000  0.4820590000000  0.4904320000000 1.0
C      1  0.5740230000000  0.4748220000000  0.4475070000000 1.0
C      1  0.5490890000000  0.4971150000000  0.5054230000000 1.0
C      1  0.4995870000000  0.4215120000000  0.5339440000000 1.0
END
