TITL C-4164236-1577-565 2.8623660341176 125000 -13538.0128838991 0 0 91 (C1) n - 1
REM
REM in /home/nfs/bkarasulu/CARBON/AIRSS/Generating-Clusters/ReaxFF-fromJPCA2015/Units_Real/with-SteepDescent/Only-C1/SD-CG/Try1-3A/FIRE-CG
REM
REM
REM
REM
REM
REM ./C.cell (11c1c37f851c82e70ff6c80c92926a4b)
REM
REM compiler GCC version 9.2.1 20190827 (Red Hat 9.2.1-1)
REM options -cpp -mtune=generic -march=x86-64 -g -O0 -fpre-include=/usr/include/finclude/math-vector-fortran.h
REM seed 576228740 1575620468 -1661905752 -1953170086 -1675348116 -380409305 -39682308 2077217756 -183343765 -780870780 542792877 236463123 -1941339233 562547907 688732749 1713055434 1031736870 -342600312 -662229320 -665212012 -821466929 -796597025 1204928155 -1875954646 1399830916 936220604 -790375895 -483073347 -1297105254 -1740749219 2053130590 -1654479389 1398490960
REM
CELL 1.54180   50.00000   50.00000   50.00000   90.00000   90.00000   90.00000
LATT -1
SFAC C  
C      1  0.5244880000000  0.5061930000000  0.4309060000000 1.0
C      1  0.4592340000000  0.5075690000000  0.5617940000000 1.0
C      1  0.5721500000000  0.4849680000000  0.4856070000000 1.0
C      1  0.5190380000000  0.4410540000000  0.5663490000000 1.0
C      1  0.5439630000000  0.4919430000000  0.4787500000000 1.0
C      1  0.4977650000000  0.4347900000000  0.4337230000000 1.0
C      1  0.5361200000000  0.5190190000000  0.4767480000000 1.0
C      1  0.5019310000000  0.5897280000000  0.5431090000000 1.0
C      1  0.5030610000000  0.4880770000000  0.5416550000000 1.0
C      1  0.5305290000000  0.5269730000000  0.5200060000000 1.0
C      1  0.4410920000000  0.4513240000000  0.5035270000000 1.0
C      1  0.4845580000000  0.5602400000000  0.5059510000000 1.0
C      1  0.5114700000000  0.5548330000000  0.4585840000000 1.0
C      1  0.5170630000000  0.5266990000000  0.4956900000000 1.0
C      1  0.4824520000000  0.4731230000000  0.4139010000000 1.0
C      1  0.5338850000000  0.5002450000000  0.5328470000000 1.0
C      1  0.5401880000000  0.5824370000000  0.4918080000000 1.0
C      1  0.4845150000000  0.4785150000000  0.5870770000000 1.0
C      1  0.4600240000000  0.4219970000000  0.4609070000000 1.0
C      1  0.5195180000000  0.4538530000000  0.4373620000000 1.0
C      1  0.5098750000000  0.4191600000000  0.4782630000000 1.0
C      1  0.5807950000000  0.5305850000000  0.4836520000000 1.0
C      1  0.5532190000000  0.5735590000000  0.5164720000000 1.0
C      1  0.4934960000000  0.4387480000000  0.5768690000000 1.0
C      1  0.4396500000000  0.4949850000000  0.4366730000000 1.0
C      1  0.4294990000000  0.4495470000000  0.4530690000000 1.0
C      1  0.4506990000000  0.4361290000000  0.4370280000000 1.0
C      1  0.5459330000000  0.4212320000000  0.5601720000000 1.0
C      1  0.5327160000000  0.4565230000000  0.5041460000000 1.0
C      1  0.4851420000000  0.4285530000000  0.5191560000000 1.0
C      1  0.4617310000000  0.5016540000000  0.4563130000000 1.0
C      1  0.5372020000000  0.4355200000000  0.4835170000000 1.0
C      1  0.4654230000000  0.4521670000000  0.5223540000000 1.0
C      1  0.5053940000000  0.4143810000000  0.5064320000000 1.0
C      1  0.5392370000000  0.4926100000000  0.6009130000000 1.0
C      1  0.5558660000000  0.5400490000000  0.4707020000000 1.0
C      1  0.5105070000000  0.4835980000000  0.5979480000000 1.0
C      1  0.4477390000000  0.5045620000000  0.4819450000000 1.0
C      1  0.4867860000000  0.4989460000000  0.5661820000000 1.0
C      1  0.4576630000000  0.4843350000000  0.4183030000000 1.0
C      1  0.5143510000000  0.5986330000000  0.4949140000000 1.0
C      1  0.4847950000000  0.5756920000000  0.5628890000000 1.0
C      1  0.5586860000000  0.5068830000000  0.5513400000000 1.0
C      1  0.5395890000000  0.5637930000000  0.4700570000000 1.0
C      1  0.5163670000000  0.5316310000000  0.4389070000000 1.0
C      1  0.4651690000000  0.5032690000000  0.5063830000000 1.0
C      1  0.4696500000000  0.4537580000000  0.5750940000000 1.0
C      1  0.4954070000000  0.5867030000000  0.5142980000000 1.0
C      1  0.5540760000000  0.5004400000000  0.5767620000000 1.0
C      1  0.4408520000000  0.4375210000000  0.4782180000000 1.0
C      1  0.4289520000000  0.5453870000000  0.5039670000000 1.0
C      1  0.4983570000000  0.5441470000000  0.4859530000000 1.0
C      1  0.4962960000000  0.4809220000000  0.4854900000000 1.0
C      1  0.4556670000000  0.5583310000000  0.5039770000000 1.0
C      1  0.5395120000000  0.4161600000000  0.5071570000000 1.0
C      1  0.5773170000000  0.4943470000000  0.4448460000000 1.0
C      1  0.4223900000000  0.4890710000000  0.4800440000000 1.0
C      1  0.4895540000000  0.4211920000000  0.4583000000000 1.0
C      1  0.4229090000000  0.4741960000000  0.5055380000000 1.0
C      1  0.4659560000000  0.5592770000000  0.5764910000000 1.0
C      1  0.5473110000000  0.4752770000000  0.5210590000000 1.0
C      1  0.5578220000000  0.5927390000000  0.5420360000000 1.0
C      1  0.5231200000000  0.4753170000000  0.4866740000000 1.0
C      1  0.4490990000000  0.5351950000000  0.5665270000000 1.0
C      1  0.5297060000000  0.5915830000000  0.5455720000000 1.0
C      1  0.4869330000000  0.4876750000000  0.4599810000000 1.0
C      1  0.5040510000000  0.4815550000000  0.4352330000000 1.0
C      1  0.5537950000000  0.5445740000000  0.5213440000000 1.0
C      1  0.4553390000000  0.4599200000000  0.5504210000000 1.0
C      1  0.4325500000000  0.5704150000000  0.4544480000000 1.0
C      1  0.4898290000000  0.5777330000000  0.4522540000000 1.0
C      1  0.4835690000000  0.4813240000000  0.5133860000000 1.0
C      1  0.4290350000000  0.5467780000000  0.4738780000000 1.0
C      1  0.5606390000000  0.4683800000000  0.4417690000000 1.0
C      1  0.4251290000000  0.4935400000000  0.5272000000000 1.0
C      1  0.5440180000000  0.4182420000000  0.5332840000000 1.0
C      1  0.4332790000000  0.5360460000000  0.5441390000000 1.0
C      1  0.4218450000000  0.4777050000000  0.4534410000000 1.0
C      1  0.4624750000000  0.5656400000000  0.4524670000000 1.0
C      1  0.5138720000000  0.4641590000000  0.5526090000000 1.0
C      1  0.4985240000000  0.5928490000000  0.4732220000000 1.0
C      1  0.4207490000000  0.5234250000000  0.5231910000000 1.0
C      1  0.5799190000000  0.5070950000000  0.5305690000000 1.0
C      1  0.5785170000000  0.5303590000000  0.5130380000000 1.0
C      1  0.5870260000000  0.5050170000000  0.4705900000000 1.0
C      1  0.4423460000000  0.4858640000000  0.5492570000000 1.0
C      1  0.4738620000000  0.4456660000000  0.4205940000000 1.0
C      1  0.5523470000000  0.4943140000000  0.4300560000000 1.0
C      1  0.4591290000000  0.5476180000000  0.4758000000000 1.0
C      1  0.5742690000000  0.4828700000000  0.5150490000000 1.0
C      1  0.5424290000000  0.4493540000000  0.4538740000000 1.0
END
