TITL C-4164241-3639-50 -5.46347588979903 125000 -20782.0775955162 0 0 141 (C1) n - 1
REM
REM in /home/nfs/bkarasulu/CARBON/AIRSS/Generating-Clusters/ReaxFF-fromJPCA2015/Units_Real/with-SteepDescent/Only-C1/SD-CG/Try1-3A/FIRE-CG
REM
REM
REM
REM
REM
REM ./C.cell (11c1c37f851c82e70ff6c80c92926a4b)
REM
REM compiler GCC version 9.2.1 20190827 (Red Hat 9.2.1-1)
REM options -cpp -mtune=generic -march=x86-64 -g -O0 -fpre-include=/usr/include/finclude/math-vector-fortran.h
REM seed -594103910 -132819394 -618655762 -1737034852 1494455812 -847555324 -1437946266 1076813726 -61171484 780974494 -1903405749 1803215350 -3064538 2037467096 1990904526 -1618765813 -1329834619 1871295652 -1078961254 -469319840 -265255946 1651422461 -533404130 -1934404177 373925773 -443665085 -900211799 -1689703189 -1171466390 -1974763091 2052756198 378251890 -6493854
REM
CELL 1.54180   50.00000   50.00000   50.00000   90.00000   90.00000   90.00000
LATT -1
SFAC C  
C      1  0.5006740000000  0.4410250000000  0.5211420000000 1.0
C      1  0.5552640000000  0.4024090000000  0.4506230000000 1.0
C      1  0.4448270000000  0.4998900000000  0.4710730000000 1.0
C      1  0.5838430000000  0.4677210000000  0.4942120000000 1.0
C      1  0.5928330000000  0.4934370000000  0.5103050000000 1.0
C      1  0.4193660000000  0.5588800000000  0.5033170000000 1.0
C      1  0.5327760000000  0.4705510000000  0.4908380000000 1.0
C      1  0.4765000000000  0.5872650000000  0.5155120000000 1.0
C      1  0.4297660000000  0.4241670000000  0.4567040000000 1.0
C      1  0.5396010000000  0.4489690000000  0.5767440000000 1.0
C      1  0.4004660000000  0.4966100000000  0.4641750000000 1.0
C      1  0.4357560000000  0.5681370000000  0.5248330000000 1.0
C      1  0.5251820000000  0.4050130000000  0.4465000000000 1.0
C      1  0.6005640000000  0.5627070000000  0.5028000000000 1.0
C      1  0.3948210000000  0.4822180000000  0.4895280000000 1.0
C      1  0.5022240000000  0.5889490000000  0.4487290000000 1.0
C      1  0.4103650000000  0.5187530000000  0.5422680000000 1.0
C      1  0.5598660000000  0.5747680000000  0.5526600000000 1.0
C      1  0.5129500000000  0.5632170000000  0.5221640000000 1.0
C      1  0.5909450000000  0.4668270000000  0.4597640000000 1.0
C      1  0.5501070000000  0.4298550000000  0.5009810000000 1.0
C      1  0.4757860000000  0.5386790000000  0.4257290000000 1.0
C      1  0.4959310000000  0.5366000000000  0.5524000000000 1.0
C      1  0.4599270000000  0.4913140000000  0.5819390000000 1.0
C      1  0.4302240000000  0.5731970000000  0.4781880000000 1.0
C      1  0.5416450000000  0.5620080000000  0.5262830000000 1.0
C      1  0.5711690000000  0.4468570000000  0.5113880000000 1.0
C      1  0.4182570000000  0.5692140000000  0.4537340000000 1.0
C      1  0.4608340000000  0.4821670000000  0.4152800000000 1.0
C      1  0.4959210000000  0.4110040000000  0.5316280000000 1.0
C      1  0.5461980000000  0.5991550000000  0.5098190000000 1.0
C      1  0.4636740000000  0.5455670000000  0.4847820000000 1.0
C      1  0.5927380000000  0.5141770000000  0.4921100000000 1.0
C      1  0.4398410000000  0.4342000000000  0.5598100000000 1.0
C      1  0.4145910000000  0.4935000000000  0.5571260000000 1.0
C      1  0.4357700000000  0.5683590000000  0.4359860000000 1.0
C      1  0.4367600000000  0.4630330000000  0.4467420000000 1.0
C      1  0.4786410000000  0.5182610000000  0.5416780000000 1.0
C      1  0.4967270000000  0.4706800000000  0.4507650000000 1.0
C      1  0.4331480000000  0.5306880000000  0.5575930000000 1.0
C      1  0.5580280000000  0.4368000000000  0.5575300000000 1.0
C      1  0.5526470000000  0.4765830000000  0.5760440000000 1.0
C      1  0.4542060000000  0.4086740000000  0.4946890000000 1.0
C      1  0.5452300000000  0.4043070000000  0.5156500000000 1.0
C      1  0.4660610000000  0.4355080000000  0.5682830000000 1.0
C      1  0.5168700000000  0.3950340000000  0.5161610000000 1.0
C      1  0.4730960000000  0.5853430000000  0.4458270000000 1.0
C      1  0.5693790000000  0.5423870000000  0.5607070000000 1.0
C      1  0.4934280000000  0.5793600000000  0.5374090000000 1.0
C      1  0.5158380000000  0.5186090000000  0.4545770000000 1.0
C      1  0.4647070000000  0.4663190000000  0.5657700000000 1.0
C      1  0.5762080000000  0.4477350000000  0.4467140000000 1.0
C      1  0.5884470000000  0.5000560000000  0.5389520000000 1.0
C      1  0.4138690000000  0.4654860000000  0.5517180000000 1.0
C      1  0.5441180000000  0.5427980000000  0.4839880000000 1.0
C      1  0.5340950000000  0.4811040000000  0.3993650000000 1.0
C      1  0.5871870000000  0.5384160000000  0.5107340000000 1.0
C      1  0.5090020000000  0.4691700000000  0.4028810000000 1.0
C      1  0.4173180000000  0.4660310000000  0.4991720000000 1.0
C      1  0.4817060000000  0.4344620000000  0.4295920000000 1.0
C      1  0.5114590000000  0.5137650000000  0.4984670000000 1.0
C      1  0.4129800000000  0.5272900000000  0.5112660000000 1.0
C      1  0.5127280000000  0.4556760000000  0.5452490000000 1.0
C      1  0.5375750000000  0.4995670000000  0.5836750000000 1.0
C      1  0.3977200000000  0.5110700000000  0.4893320000000 1.0
C      1  0.4567050000000  0.5001110000000  0.4967120000000 1.0
C      1  0.4878590000000  0.4939670000000  0.4982820000000 1.0
C      1  0.4193300000000  0.4855880000000  0.4430670000000 1.0
C      1  0.4599600000000  0.5632580000000  0.5088060000000 1.0
C      1  0.5454190000000  0.5715550000000  0.5773280000000 1.0
C      1  0.5346820000000  0.4976800000000  0.4201040000000 1.0
C      1  0.4885280000000  0.4714370000000  0.4795610000000 1.0
C      1  0.5792070000000  0.5254770000000  0.4406930000000 1.0
C      1  0.5327780000000  0.5927370000000  0.4849670000000 1.0
C      1  0.4524610000000  0.5235960000000  0.5377100000000 1.0
C      1  0.5061060000000  0.5531580000000  0.6050930000000 1.0
C      1  0.4519720000000  0.5237680000000  0.4381210000000 1.0
C      1  0.4787820000000  0.5976070000000  0.4878910000000 1.0
C      1  0.5225850000000  0.4444000000000  0.4951440000000 1.0
C      1  0.5700710000000  0.4854140000000  0.4584330000000 1.0
C      1  0.4791450000000  0.5630190000000  0.5588520000000 1.0
C      1  0.5460130000000  0.5296830000000  0.5769280000000 1.0
C      1  0.4845830000000  0.5055400000000  0.5897650000000 1.0
C      1  0.5265950000000  0.4895970000000  0.5107500000000 1.0
C      1  0.4674060000000  0.4600890000000  0.4338070000000 1.0
C      1  0.4456350000000  0.5627700000000  0.5540420000000 1.0
C      1  0.4857630000000  0.5200450000000  0.4025090000000 1.0
C      1  0.4766190000000  0.3968870000000  0.5078030000000 1.0
C      1  0.4402780000000  0.4997080000000  0.4273220000000 1.0
C      1  0.5055510000000  0.6004160000000  0.4742000000000 1.0
C      1  0.5289780000000  0.4274370000000  0.4280830000000 1.0
C      1  0.5044540000000  0.4491240000000  0.4715280000000 1.0
C      1  0.5536520000000  0.5413090000000  0.5118980000000 1.0
C      1  0.5668330000000  0.5493900000000  0.4372160000000 1.0
C      1  0.4490400000000  0.4331400000000  0.5105070000000 1.0
C      1  0.4714640000000  0.4489640000000  0.5193800000000 1.0
C      1  0.5000860000000  0.5415340000000  0.4491330000000 1.0
C      1  0.5552820000000  0.5270930000000  0.4225890000000 1.0
C      1  0.4852500000000  0.4916420000000  0.4023250000000 1.0
C      1  0.4192850000000  0.4433480000000  0.5462660000000 1.0
C      1  0.5530560000000  0.4163600000000  0.5396440000000 1.0
C      1  0.5287320000000  0.5201720000000  0.4775320000000 1.0
C      1  0.5597370000000  0.4282700000000  0.4344900000000 1.0
C      1  0.4907700000000  0.5493910000000  0.4769780000000 1.0
C      1  0.5341140000000  0.5537010000000  0.5946270000000 1.0
C      1  0.5093800000000  0.4940280000000  0.5780350000000 1.0
C      1  0.5858110000000  0.5287890000000  0.5425760000000 1.0
C      1  0.5426140000000  0.5533320000000  0.4260430000000 1.0
C      1  0.4576550000000  0.5875380000000  0.4712320000000 1.0
C      1  0.4409130000000  0.5170680000000  0.5150240000000 1.0
C      1  0.5860240000000  0.5080790000000  0.4632930000000 1.0
C      1  0.4478890000000  0.5274350000000  0.4662860000000 1.0
C      1  0.5759340000000  0.4799580000000  0.5564380000000 1.0
C      1  0.4784030000000  0.4135710000000  0.4504210000000 1.0
C      1  0.5014270000000  0.5435480000000  0.5033710000000 1.0
C      1  0.5000900000000  0.3917980000000  0.4919860000000 1.0
C      1  0.5447970000000  0.4905000000000  0.5307410000000 1.0
C      1  0.4869590000000  0.4921730000000  0.5319390000000 1.0
C      1  0.4408250000000  0.4771320000000  0.4872720000000 1.0
C      1  0.5570630000000  0.5970800000000  0.5326300000000 1.0
C      1  0.4526010000000  0.4095810000000  0.4647050000000 1.0
C      1  0.4912490000000  0.4213880000000  0.5603760000000 1.0
C      1  0.4664180000000  0.4709180000000  0.5374920000000 1.0
C      1  0.5117270000000  0.4398120000000  0.5701410000000 1.0
C      1  0.6116540000000  0.5828470000000  0.4962220000000 1.0
C      1  0.5243460000000  0.5311990000000  0.5529970000000 1.0
C      1  0.5076120000000  0.4829500000000  0.5509130000000 1.0
C      1  0.4219340000000  0.4430410000000  0.5171270000000 1.0
C      1  0.4180360000000  0.4451290000000  0.4503240000000 1.0
C      1  0.5378880000000  0.5678410000000  0.4713560000000 1.0
C      1  0.5640620000000  0.4611920000000  0.5370690000000 1.0
C      1  0.5069360000000  0.4425840000000  0.4174080000000 1.0
C      1  0.4847160000000  0.5327370000000  0.6014220000000 1.0
C      1  0.4619130000000  0.5666650000000  0.4259180000000 1.0
C      1  0.4351160000000  0.5048150000000  0.5745050000000 1.0
C      1  0.4831150000000  0.5591900000000  0.5890760000000 1.0
C      1  0.5584120000000  0.4770770000000  0.4816620000000 1.0
C      1  0.5009740000000  0.4011520000000  0.4633780000000 1.0
C      1  0.5157090000000  0.4931310000000  0.4407780000000 1.0
C      1  0.5421070000000  0.5195340000000  0.5330690000000 1.0
C      1  0.5225450000000  0.5652280000000  0.4450890000000 1.0
END
