TITL C-4164244-2836-123 0.69332663942851 125000 -24398.2890241665 0 0 165 (C1) n - 1
REM
REM in /home/nfs/bkarasulu/CARBON/AIRSS/Generating-Clusters/ReaxFF-fromJPCA2015/Units_Real/with-SteepDescent/Only-C1/SD-CG/Try1-3A/FIRE-CG
REM
REM
REM
REM
REM
REM ./C.cell (11c1c37f851c82e70ff6c80c92926a4b)
REM
REM compiler GCC version 9.2.1 20190827 (Red Hat 9.2.1-1)
REM options -cpp -mtune=generic -march=x86-64 -g -O0 -fpre-include=/usr/include/finclude/math-vector-fortran.h
REM seed 1108587785 1331518000 -1893150367 1937174525 -125707392 -797456908 -1974999971 -1982462473 661561537 1685672045 1844621119 -818133333 1363250047 -684882351 521919206 2102512658 1622844065 1441360953 178790812 1345134481 -280382056 295872276 -606731596 949130801 1167579495 -1184910295 237856214 652098706 -1835349505 655819572 359199390 1288242105 -1738139223
REM
CELL 1.54180   50.00000   50.00000   50.00000   90.00000   90.00000   90.00000
LATT -1
SFAC C  
C      1  0.5360490000000  0.4515480000000  0.5903640000000 1.0
C      1  0.4673780000000  0.5175640000000  0.5931750000000 1.0
C      1  0.4889830000000  0.4547920000000  0.4607170000000 1.0
C      1  0.4283020000000  0.5545010000000  0.4726000000000 1.0
C      1  0.4799220000000  0.5668660000000  0.5298120000000 1.0
C      1  0.5922740000000  0.5314530000000  0.4621990000000 1.0
C      1  0.4875910000000  0.4641190000000  0.5518270000000 1.0
C      1  0.4512260000000  0.4950460000000  0.4045940000000 1.0
C      1  0.4968320000000  0.4722790000000  0.3981970000000 1.0
C      1  0.4254780000000  0.4824370000000  0.4135500000000 1.0
C      1  0.6014900000000  0.5035430000000  0.4570450000000 1.0
C      1  0.5329450000000  0.5001700000000  0.4467550000000 1.0
C      1  0.4855690000000  0.5146900000000  0.5544210000000 1.0
C      1  0.5471220000000  0.5393840000000  0.4371500000000 1.0
C      1  0.5546450000000  0.4838190000000  0.5161760000000 1.0
C      1  0.4608330000000  0.4202740000000  0.5277910000000 1.0
C      1  0.4594580000000  0.5986440000000  0.5051480000000 1.0
C      1  0.4548590000000  0.5544100000000  0.5290200000000 1.0
C      1  0.5433380000000  0.5284020000000  0.5133140000000 1.0
C      1  0.4816980000000  0.5675010000000  0.5652210000000 1.0
C      1  0.4539510000000  0.4801040000000  0.5152540000000 1.0
C      1  0.5165090000000  0.5187930000000  0.3923990000000 1.0
C      1  0.5279980000000  0.4719650000000  0.4448700000000 1.0
C      1  0.5317060000000  0.4679340000000  0.4736560000000 1.0
C      1  0.4964020000000  0.4545270000000  0.5194590000000 1.0
C      1  0.4081580000000  0.4843650000000  0.5474430000000 1.0
C      1  0.4242590000000  0.4807980000000  0.5685260000000 1.0
C      1  0.5712330000000  0.4657900000000  0.4654560000000 1.0
C      1  0.5023670000000  0.5049740000000  0.5025440000000 1.0
C      1  0.5296490000000  0.5971620000000  0.5231300000000 1.0
C      1  0.5290070000000  0.4891060000000  0.5603820000000 1.0
C      1  0.5450340000000  0.5079750000000  0.5761910000000 1.0
C      1  0.4792680000000  0.5741150000000  0.4388230000000 1.0
C      1  0.5708000000000  0.5744800000000  0.5173310000000 1.0
C      1  0.5433640000000  0.4873050000000  0.4901060000000 1.0
C      1  0.4189130000000  0.4894060000000  0.4607190000000 1.0
C      1  0.4869620000000  0.5938410000000  0.5180280000000 1.0
C      1  0.5619040000000  0.4208490000000  0.5046370000000 1.0
C      1  0.3913180000000  0.4750150000000  0.5003450000000 1.0
C      1  0.4495290000000  0.5131060000000  0.4502620000000 1.0
C      1  0.5179960000000  0.5704140000000  0.5893390000000 1.0
C      1  0.4911190000000  0.5494200000000  0.5139670000000 1.0
C      1  0.6020400000000  0.5097430000000  0.5061960000000 1.0
C      1  0.4862330000000  0.5371630000000  0.5810390000000 1.0
C      1  0.5117060000000  0.5598080000000  0.4964280000000 1.0
C      1  0.5099870000000  0.4803430000000  0.5170320000000 1.0
C      1  0.5899460000000  0.4637410000000  0.4861920000000 1.0
C      1  0.4801750000000  0.5533680000000  0.4598050000000 1.0
C      1  0.4934630000000  0.4990420000000  0.3874710000000 1.0
C      1  0.5836770000000  0.4919000000000  0.4356730000000 1.0
C      1  0.4327650000000  0.4438080000000  0.4536660000000 1.0
C      1  0.3998830000000  0.4469840000000  0.4988100000000 1.0
C      1  0.4574540000000  0.5459610000000  0.4747640000000 1.0
C      1  0.4682720000000  0.4590830000000  0.5013580000000 1.0
C      1  0.5235570000000  0.4062010000000  0.4281940000000 1.0
C      1  0.5183490000000  0.4082990000000  0.5642750000000 1.0
C      1  0.5109860000000  0.4082470000000  0.4564210000000 1.0
C      1  0.5218110000000  0.4730660000000  0.6053600000000 1.0
C      1  0.4658210000000  0.6039030000000  0.4777970000000 1.0
C      1  0.5892910000000  0.5244940000000  0.5536340000000 1.0
C      1  0.5480010000000  0.4797660000000  0.4105750000000 1.0
C      1  0.4378080000000  0.4574040000000  0.5578250000000 1.0
C      1  0.5003830000000  0.4463990000000  0.4110040000000 1.0
C      1  0.5267890000000  0.5567450000000  0.4255370000000 1.0
C      1  0.4001580000000  0.4960700000000  0.4827950000000 1.0
C      1  0.5408610000000  0.5534120000000  0.5970060000000 1.0
C      1  0.5728360000000  0.5490250000000  0.4469910000000 1.0
C      1  0.4634450000000  0.4988060000000  0.4312270000000 1.0
C      1  0.4789460000000  0.5412340000000  0.4041300000000 1.0
C      1  0.5618870000000  0.4554040000000  0.5773350000000 1.0
C      1  0.5297080000000  0.4327450000000  0.4180110000000 1.0
C      1  0.5711090000000  0.4682410000000  0.4215360000000 1.0
C      1  0.5661650000000  0.5537420000000  0.5823930000000 1.0
C      1  0.4860490000000  0.5973690000000  0.4559820000000 1.0
C      1  0.4558750000000  0.5660400000000  0.5773630000000 1.0
C      1  0.4700890000000  0.4123440000000  0.4720180000000 1.0
C      1  0.4255360000000  0.4550160000000  0.4240800000000 1.0
C      1  0.5229540000000  0.4414140000000  0.5139730000000 1.0
C      1  0.5502480000000  0.5605600000000  0.4816280000000 1.0
C      1  0.5606670000000  0.5184050000000  0.5520390000000 1.0
C      1  0.5807740000000  0.4429750000000  0.5070520000000 1.0
C      1  0.5272680000000  0.3973870000000  0.5005310000000 1.0
C      1  0.4689790000000  0.5152000000000  0.3931920000000 1.0
C      1  0.5853040000000  0.4530810000000  0.5346590000000 1.0
C      1  0.4366440000000  0.4340690000000  0.5398470000000 1.0
C      1  0.4139150000000  0.4334930000000  0.4768600000000 1.0
C      1  0.4917010000000  0.4947640000000  0.4323690000000 1.0
C      1  0.5845300000000  0.5301650000000  0.5821760000000 1.0
C      1  0.4706000000000  0.4711990000000  0.4749310000000 1.0
C      1  0.5051890000000  0.5859840000000  0.5678100000000 1.0
C      1  0.4859970000000  0.5018700000000  0.4769380000000 1.0
C      1  0.5556810000000  0.4435080000000  0.4299640000000 1.0
C      1  0.4940120000000  0.4106270000000  0.5514050000000 1.0
C      1  0.5130870000000  0.5416970000000  0.5949850000000 1.0
C      1  0.5375750000000  0.5530640000000  0.5451650000000 1.0
C      1  0.4882150000000  0.4988690000000  0.6013220000000 1.0
C      1  0.5326530000000  0.4398060000000  0.4826620000000 1.0
C      1  0.4587690000000  0.4259750000000  0.4978230000000 1.0
C      1  0.4275840000000  0.5258570000000  0.4359920000000 1.0
C      1  0.5564680000000  0.5899820000000  0.5346470000000 1.0
C      1  0.5951810000000  0.5340180000000  0.4907340000000 1.0
C      1  0.5331750000000  0.4787750000000  0.5342710000000 1.0
C      1  0.4375540000000  0.5749550000000  0.5415890000000 1.0
C      1  0.5076300000000  0.5982230000000  0.5409910000000 1.0
C      1  0.5130450000000  0.5924140000000  0.4650550000000 1.0
C      1  0.5577330000000  0.4414000000000  0.4589540000000 1.0
C      1  0.5605500000000  0.5101820000000  0.5256530000000 1.0
C      1  0.5550300000000  0.5694500000000  0.5593470000000 1.0
C      1  0.4243880000000  0.5737970000000  0.4449810000000 1.0
C      1  0.5494310000000  0.3984550000000  0.5176450000000 1.0
C      1  0.4191520000000  0.5310760000000  0.5408140000000 1.0
C      1  0.5647640000000  0.4416360000000  0.5515730000000 1.0
C      1  0.4448680000000  0.5278160000000  0.5265220000000 1.0
C      1  0.4821850000000  0.4008650000000  0.5295040000000 1.0
C      1  0.5234300000000  0.5331520000000  0.5330370000000 1.0
C      1  0.4579410000000  0.4766730000000  0.5442740000000 1.0
C      1  0.5349130000000  0.5386560000000  0.4677300000000 1.0
C      1  0.4399960000000  0.5096270000000  0.5779290000000 1.0
C      1  0.4291880000000  0.4176780000000  0.4958090000000 1.0
C      1  0.4356340000000  0.5575190000000  0.4254680000000 1.0
C      1  0.3949540000000  0.4921260000000  0.5239420000000 1.0
C      1  0.4633340000000  0.5625040000000  0.4169650000000 1.0
C      1  0.4603500000000  0.4248390000000  0.4479370000000 1.0
C      1  0.5386720000000  0.4342650000000  0.5374780000000 1.0
C      1  0.4907580000000  0.4503290000000  0.5784570000000 1.0
C      1  0.4074570000000  0.5413900000000  0.5155900000000 1.0
C      1  0.5172990000000  0.5014520000000  0.6000620000000 1.0
C      1  0.4589620000000  0.5028880000000  0.5562460000000 1.0
C      1  0.5070060000000  0.4344700000000  0.4685220000000 1.0
C      1  0.4156160000000  0.5298460000000  0.4619990000000 1.0
C      1  0.6026480000000  0.4904600000000  0.4843480000000 1.0
C      1  0.5931230000000  0.4782750000000  0.5476970000000 1.0
C      1  0.5723600000000  0.5035110000000  0.5875340000000 1.0
C      1  0.5008730000000  0.3922510000000  0.5041290000000 1.0
C      1  0.4995400000000  0.4666660000000  0.4377420000000 1.0
C      1  0.5062200000000  0.5450380000000  0.4716560000000 1.0
C      1  0.5318350000000  0.5143600000000  0.4902150000000 1.0
C      1  0.4230400000000  0.5339150000000  0.5691620000000 1.0
C      1  0.4958900000000  0.5248260000000  0.5251820000000 1.0
C      1  0.4410210000000  0.4699490000000  0.4638740000000 1.0
C      1  0.5587850000000  0.5737470000000  0.4569580000000 1.0
C      1  0.5616070000000  0.4951600000000  0.4541960000000 1.0
C      1  0.6004100000000  0.5039330000000  0.5355730000000 1.0
C      1  0.5801010000000  0.4785090000000  0.5744370000000 1.0
C      1  0.5047880000000  0.5094740000000  0.4536770000000 1.0
C      1  0.4162180000000  0.4305460000000  0.5189470000000 1.0
C      1  0.4936620000000  0.3941260000000  0.4759750000000 1.0
C      1  0.5145560000000  0.4332910000000  0.5806590000000 1.0
C      1  0.4105230000000  0.5120950000000  0.5051900000000 1.0
C      1  0.4185760000000  0.5641120000000  0.5015230000000 1.0
C      1  0.5761450000000  0.5572960000000  0.4968550000000 1.0
C      1  0.4136790000000  0.5002800000000  0.4337180000000 1.0
C      1  0.5080490000000  0.5431040000000  0.4068380000000 1.0
C      1  0.5425470000000  0.4069990000000  0.5466290000000 1.0
C      1  0.5007090000000  0.4897520000000  0.5585570000000 1.0
C      1  0.4444190000000  0.5062440000000  0.5057310000000 1.0
C      1  0.5309700000000  0.5786280000000  0.4462090000000 1.0
C      1  0.4499380000000  0.4479980000000  0.4149600000000 1.0
C      1  0.4923890000000  0.4685910000000  0.6012810000000 1.0
C      1  0.5346720000000  0.4999730000000  0.4006690000000 1.0
C      1  0.4327970000000  0.5855160000000  0.5148660000000 1.0
C      1  0.4595350000000  0.5173980000000  0.4773710000000 1.0
C      1  0.4718190000000  0.4333780000000  0.4223120000000 1.0
C      1  0.5137350000000  0.5896760000000  0.4972220000000 1.0
C      1  0.4293140000000  0.5626940000000  0.5691910000000 1.0
END
