TITL C-4164242-3624-159 -1.33215652740219 125000 -838.038596847361 0 0 7 (C2v) n - 1
REM
REM in /home/nfs/bkarasulu/CARBON/AIRSS/Generating-Clusters/ReaxFF-fromJPCA2015/Units_Real/with-SteepDescent/Only-C1/SD-CG/Try1-3A/FIRE-CG
REM
REM
REM
REM
REM
REM ./C.cell (11c1c37f851c82e70ff6c80c92926a4b)
REM
REM compiler GCC version 9.2.1 20190827 (Red Hat 9.2.1-1)
REM options -cpp -mtune=generic -march=x86-64 -g -O0 -fpre-include=/usr/include/finclude/math-vector-fortran.h
REM seed 689779909 1243296927 1825444160 -434664558 -662346942 -1049553781 1508026138 1284500565 -1773737823 -590931170 -353047539 1888804783 1896716009 401240863 -227460926 1346930437 -1891103969 49912146 623277664 1784906469 1749904395 -1425414042 490399004 1914434440 1250395310 698229502 -448294467 1557563505 604018829 -986294230 1822817672 1453312290 1203504890
REM
CELL 1.54180   50.00000   50.00000   50.00000   90.00000   90.00000   90.00000
LATT -1
SFAC C  
C      1  0.5234620000000  0.4639160000000  0.4624230000000 1.0
C      1  0.4942130000000  0.5107360000000  0.5221270000000 1.0
C      1  0.4738920000000  0.5418590000000  0.5360730000000 1.0
C      1  0.5086800000000  0.4790900000000  0.4432330000000 1.0
C      1  0.5019670000000  0.4976350000000  0.5023360000000 1.0
C      1  0.5097210000000  0.4845350000000  0.4825440000000 1.0
C      1  0.4880650000000  0.5222290000000  0.5512630000000 1.0
END
