TITL C-4164236-1577-163 4.1665882268158 125000 -9412.44536575908 0 0 65 (C1) n - 1
REM
REM in /home/nfs/bkarasulu/CARBON/AIRSS/Generating-Clusters/ReaxFF-fromJPCA2015/Units_Real/with-SteepDescent/Only-C1/SD-CG/Try1-3A/FIRE-CG
REM
REM
REM
REM
REM
REM ./C.cell (11c1c37f851c82e70ff6c80c92926a4b)
REM
REM compiler GCC version 9.2.1 20190827 (Red Hat 9.2.1-1)
REM options -cpp -mtune=generic -march=x86-64 -g -O0 -fpre-include=/usr/include/finclude/math-vector-fortran.h
REM seed 151233493 502064349 901843818 671118875 1367600208 -654934492 -487216834 1751822691 -819111065 1547009037 275278737 -1075615979 -752824956 -704979314 59279379 -2002964762 -1895379512 1449829333 1667449315 -871126231 2107555695 -1194727015 1049068783 1423520369 -1574343545 -846018645 -1046833029 -1366741524 1362821316 -662245173 -885694126 -234701567 -1609234652
REM
CELL 1.54180   50.00000   50.00000   50.00000   90.00000   90.00000   90.00000
LATT -1
SFAC C  
C      1  0.5048960000000  0.4250020000000  0.4833310000000 1.0
C      1  0.5654240000000  0.5231630000000  0.4506610000000 1.0
C      1  0.5163220000000  0.5021440000000  0.5510050000000 1.0
C      1  0.5513910000000  0.5461620000000  0.5107480000000 1.0
C      1  0.5416330000000  0.5572460000000  0.4815770000000 1.0
C      1  0.5598850000000  0.4787380000000  0.5468820000000 1.0
C      1  0.5190260000000  0.4856050000000  0.5776840000000 1.0
C      1  0.4536950000000  0.4846210000000  0.4394060000000 1.0
C      1  0.4763830000000  0.4726530000000  0.5347220000000 1.0
C      1  0.5357060000000  0.4831470000000  0.4415950000000 1.0
C      1  0.4598640000000  0.4406860000000  0.5004750000000 1.0
C      1  0.4989510000000  0.4319790000000  0.5334030000000 1.0
C      1  0.4997230000000  0.5507630000000  0.4553780000000 1.0
C      1  0.4886430000000  0.5358560000000  0.4346980000000 1.0
C      1  0.5706670000000  0.4934440000000  0.5223460000000 1.0
C      1  0.4165040000000  0.4894390000000  0.5249610000000 1.0
C      1  0.4564050000000  0.4623240000000  0.4578640000000 1.0
C      1  0.4772960000000  0.4756180000000  0.5668390000000 1.0
C      1  0.5098540000000  0.5187340000000  0.5003320000000 1.0
C      1  0.4359990000000  0.4872860000000  0.5002970000000 1.0
C      1  0.4643370000000  0.5136480000000  0.4446460000000 1.0
C      1  0.5577630000000  0.4536320000000  0.4598670000000 1.0
C      1  0.5113740000000  0.4997890000000  0.4398390000000 1.0
C      1  0.4136980000000  0.5184840000000  0.5291190000000 1.0
C      1  0.5639670000000  0.5491020000000  0.4632600000000 1.0
C      1  0.5422430000000  0.5358550000000  0.4611140000000 1.0
C      1  0.4788250000000  0.5269660000000  0.5738320000000 1.0
C      1  0.5394420000000  0.4769400000000  0.4946860000000 1.0
C      1  0.5159380000000  0.4436700000000  0.5555630000000 1.0
C      1  0.4626450000000  0.5681450000000  0.4892180000000 1.0
C      1  0.4451780000000  0.4613250000000  0.4858120000000 1.0
C      1  0.5142630000000  0.4359270000000  0.5090590000000 1.0
C      1  0.5104500000000  0.5650650000000  0.4756500000000 1.0
C      1  0.4741260000000  0.5026070000000  0.5736620000000 1.0
C      1  0.4491960000000  0.5280750000000  0.4663860000000 1.0
C      1  0.5434230000000  0.4943620000000  0.5651110000000 1.0
C      1  0.5088480000000  0.5211820000000  0.4182540000000 1.0
C      1  0.5075630000000  0.4391450000000  0.4574830000000 1.0
C      1  0.5589470000000  0.5176450000000  0.5106410000000 1.0
C      1  0.5087640000000  0.5547390000000  0.5436490000000 1.0
C      1  0.5022570000000  0.4623040000000  0.5744650000000 1.0
C      1  0.4381220000000  0.5658790000000  0.5074220000000 1.0
C      1  0.4732550000000  0.4434250000000  0.5262420000000 1.0
C      1  0.4649080000000  0.5413360000000  0.4838330000000 1.0
C      1  0.4852340000000  0.5312970000000  0.5045290000000 1.0
C      1  0.4323980000000  0.5178430000000  0.4872210000000 1.0
C      1  0.4781730000000  0.4402140000000  0.4550640000000 1.0
C      1  0.4805930000000  0.4931290000000  0.4861740000000 1.0
C      1  0.4251910000000  0.5360620000000  0.5072950000000 1.0
C      1  0.4301000000000  0.5847670000000  0.5235580000000 1.0
C      1  0.4909280000000  0.5569650000000  0.5201010000000 1.0
C      1  0.4881540000000  0.5001550000000  0.4594510000000 1.0
C      1  0.5345930000000  0.5067460000000  0.4967050000000 1.0
C      1  0.5325660000000  0.4536860000000  0.4479580000000 1.0
C      1  0.5049460000000  0.4819280000000  0.5312050000000 1.0
C      1  0.5316170000000  0.5515200000000  0.5285900000000 1.0
C      1  0.5611410000000  0.4941780000000  0.4514710000000 1.0
C      1  0.5742730000000  0.4744350000000  0.4704260000000 1.0
C      1  0.5016320000000  0.5302810000000  0.5600800000000 1.0
C      1  0.5683290000000  0.4748140000000  0.5001300000000 1.0
C      1  0.4902660000000  0.5734240000000  0.4958270000000 1.0
C      1  0.4649550000000  0.4899610000000  0.5094080000000 1.0
C      1  0.4751750000000  0.4251360000000  0.4799670000000 1.0
C      1  0.5428710000000  0.4544670000000  0.5496210000000 1.0
C      1  0.5190690000000  0.4651360000000  0.5122050000000 1.0
END
