TITL C-4164240-4114-444 -0.0544199675198098 125000 -12360.3153016713 0 0 83 (C1) n - 1
REM
REM in /home/nfs/bkarasulu/CARBON/AIRSS/Generating-Clusters/ReaxFF-fromJPCA2015/Units_Real/with-SteepDescent/Only-C1/SD-CG/Try1-3A/FIRE-CG
REM
REM
REM
REM
REM
REM ./C.cell (11c1c37f851c82e70ff6c80c92926a4b)
REM
REM compiler GCC version 9.2.1 20190827 (Red Hat 9.2.1-1)
REM options -cpp -mtune=generic -march=x86-64 -g -O0 -fpre-include=/usr/include/finclude/math-vector-fortran.h
REM seed -272808555 -2047727 -1357153396 1394333103 -256660821 1524090473 -1934014755 571068125 899498936 -477287876 -1100237445 1918536193 -1512129046 1206289564 291333514 917673618 1442544377 103250735 1733632773 1793051204 -1537256625 -1407691313 -1860632243 -62945367 1100426894 -430423395 1231202155 -439676758 1245814049 -1172671411 2049730497 -1979366440 1772137741
REM
CELL 1.54180   50.00000   50.00000   50.00000   90.00000   90.00000   90.00000
LATT -1
SFAC C  
C      1  0.5800560000000  0.4417030000000  0.4594970000000 1.0
C      1  0.4421550000000  0.4914870000000  0.5281010000000 1.0
C      1  0.4974470000000  0.5636260000000  0.5429490000000 1.0
C      1  0.5499650000000  0.4737790000000  0.5246180000000 1.0
C      1  0.4976990000000  0.4711250000000  0.5774450000000 1.0
C      1  0.5368520000000  0.4293910000000  0.5212450000000 1.0
C      1  0.4844040000000  0.5331250000000  0.4997480000000 1.0
C      1  0.4737830000000  0.4764580000000  0.4881430000000 1.0
C      1  0.4584930000000  0.5586350000000  0.4713880000000 1.0
C      1  0.4243700000000  0.5371490000000  0.5037220000000 1.0
C      1  0.5097530000000  0.5442450000000  0.5864590000000 1.0
C      1  0.5521830000000  0.4468120000000  0.5383790000000 1.0
C      1  0.4704450000000  0.5319560000000  0.4305970000000 1.0
C      1  0.5778290000000  0.4642420000000  0.4763970000000 1.0
C      1  0.4779600000000  0.5636500000000  0.4972250000000 1.0
C      1  0.4132890000000  0.4700690000000  0.4875390000000 1.0
C      1  0.4359720000000  0.5243970000000  0.5268600000000 1.0
C      1  0.5342460000000  0.4403150000000  0.4943260000000 1.0
C      1  0.4941420000000  0.4572780000000  0.4956660000000 1.0
C      1  0.4367410000000  0.5128400000000  0.4619530000000 1.0
C      1  0.4483670000000  0.4789010000000  0.5562760000000 1.0
C      1  0.5658380000000  0.4485050000000  0.4402480000000 1.0
C      1  0.5407190000000  0.5166480000000  0.4905170000000 1.0
C      1  0.4378720000000  0.5389400000000  0.4750790000000 1.0
C      1  0.5220510000000  0.5174790000000  0.5904880000000 1.0
C      1  0.4987460000000  0.5673070000000  0.4581920000000 1.0
C      1  0.4251680000000  0.4687970000000  0.5145290000000 1.0
C      1  0.5815700000000  0.4900810000000  0.4632410000000 1.0
C      1  0.5653550000000  0.5354060000000  0.4828690000000 1.0
C      1  0.5164100000000  0.4922960000000  0.4560340000000 1.0
C      1  0.4574910000000  0.4341400000000  0.5402120000000 1.0
C      1  0.4941310000000  0.5155020000000  0.5458730000000 1.0
C      1  0.5475560000000  0.5173130000000  0.5432470000000 1.0
C      1  0.5821880000000  0.5060260000000  0.5085470000000 1.0
C      1  0.5177410000000  0.4918880000000  0.5782760000000 1.0
C      1  0.4613960000000  0.5048510000000  0.4447420000000 1.0
C      1  0.5224310000000  0.4782990000000  0.5301750000000 1.0
C      1  0.4859120000000  0.4419130000000  0.5405760000000 1.0
C      1  0.4141480000000  0.4975980000000  0.4732520000000 1.0
C      1  0.5043440000000  0.4457200000000  0.5630880000000 1.0
C      1  0.5490500000000  0.4665970000000  0.4916070000000 1.0
C      1  0.4539660000000  0.5433010000000  0.5394460000000 1.0
C      1  0.4695200000000  0.4783580000000  0.4300900000000 1.0
C      1  0.5242210000000  0.5614170000000  0.5322740000000 1.0
C      1  0.4941040000000  0.4781430000000  0.4153160000000 1.0
C      1  0.5121020000000  0.5392320000000  0.4614980000000 1.0
C      1  0.4706930000000  0.4844360000000  0.5735030000000 1.0
C      1  0.5245090000000  0.5398900000000  0.4884920000000 1.0
C      1  0.4848890000000  0.4967120000000  0.4655410000000 1.0
C      1  0.5344310000000  0.4906090000000  0.4801230000000 1.0
C      1  0.5041990000000  0.5744100000000  0.4855130000000 1.0
C      1  0.4663970000000  0.5383770000000  0.5661480000000 1.0
C      1  0.5652790000000  0.4909770000000  0.4385300000000 1.0
C      1  0.4594510000000  0.4529560000000  0.4705620000000 1.0
C      1  0.4324970000000  0.4441530000000  0.5277220000000 1.0
C      1  0.5671100000000  0.4997520000000  0.5315600000000 1.0
C      1  0.5519820000000  0.5181400000000  0.4308360000000 1.0
C      1  0.4656820000000  0.4906530000000  0.5119260000000 1.0
C      1  0.5869450000000  0.5123840000000  0.4819260000000 1.0
C      1  0.4338310000000  0.4557640000000  0.4763360000000 1.0
C      1  0.4802130000000  0.5136750000000  0.5203990000000 1.0
C      1  0.4729580000000  0.5620120000000  0.5270150000000 1.0
C      1  0.5199870000000  0.5007270000000  0.5473680000000 1.0
C      1  0.5490340000000  0.4682980000000  0.4296990000000 1.0
C      1  0.5426570000000  0.5454820000000  0.5484660000000 1.0
C      1  0.4750070000000  0.4534810000000  0.4451030000000 1.0
C      1  0.4104260000000  0.5146260000000  0.4950910000000 1.0
C      1  0.5613930000000  0.5612330000000  0.4920950000000 1.0
C      1  0.5367330000000  0.5403430000000  0.5773770000000 1.0
C      1  0.5095740000000  0.4410090000000  0.4780520000000 1.0
C      1  0.4902150000000  0.5228900000000  0.4749750000000 1.0
C      1  0.5291480000000  0.4352970000000  0.5509270000000 1.0
C      1  0.4916500000000  0.5047710000000  0.4058710000000 1.0
C      1  0.4782910000000  0.5122900000000  0.5695530000000 1.0
C      1  0.5179960000000  0.4673250000000  0.4339790000000 1.0
C      1  0.5253840000000  0.5178340000000  0.4421380000000 1.0
C      1  0.5032340000000  0.4470700000000  0.4499260000000 1.0
C      1  0.4851330000000  0.5272320000000  0.4084010000000 1.0
C      1  0.5291460000000  0.5658850000000  0.5023170000000 1.0
C      1  0.4396140000000  0.4514240000000  0.5556560000000 1.0
C      1  0.5007490000000  0.4604230000000  0.5235300000000 1.0
C      1  0.4731570000000  0.5575910000000  0.4471750000000 1.0
C      1  0.4902280000000  0.5529300000000  0.5682220000000 1.0
END
