TITL C-4164237-1827-433 83.3327123088201 125000 -28732.1711145541 0 0 195 (C1) n - 1
REM
REM in /home/nfs/bkarasulu/CARBON/AIRSS/Generating-Clusters/ReaxFF-fromJPCA2015/Units_Real/with-SteepDescent/Only-C1/SD-CG/Try1-3A/FIRE-CG
REM
REM
REM
REM
REM
REM ./C.cell (11c1c37f851c82e70ff6c80c92926a4b)
REM
REM compiler GCC version 9.2.1 20190827 (Red Hat 9.2.1-1)
REM options -cpp -mtune=generic -march=x86-64 -g -O0 -fpre-include=/usr/include/finclude/math-vector-fortran.h
REM seed -1014547995 -661314776 -2021504398 -1676486251 -1975707833 34627524 1160256601 2094405390 -568290218 2090724317 -372222136 -1078067615 650150375 755418605 1777400162 -918988736 -2035274594 -24641617 1819468946 1548038540 -1111778445 89351941 -1239094818 -2101234285 411391090 2027255792 -966701771 1160000348 1800572579 -1036427331 -1666290291 -1870343430 651279209
REM
CELL 1.54180   50.00000   50.00000   50.00000   90.00000   90.00000   90.00000
LATT -1
SFAC C  
C      1  0.5671250000000  0.5392980000000  0.4097580000000 1.0
C      1  0.4249770000000  0.4716910000000  0.5674540000000 1.0
C      1  0.4449510000000  0.4162040000000  0.5094650000000 1.0
C      1  0.4906260000000  0.4438690000000  0.4786740000000 1.0
C      1  0.4384140000000  0.4862040000000  0.5454720000000 1.0
C      1  0.4777480000000  0.5826650000000  0.5081250000000 1.0
C      1  0.5211180000000  0.5772920000000  0.5066840000000 1.0
C      1  0.4387570000000  0.4353990000000  0.4434290000000 1.0
C      1  0.5351210000000  0.5987190000000  0.4906710000000 1.0
C      1  0.5891870000000  0.4705580000000  0.4191540000000 1.0
C      1  0.4887590000000  0.4560990000000  0.5046490000000 1.0
C      1  0.5567760000000  0.5331670000000  0.4511620000000 1.0
C      1  0.5364950000000  0.4934900000000  0.5747450000000 1.0
C      1  0.4828600000000  0.5346670000000  0.5225990000000 1.0
C      1  0.4930200000000  0.4908650000000  0.6125990000000 1.0
C      1  0.4508860000000  0.4700720000000  0.4739800000000 1.0
C      1  0.5885550000000  0.4025200000000  0.5068210000000 1.0
C      1  0.4554510000000  0.4029980000000  0.4795640000000 1.0
C      1  0.5484960000000  0.3984810000000  0.4767730000000 1.0
C      1  0.4867520000000  0.5310610000000  0.4320160000000 1.0
C      1  0.4763500000000  0.5864940000000  0.4588330000000 1.0
C      1  0.5424070000000  0.5419190000000  0.3972180000000 1.0
C      1  0.5232980000000  0.6099810000000  0.5583380000000 1.0
C      1  0.5871230000000  0.4326200000000  0.5022380000000 1.0
C      1  0.5680210000000  0.5458980000000  0.5495590000000 1.0
C      1  0.4599110000000  0.5412430000000  0.4748380000000 1.0
C      1  0.5924560000000  0.4437260000000  0.4732390000000 1.0
C      1  0.6135660000000  0.4506360000000  0.5112120000000 1.0
C      1  0.5303580000000  0.4149890000000  0.5637490000000 1.0
C      1  0.3868190000000  0.5072130000000  0.5238200000000 1.0
C      1  0.5392290000000  0.4785320000000  0.5502280000000 1.0
C      1  0.4806590000000  0.5223670000000  0.3824310000000 1.0
C      1  0.5381480000000  0.4504980000000  0.4207380000000 1.0
C      1  0.5804530000000  0.4732060000000  0.5849930000000 1.0
C      1  0.4179070000000  0.5107200000000  0.4508780000000 1.0
C      1  0.4998450000000  0.5717690000000  0.4078630000000 1.0
C      1  0.4821500000000  0.5451990000000  0.4052810000000 1.0
C      1  0.6081070000000  0.5369860000000  0.5655190000000 1.0
C      1  0.5783660000000  0.4926510000000  0.4268930000000 1.0
C      1  0.6009980000000  0.5523210000000  0.4920230000000 1.0
C      1  0.4757470000000  0.5047990000000  0.4339080000000 1.0
C      1  0.4934480000000  0.5642680000000  0.4699230000000 1.0
C      1  0.5359190000000  0.5127160000000  0.4039320000000 1.0
C      1  0.4109520000000  0.5234990000000  0.5679370000000 1.0
C      1  0.5456450000000  0.4438020000000  0.5918610000000 1.0
C      1  0.5819570000000  0.5264460000000  0.4299300000000 1.0
C      1  0.5385490000000  0.5589380000000  0.4933700000000 1.0
C      1  0.4989970000000  0.3923350000000  0.5061440000000 1.0
C      1  0.4276080000000  0.5828360000000  0.4891140000000 1.0
C      1  0.4787560000000  0.3828880000000  0.4891060000000 1.0
C      1  0.4941790000000  0.5203860000000  0.6108860000000 1.0
C      1  0.5563150000000  0.4363400000000  0.5659130000000 1.0
C      1  0.5500140000000  0.5323030000000  0.5681950000000 1.0
C      1  0.4960780000000  0.6095250000000  0.5682770000000 1.0
C      1  0.5557780000000  0.4132020000000  0.4527610000000 1.0
C      1  0.5317180000000  0.4308030000000  0.5148280000000 1.0
C      1  0.4961410000000  0.4957570000000  0.3851880000000 1.0
C      1  0.4685860000000  0.4209230000000  0.5417010000000 1.0
C      1  0.3846590000000  0.4912580000000  0.4784630000000 1.0
C      1  0.4824500000000  0.4121470000000  0.4316020000000 1.0
C      1  0.4487320000000  0.4074590000000  0.5307820000000 1.0
C      1  0.5019540000000  0.5407980000000  0.4546810000000 1.0
C      1  0.6191990000000  0.5435100000000  0.5380400000000 1.0
C      1  0.5241190000000  0.5263270000000  0.6160750000000 1.0
C      1  0.4286230000000  0.5104420000000  0.4243230000000 1.0
C      1  0.5180230000000  0.4337960000000  0.4754730000000 1.0
C      1  0.4314890000000  0.5338270000000  0.4091000000000 1.0
C      1  0.5620550000000  0.5735940000000  0.5432110000000 1.0
C      1  0.4529710000000  0.4842000000000  0.3921940000000 1.0
C      1  0.5384390000000  0.5499160000000  0.6040870000000 1.0
C      1  0.4044120000000  0.5640250000000  0.4997250000000 1.0
C      1  0.4784500000000  0.5535010000000  0.4952600000000 1.0
C      1  0.4894410000000  0.4007170000000  0.5345390000000 1.0
C      1  0.4470290000000  0.4498780000000  0.5767990000000 1.0
C      1  0.4955010000000  0.5306850000000  0.5793860000000 1.0
C      1  0.5205280000000  0.4506390000000  0.6074860000000 1.0
C      1  0.4678450000000  0.5070800000000  0.5209990000000 1.0
C      1  0.5387760000000  0.5316840000000  0.4947770000000 1.0
C      1  0.4281790000000  0.4372980000000  0.5111600000000 1.0
C      1  0.5735680000000  0.4981860000000  0.5083630000000 1.0
C      1  0.4344880000000  0.5599800000000  0.4188050000000 1.0
C      1  0.4248730000000  0.5017030000000  0.5809890000000 1.0
C      1  0.4402540000000  0.5898090000000  0.5385060000000 1.0
C      1  0.5129440000000  0.5213140000000  0.4756530000000 1.0
C      1  0.4554510000000  0.5091450000000  0.3744420000000 1.0
C      1  0.4979080000000  0.5616590000000  0.5829010000000 1.0
C      1  0.3963510000000  0.4472600000000  0.4642770000000 1.0
C      1  0.5180400000000  0.5674290000000  0.5337120000000 1.0
C      1  0.3841850000000  0.4575000000000  0.5129370000000 1.0
C      1  0.5468900000000  0.5654190000000  0.4600190000000 1.0
C      1  0.3843510000000  0.4789210000000  0.5325210000000 1.0
C      1  0.4862190000000  0.4318410000000  0.4081290000000 1.0
C      1  0.4141560000000  0.4240880000000  0.4591580000000 1.0
C      1  0.4392580000000  0.4626950000000  0.4995720000000 1.0
C      1  0.4853320000000  0.4582650000000  0.4224150000000 1.0
C      1  0.4608580000000  0.4183020000000  0.4510040000000 1.0
C      1  0.4668360000000  0.4517220000000  0.5974230000000 1.0
C      1  0.4792320000000  0.4749240000000  0.3971400000000 1.0
C      1  0.5280680000000  0.4743790000000  0.4893340000000 1.0
C      1  0.4656030000000  0.5449390000000  0.5446680000000 1.0
C      1  0.4758940000000  0.4617820000000  0.4601680000000 1.0
C      1  0.5108360000000  0.6083750000000  0.4816320000000 1.0
C      1  0.5975110000000  0.4903960000000  0.5471360000000 1.0
C      1  0.5237380000000  0.4097330000000  0.4920090000000 1.0
C      1  0.5240230000000  0.4898940000000  0.3890990000000 1.0
C      1  0.5183730000000  0.4783300000000  0.6186180000000 1.0
C      1  0.6002440000000  0.4713320000000  0.4770400000000 1.0
C      1  0.5339600000000  0.5802540000000  0.5568190000000 1.0
C      1  0.5293540000000  0.4595890000000  0.3925300000000 1.0
C      1  0.5600560000000  0.4553670000000  0.5433930000000 1.0
C      1  0.5602590000000  0.5872090000000  0.4747630000000 1.0
C      1  0.5127560000000  0.4651380000000  0.4304480000000 1.0
C      1  0.5573890000000  0.4434810000000  0.5117330000000 1.0
C      1  0.5420590000000  0.4524920000000  0.4819350000000 1.0
C      1  0.4283580000000  0.4033650000000  0.4702670000000 1.0
C      1  0.4852510000000  0.5046830000000  0.4806550000000 1.0
C      1  0.6139750000000  0.4775390000000  0.5018580000000 1.0
C      1  0.4133900000000  0.5541580000000  0.5709390000000 1.0
C      1  0.3932290000000  0.5414840000000  0.4850690000000 1.0
C      1  0.4662980000000  0.4463610000000  0.5555050000000 1.0
C      1  0.4817160000000  0.5824890000000  0.5714850000000 1.0
C      1  0.4953740000000  0.4382130000000  0.5975750000000 1.0
C      1  0.5643980000000  0.5431160000000  0.5910220000000 1.0
C      1  0.4728550000000  0.4804960000000  0.5937600000000 1.0
C      1  0.4493490000000  0.5039220000000  0.5976980000000 1.0
C      1  0.5621980000000  0.5210990000000  0.4762270000000 1.0
C      1  0.5334290000000  0.5237390000000  0.5219730000000 1.0
C      1  0.5255240000000  0.5677190000000  0.5856090000000 1.0
C      1  0.4817380000000  0.4713910000000  0.5600740000000 1.0
C      1  0.4226130000000  0.5755640000000  0.5539220000000 1.0
C      1  0.3973320000000  0.4920930000000  0.4534000000000 1.0
C      1  0.4844290000000  0.4886290000000  0.5061020000000 1.0
C      1  0.4669000000000  0.6084510000000  0.5020930000000 1.0
C      1  0.3986490000000  0.5272910000000  0.5410740000000 1.0
C      1  0.5497490000000  0.4994940000000  0.5247700000000 1.0
C      1  0.5050850000000  0.4935920000000  0.4346700000000 1.0
C      1  0.5904160000000  0.4973930000000  0.5919600000000 1.0
C      1  0.5369280000000  0.5006290000000  0.6166790000000 1.0
C      1  0.4035140000000  0.4427960000000  0.5280600000000 1.0
C      1  0.6077090000000  0.5325420000000  0.5135630000000 1.0
C      1  0.5710280000000  0.4506350000000  0.4271920000000 1.0
C      1  0.4333310000000  0.5439630000000  0.4806330000000 1.0
C      1  0.3853830000000  0.5149660000000  0.4956970000000 1.0
C      1  0.4646920000000  0.5144920000000  0.4642790000000 1.0
C      1  0.5285810000000  0.5760990000000  0.4376450000000 1.0
C      1  0.5217090000000  0.4923880000000  0.4723150000000 1.0
C      1  0.5807450000000  0.5760340000000  0.4929370000000 1.0
C      1  0.5574500000000  0.4715700000000  0.4642020000000 1.0
C      1  0.3855030000000  0.4632400000000  0.4856730000000 1.0
C      1  0.5608480000000  0.4912280000000  0.5953780000000 1.0
C      1  0.5744460000000  0.4910120000000  0.4796170000000 1.0
C      1  0.6061610000000  0.5457590000000  0.4670770000000 1.0
C      1  0.4537220000000  0.5482850000000  0.3998640000000 1.0
C      1  0.5706500000000  0.3949870000000  0.4942290000000 1.0
C      1  0.4464080000000  0.4870730000000  0.4215470000000 1.0
C      1  0.4313020000000  0.5342050000000  0.5073240000000 1.0
C      1  0.5352150000000  0.4207610000000  0.4328860000000 1.0
C      1  0.5350430000000  0.5098250000000  0.4333780000000 1.0
C      1  0.5619640000000  0.5731950000000  0.5142380000000 1.0
C      1  0.4059280000000  0.4662640000000  0.4446850000000 1.0
C      1  0.5121310000000  0.5386740000000  0.5350930000000 1.0
C      1  0.5098970000000  0.4117330000000  0.4348140000000 1.0
C      1  0.4022540000000  0.4626140000000  0.5493560000000 1.0
C      1  0.4413840000000  0.4980230000000  0.4727800000000 1.0
C      1  0.4961120000000  0.4855560000000  0.4620960000000 1.0
C      1  0.4632520000000  0.5740530000000  0.5505290000000 1.0
C      1  0.5524790000000  0.4870250000000  0.4401360000000 1.0
C      1  0.4322310000000  0.4838430000000  0.5177420000000 1.0
C      1  0.5001720000000  0.5844030000000  0.4340460000000 1.0
C      1  0.4115340000000  0.5473220000000  0.5229230000000 1.0
C      1  0.5071360000000  0.4934660000000  0.5241260000000 1.0
C      1  0.5078680000000  0.4702480000000  0.5440830000000 1.0
C      1  0.5086950000000  0.4386580000000  0.3895530000000 1.0
C      1  0.4391470000000  0.5995060000000  0.5098270000000 1.0
C      1  0.5301220000000  0.4869630000000  0.5095990000000 1.0
C      1  0.4656120000000  0.4971850000000  0.5498810000000 1.0
C      1  0.4434720000000  0.5809210000000  0.4643940000000 1.0
C      1  0.5284860000000  0.5659790000000  0.4091560000000 1.0
C      1  0.5839820000000  0.4665290000000  0.5576270000000 1.0
C      1  0.5150980000000  0.4027290000000  0.5439190000000 1.0
C      1  0.4111640000000  0.5411450000000  0.4606690000000 1.0
C      1  0.5081000000000  0.4469810000000  0.5227050000000 1.0
C      1  0.6107580000000  0.5393360000000  0.4408770000000 1.0
C      1  0.5074570000000  0.4228690000000  0.5783840000000 1.0
C      1  0.4717380000000  0.5242030000000  0.5632370000000 1.0
C      1  0.6035860000000  0.5079960000000  0.5685180000000 1.0
C      1  0.5849190000000  0.5541560000000  0.5723000000000 1.0
C      1  0.4832540000000  0.6104330000000  0.4757910000000 1.0
C      1  0.5996130000000  0.5011090000000  0.5195340000000 1.0
C      1  0.4321320000000  0.4621270000000  0.4333520000000 1.0
C      1  0.4417820000000  0.5071250000000  0.5052100000000 1.0
C      1  0.5770500000000  0.4336560000000  0.4506020000000 1.0
C      1  0.4608710000000  0.5247890000000  0.6120000000000 1.0
C      1  0.4293890000000  0.5639140000000  0.4470300000000 1.0
C      1  0.5237850000000  0.5188190000000  0.5672000000000 1.0
END
