TITL C-4164237-1827-5 1.62020741830136 125000 -2710.99098058537 0 0 20 (C1) n - 1
REM
REM in /home/nfs/bkarasulu/CARBON/AIRSS/Generating-Clusters/ReaxFF-fromJPCA2015/Units_Real/with-SteepDescent/Only-C1/SD-CG/Try1-3A/FIRE-CG
REM
REM
REM
REM
REM
REM ./C.cell (11c1c37f851c82e70ff6c80c92926a4b)
REM
REM compiler GCC version 9.2.1 20190827 (Red Hat 9.2.1-1)
REM options -cpp -mtune=generic -march=x86-64 -g -O0 -fpre-include=/usr/include/finclude/math-vector-fortran.h
REM seed 2086290797 -1168971639 235728714 -35342480 1405277615 -1501006403 691116461 -1027680579 -830876955 1005241018 -99286909 1197160251 730002712 -531839416 -236615608 -1019039178 -10946475 40875773 -186451053 -2137035813 -1773377459 344095371 -350758953 265407031 -921963900 -200554153 1171200933 1406411729 400720240 1442470197 2138603084 1912516011 655948787
REM
CELL 1.54180   50.00000   50.00000   50.00000   90.00000   90.00000   90.00000
LATT -1
SFAC C  
C      1  0.5337690000000  0.4906630000000  0.4740070000000 1.0
C      1  0.4508200000000  0.5712260000000  0.4976930000000 1.0
C      1  0.4685010000000  0.5529670000000  0.5021320000000 1.0
C      1  0.4710560000000  0.4950360000000  0.5170270000000 1.0
C      1  0.5163830000000  0.4972300000000  0.4981450000000 1.0
C      1  0.4915140000000  0.4800010000000  0.5056290000000 1.0
C      1  0.4687980000000  0.5357170000000  0.5285840000000 1.0
C      1  0.5121250000000  0.4370250000000  0.4742770000000 1.0
C      1  0.5241930000000  0.4798740000000  0.4478870000000 1.0
C      1  0.5046480000000  0.4576650000000  0.5206180000000 1.0
C      1  0.5274670000000  0.4706280000000  0.5359910000000 1.0
C      1  0.4945370000000  0.5301250000000  0.5378370000000 1.0
C      1  0.5079520000000  0.4419290000000  0.4971170000000 1.0
C      1  0.5176720000000  0.4549340000000  0.4579590000000 1.0
C      1  0.5149410000000  0.5197290000000  0.5392310000000 1.0
C      1  0.5210020000000  0.5088010000000  0.4554420000000 1.0
C      1  0.5066940000000  0.5231480000000  0.4765010000000 1.0
C      1  0.4496990000000  0.5109970000000  0.5289180000000 1.0
C      1  0.4886070000000  0.5437070000000  0.4790200000000 1.0
C      1  0.5296210000000  0.4985970000000  0.5259860000000 1.0
END
