TITL C-4164243-3780-214 1.99253076022128 125000 -21226.7137463859 0 0 142 (C1) n - 1
REM
REM in /home/nfs/bkarasulu/CARBON/AIRSS/Generating-Clusters/ReaxFF-fromJPCA2015/Units_Real/with-SteepDescent/Only-C1/SD-CG/Try1-3A/FIRE-CG
REM
REM
REM
REM
REM
REM ./C.cell (11c1c37f851c82e70ff6c80c92926a4b)
REM
REM compiler GCC version 9.2.1 20190827 (Red Hat 9.2.1-1)
REM options -cpp -mtune=generic -march=x86-64 -g -O0 -fpre-include=/usr/include/finclude/math-vector-fortran.h
REM seed -1837354963 -1744071942 875141406 1834562840 810735822 -874078685 315001608 1699046568 1462035881 -1937569403 -666545703 2002031537 598159232 845893488 144634093 -905604337 -1357625745 -1144003436 1354463148 1250765396 -1577393840 12049571 265342987 -1820577592 -286475451 -196509876 -1940036443 1289852186 1592553167 -1417995172 -1897039294 -1062469775 -686134325
REM
CELL 1.54180   50.00000   50.00000   50.00000   90.00000   90.00000   90.00000
LATT -1
SFAC C  
C      1  0.5803250000000  0.5099200000000  0.5657100000000 1.0
C      1  0.5427210000000  0.4820990000000  0.5910930000000 1.0
C      1  0.4356070000000  0.4523440000000  0.4685050000000 1.0
C      1  0.5188990000000  0.5178470000000  0.4421320000000 1.0
C      1  0.4684960000000  0.4243480000000  0.5689900000000 1.0
C      1  0.5311530000000  0.5227460000000  0.4030400000000 1.0
C      1  0.4422020000000  0.5418090000000  0.4140260000000 1.0
C      1  0.5181180000000  0.5112670000000  0.4897230000000 1.0
C      1  0.4681030000000  0.4979660000000  0.4248340000000 1.0
C      1  0.5311870000000  0.4450840000000  0.4472210000000 1.0
C      1  0.4510820000000  0.5382150000000  0.4806260000000 1.0
C      1  0.5048490000000  0.5666330000000  0.4887680000000 1.0
C      1  0.5747150000000  0.4764300000000  0.4463820000000 1.0
C      1  0.4146540000000  0.4871040000000  0.5591760000000 1.0
C      1  0.5266880000000  0.4732840000000  0.4184080000000 1.0
C      1  0.4694300000000  0.5398760000000  0.4051880000000 1.0
C      1  0.5061660000000  0.4039660000000  0.4687870000000 1.0
C      1  0.5072300000000  0.5826120000000  0.5550960000000 1.0
C      1  0.5329340000000  0.5969840000000  0.5123510000000 1.0
C      1  0.4324620000000  0.5593650000000  0.4833490000000 1.0
C      1  0.4395950000000  0.4921760000000  0.4290670000000 1.0
C      1  0.4517340000000  0.5859680000000  0.4832180000000 1.0
C      1  0.4860790000000  0.4636160000000  0.5236100000000 1.0
C      1  0.5534300000000  0.5626460000000  0.4452280000000 1.0
C      1  0.4184890000000  0.5500560000000  0.5098270000000 1.0
C      1  0.5227730000000  0.4647220000000  0.5567440000000 1.0
C      1  0.5856430000000  0.4925550000000  0.5213440000000 1.0
C      1  0.5541190000000  0.4337470000000  0.5229100000000 1.0
C      1  0.4943050000000  0.6066090000000  0.4830440000000 1.0
C      1  0.5225310000000  0.4881370000000  0.4425750000000 1.0
C      1  0.5288870000000  0.4449890000000  0.4179610000000 1.0
C      1  0.5097980000000  0.5983150000000  0.5300860000000 1.0
C      1  0.4729190000000  0.5229870000000  0.5989230000000 1.0
C      1  0.5938410000000  0.4596130000000  0.5195370000000 1.0
C      1  0.4843500000000  0.4776060000000  0.5939610000000 1.0
C      1  0.4934700000000  0.5365040000000  0.5863120000000 1.0
C      1  0.5625260000000  0.4447860000000  0.5513180000000 1.0
C      1  0.4960790000000  0.4252600000000  0.5738460000000 1.0
C      1  0.5140980000000  0.4187320000000  0.4207960000000 1.0
C      1  0.5178350000000  0.4024450000000  0.4959320000000 1.0
C      1  0.4618830000000  0.5894840000000  0.5097890000000 1.0
C      1  0.5016540000000  0.4467740000000  0.5046110000000 1.0
C      1  0.5293630000000  0.5647310000000  0.4271260000000 1.0
C      1  0.4799480000000  0.4131880000000  0.4578140000000 1.0
C      1  0.5431490000000  0.5228270000000  0.6001830000000 1.0
C      1  0.4204040000000  0.4303470000000  0.5116380000000 1.0
C      1  0.5036370000000  0.4890080000000  0.5288290000000 1.0
C      1  0.5480710000000  0.5253360000000  0.5338780000000 1.0
C      1  0.5814610000000  0.4378450000000  0.5061600000000 1.0
C      1  0.4357250000000  0.5503580000000  0.5331130000000 1.0
C      1  0.5629710000000  0.5025870000000  0.5887480000000 1.0
C      1  0.4591900000000  0.4525520000000  0.5677110000000 1.0
C      1  0.4717340000000  0.4895000000000  0.4710600000000 1.0
C      1  0.4925730000000  0.5017050000000  0.6074990000000 1.0
C      1  0.4811320000000  0.5741990000000  0.5614060000000 1.0
C      1  0.5629680000000  0.5247710000000  0.4732150000000 1.0
C      1  0.5000950000000  0.5101030000000  0.5103800000000 1.0
C      1  0.5920900000000  0.4884630000000  0.5502190000000 1.0
C      1  0.4572270000000  0.4908560000000  0.4957690000000 1.0
C      1  0.5435700000000  0.4516360000000  0.5731090000000 1.0
C      1  0.4972090000000  0.4765770000000  0.4635920000000 1.0
C      1  0.5207500000000  0.5923370000000  0.4853170000000 1.0
C      1  0.5525150000000  0.4985650000000  0.5213590000000 1.0
C      1  0.5130440000000  0.5269000000000  0.4678100000000 1.0
C      1  0.4561350000000  0.4742770000000  0.5867320000000 1.0
C      1  0.5959510000000  0.5179260000000  0.5091110000000 1.0
C      1  0.5192630000000  0.4090620000000  0.5435010000000 1.0
C      1  0.4380210000000  0.4955800000000  0.5769560000000 1.0
C      1  0.4542340000000  0.5190350000000  0.5018650000000 1.0
C      1  0.5233270000000  0.5000010000000  0.6030080000000 1.0
C      1  0.5354100000000  0.4102500000000  0.5196200000000 1.0
C      1  0.5727450000000  0.5321620000000  0.5478680000000 1.0
C      1  0.5885140000000  0.5418160000000  0.5246210000000 1.0
C      1  0.4815050000000  0.5136210000000  0.4031640000000 1.0
C      1  0.4874570000000  0.6041370000000  0.5114890000000 1.0
C      1  0.4468890000000  0.4606210000000  0.5425160000000 1.0
C      1  0.5184670000000  0.5386680000000  0.4216940000000 1.0
C      1  0.5380200000000  0.5495150000000  0.5875760000000 1.0
C      1  0.4215540000000  0.4535820000000  0.4929850000000 1.0
C      1  0.5089090000000  0.5054540000000  0.3954700000000 1.0
C      1  0.4133160000000  0.4374080000000  0.5377910000000 1.0
C      1  0.5230110000000  0.4255650000000  0.5690310000000 1.0
C      1  0.4908440000000  0.4051730000000  0.5334380000000 1.0
C      1  0.4784160000000  0.5820410000000  0.4385960000000 1.0
C      1  0.5102050000000  0.5559880000000  0.5156190000000 1.0
C      1  0.5505700000000  0.5469470000000  0.4886130000000 1.0
C      1  0.5870450000000  0.4590480000000  0.5487170000000 1.0
C      1  0.4105220000000  0.5234610000000  0.4488780000000 1.0
C      1  0.5022210000000  0.4798400000000  0.5699840000000 1.0
C      1  0.4274750000000  0.5189950000000  0.4256650000000 1.0
C      1  0.5367550000000  0.5445260000000  0.5148360000000 1.0
C      1  0.4946420000000  0.4536060000000  0.4781020000000 1.0
C      1  0.5007940000000  0.5030980000000  0.5539940000000 1.0
C      1  0.5613340000000  0.5909110000000  0.5171020000000 1.0
C      1  0.5623310000000  0.5358280000000  0.4431980000000 1.0
C      1  0.4713140000000  0.5093440000000  0.4511380000000 1.0
C      1  0.5446620000000  0.4723950000000  0.4858930000000 1.0
C      1  0.5216550000000  0.5568710000000  0.5641850000000 1.0
C      1  0.4373030000000  0.5437120000000  0.5627600000000 1.0
C      1  0.4438070000000  0.4135200000000  0.5208380000000 1.0
C      1  0.4640550000000  0.4112610000000  0.5425430000000 1.0
C      1  0.5461250000000  0.4681540000000  0.4581210000000 1.0
C      1  0.5830190000000  0.5696990000000  0.5157430000000 1.0
C      1  0.4959870000000  0.5473200000000  0.4690620000000 1.0
C      1  0.5577730000000  0.5200570000000  0.4181460000000 1.0
C      1  0.5042380000000  0.5748120000000  0.4330610000000 1.0
C      1  0.4609680000000  0.5634550000000  0.5241910000000 1.0
C      1  0.4581570000000  0.5611390000000  0.5673910000000 1.0
C      1  0.5043080000000  0.5308380000000  0.5619830000000 1.0
C      1  0.5912010000000  0.5158150000000  0.4803540000000 1.0
C      1  0.5516180000000  0.5725210000000  0.4734490000000 1.0
C      1  0.4540190000000  0.4104910000000  0.4920570000000 1.0
C      1  0.4094410000000  0.4800040000000  0.5054940000000 1.0
C      1  0.4696260000000  0.5381070000000  0.4591170000000 1.0
C      1  0.4590690000000  0.4699140000000  0.5175060000000 1.0
C      1  0.5447940000000  0.4998160000000  0.4918850000000 1.0
C      1  0.4480270000000  0.5218740000000  0.5801420000000 1.0
C      1  0.4852830000000  0.5508050000000  0.5288960000000 1.0
C      1  0.5480100000000  0.3876960000000  0.4434930000000 1.0
C      1  0.4175500000000  0.4572790000000  0.5570850000000 1.0
C      1  0.4099700000000  0.4965100000000  0.4607270000000 1.0
C      1  0.5018530000000  0.4493870000000  0.4524530000000 1.0
C      1  0.4814140000000  0.4469050000000  0.4246460000000 1.0
C      1  0.5120320000000  0.4763220000000  0.3963530000000 1.0
C      1  0.4020460000000  0.5316310000000  0.4940670000000 1.0
C      1  0.5325250000000  0.4758100000000  0.5303490000000 1.0
C      1  0.4724960000000  0.5947540000000  0.4660640000000 1.0
C      1  0.5694840000000  0.4973030000000  0.4286080000000 1.0
C      1  0.4548670000000  0.4268140000000  0.4681530000000 1.0
C      1  0.4103630000000  0.4883690000000  0.5317530000000 1.0
C      1  0.4862540000000  0.4185680000000  0.4293150000000 1.0
C      1  0.4857010000000  0.4597190000000  0.3994060000000 1.0
C      1  0.4773110000000  0.5261620000000  0.5190420000000 1.0
C      1  0.5940820000000  0.4911760000000  0.4634540000000 1.0
C      1  0.5736800000000  0.5833980000000  0.4918260000000 1.0
C      1  0.4622810000000  0.5563300000000  0.4311270000000 1.0
C      1  0.4288870000000  0.4758380000000  0.4513640000000 1.0
C      1  0.4945320000000  0.4153240000000  0.5066860000000 1.0
C      1  0.5342550000000  0.4562580000000  0.5078140000000 1.0
C      1  0.4026800000000  0.5022800000000  0.4880190000000 1.0
C      1  0.4088100000000  0.5445530000000  0.4692480000000 1.0
C      1  0.5247010000000  0.3995310000000  0.4432800000000 1.0
END
