TITL C-4164241-3639-662 25.9900099329341 125000 -19340.3579716179 0 0 128 (C1) n - 1
REM
REM in /home/nfs/bkarasulu/CARBON/AIRSS/Generating-Clusters/ReaxFF-fromJPCA2015/Units_Real/with-SteepDescent/Only-C1/SD-CG/Try1-3A/FIRE-CG
REM
REM
REM
REM
REM
REM ./C.cell (11c1c37f851c82e70ff6c80c92926a4b)
REM
REM compiler GCC version 9.2.1 20190827 (Red Hat 9.2.1-1)
REM options -cpp -mtune=generic -march=x86-64 -g -O0 -fpre-include=/usr/include/finclude/math-vector-fortran.h
REM seed 1339472600 -367181456 1962729155 -150477665 -1553215506 -362747664 2001633185 518581042 -972197071 -216620387 1296069557 -614427961 -1185662410 -875330736 1878056601 832336228 -1423345853 -369259746 1048786452 2121976136 -1793680659 1022915179 606257285 -600974083 2066663669 543317316 352479531 1774456875 -834210099 -987388940 363748688 1081872777 -894925529
REM
CELL 1.54180   50.00000   50.00000   50.00000   90.00000   90.00000   90.00000
LATT -1
SFAC C  
C      1  0.5915250000000  0.4938920000000  0.4838360000000 1.0
C      1  0.4583260000000  0.5194890000000  0.4098380000000 1.0
C      1  0.4392030000000  0.4321730000000  0.5260650000000 1.0
C      1  0.5365190000000  0.5206710000000  0.3999290000000 1.0
C      1  0.5404790000000  0.4605800000000  0.4756000000000 1.0
C      1  0.4630070000000  0.4170990000000  0.5337280000000 1.0
C      1  0.5511070000000  0.5395510000000  0.4194030000000 1.0
C      1  0.5772660000000  0.5448930000000  0.5511880000000 1.0
C      1  0.5418580000000  0.5366280000000  0.5803700000000 1.0
C      1  0.5567050000000  0.4701210000000  0.4982100000000 1.0
C      1  0.4020360000000  0.5109640000000  0.4833330000000 1.0
C      1  0.4308360000000  0.4465750000000  0.4315140000000 1.0
C      1  0.5591080000000  0.5699130000000  0.5473830000000 1.0
C      1  0.4121320000000  0.5157720000000  0.5274130000000 1.0
C      1  0.4928670000000  0.5199580000000  0.4730030000000 1.0
C      1  0.5536180000000  0.5796240000000  0.5216540000000 1.0
C      1  0.5137370000000  0.5761310000000  0.5715470000000 1.0
C      1  0.3984270000000  0.4974580000000  0.5088760000000 1.0
C      1  0.5333270000000  0.5770850000000  0.4492320000000 1.0
C      1  0.4530980000000  0.4966950000000  0.4842530000000 1.0
C      1  0.4885430000000  0.4029300000000  0.4915390000000 1.0
C      1  0.5794190000000  0.4639870000000  0.5148800000000 1.0
C      1  0.5283000000000  0.4445520000000  0.5858000000000 1.0
C      1  0.4207370000000  0.5467520000000  0.4643450000000 1.0
C      1  0.4795720000000  0.4694700000000  0.4308460000000 1.0
C      1  0.4631600000000  0.4017910000000  0.5087510000000 1.0
C      1  0.4809010000000  0.5825190000000  0.4510210000000 1.0
C      1  0.4079410000000  0.4685210000000  0.5094570000000 1.0
C      1  0.4637230000000  0.5153290000000  0.5223130000000 1.0
C      1  0.4295880000000  0.5598340000000  0.5312100000000 1.0
C      1  0.5718420000000  0.5342690000000  0.4382000000000 1.0
C      1  0.4122450000000  0.5428890000000  0.5166310000000 1.0
C      1  0.4945040000000  0.4293360000000  0.4795410000000 1.0
C      1  0.4718040000000  0.4474350000000  0.4795260000000 1.0
C      1  0.4801170000000  0.5721130000000  0.4955090000000 1.0
C      1  0.5161430000000  0.4070160000000  0.5367430000000 1.0
C      1  0.5222630000000  0.6009030000000  0.4828320000000 1.0
C      1  0.5637070000000  0.5237710000000  0.5656160000000 1.0
C      1  0.5539770000000  0.4445480000000  0.5717400000000 1.0
C      1  0.4113350000000  0.4680120000000  0.4807330000000 1.0
C      1  0.5349580000000  0.4769780000000  0.5162710000000 1.0
C      1  0.4894610000000  0.5632610000000  0.5820080000000 1.0
C      1  0.4585690000000  0.5655830000000  0.4571300000000 1.0
C      1  0.4831010000000  0.5110110000000  0.3993890000000 1.0
C      1  0.4400730000000  0.4175060000000  0.4990190000000 1.0
C      1  0.4671280000000  0.4696400000000  0.5897240000000 1.0
C      1  0.4440540000000  0.4823660000000  0.5763920000000 1.0
C      1  0.4358400000000  0.5249130000000  0.4261730000000 1.0
C      1  0.4053310000000  0.5400050000000  0.4863200000000 1.0
C      1  0.4264920000000  0.4579620000000  0.5310830000000 1.0
C      1  0.5185210000000  0.5235940000000  0.5929470000000 1.0
C      1  0.5731140000000  0.4985950000000  0.4578790000000 1.0
C      1  0.5020750000000  0.4336670000000  0.5757220000000 1.0
C      1  0.5670920000000  0.4330860000000  0.4479280000000 1.0
C      1  0.4450360000000  0.5101330000000  0.5876300000000 1.0
C      1  0.5223810000000  0.4442470000000  0.4191470000000 1.0
C      1  0.5442890000000  0.4216020000000  0.4619020000000 1.0
C      1  0.4981350000000  0.4496670000000  0.5276660000000 1.0
C      1  0.5799580000000  0.4886180000000  0.5295670000000 1.0
C      1  0.5478910000000  0.5883590000000  0.4947840000000 1.0
C      1  0.5400090000000  0.5637960000000  0.5700140000000 1.0
C      1  0.4678600000000  0.5725640000000  0.5643940000000 1.0
C      1  0.4735130000000  0.4222890000000  0.4326440000000 1.0
C      1  0.5080340000000  0.5279680000000  0.3988910000000 1.0
C      1  0.4761460000000  0.5897010000000  0.5422490000000 1.0
C      1  0.5349070000000  0.5245170000000  0.5066690000000 1.0
C      1  0.5871550000000  0.5105110000000  0.4327310000000 1.0
C      1  0.4436050000000  0.5332810000000  0.5732120000000 1.0
C      1  0.4474250000000  0.4315970000000  0.4745270000000 1.0
C      1  0.5288360000000  0.4694410000000  0.4110380000000 1.0
C      1  0.4852500000000  0.4910680000000  0.6021530000000 1.0
C      1  0.5832860000000  0.4815780000000  0.4344360000000 1.0
C      1  0.5348160000000  0.4916030000000  0.5410040000000 1.0
C      1  0.4719650000000  0.5164390000000  0.6007170000000 1.0
C      1  0.5056230000000  0.3984620000000  0.5131070000000 1.0
C      1  0.5916210000000  0.4663980000000  0.4781290000000 1.0
C      1  0.5645690000000  0.5444380000000  0.4692050000000 1.0
C      1  0.5060190000000  0.4948290000000  0.4799980000000 1.0
C      1  0.4509010000000  0.4668740000000  0.4361980000000 1.0
C      1  0.4916760000000  0.4259520000000  0.5460610000000 1.0
C      1  0.5397680000000  0.4237140000000  0.5307800000000 1.0
C      1  0.4387260000000  0.5055990000000  0.5343470000000 1.0
C      1  0.5530230000000  0.5729390000000  0.4702890000000 1.0
C      1  0.5849190000000  0.4579320000000  0.4514200000000 1.0
C      1  0.4244040000000  0.4950880000000  0.4687370000000 1.0
C      1  0.4255290000000  0.4753370000000  0.4243740000000 1.0
C      1  0.4644380000000  0.5224240000000  0.4923310000000 1.0
C      1  0.4925480000000  0.5366840000000  0.5939360000000 1.0
C      1  0.4242360000000  0.5005620000000  0.4381740000000 1.0
C      1  0.4862030000000  0.4997060000000  0.5328010000000 1.0
C      1  0.5208840000000  0.4979490000000  0.5034990000000 1.0
C      1  0.5261360000000  0.4831220000000  0.4631580000000 1.0
C      1  0.4894340000000  0.4969690000000  0.4259470000000 1.0
C      1  0.5377310000000  0.5312690000000  0.4659290000000 1.0
C      1  0.5137400000000  0.4951560000000  0.5979420000000 1.0
C      1  0.5239740000000  0.4446720000000  0.5154770000000 1.0
C      1  0.5610720000000  0.4939940000000  0.5532630000000 1.0
C      1  0.4680390000000  0.4736460000000  0.4939000000000 1.0
C      1  0.5044530000000  0.5829680000000  0.5445660000000 1.0
C      1  0.5233610000000  0.5347590000000  0.5328750000000 1.0
C      1  0.5121810000000  0.5099050000000  0.5429540000000 1.0
C      1  0.4927440000000  0.4439120000000  0.4262360000000 1.0
C      1  0.5123630000000  0.5606590000000  0.5261960000000 1.0
C      1  0.5294340000000  0.5568030000000  0.4286640000000 1.0
C      1  0.4818640000000  0.4488970000000  0.5794810000000 1.0
C      1  0.4586560000000  0.5558340000000  0.4864910000000 1.0
C      1  0.4824790000000  0.4733080000000  0.5200830000000 1.0
C      1  0.5326630000000  0.4732500000000  0.5921150000000 1.0
C      1  0.5142060000000  0.5387390000000  0.4822830000000 1.0
C      1  0.4417320000000  0.5719650000000  0.5080710000000 1.0
C      1  0.5822130000000  0.5082600000000  0.5075650000000 1.0
C      1  0.4429830000000  0.5565490000000  0.5591200000000 1.0
C      1  0.5051490000000  0.5610490000000  0.4983920000000 1.0
C      1  0.5085010000000  0.5925800000000  0.4579210000000 1.0
C      1  0.4658380000000  0.5867360000000  0.5151550000000 1.0
C      1  0.5637510000000  0.5282570000000  0.4973480000000 1.0
C      1  0.4923870000000  0.5207810000000  0.4423530000000 1.0
C      1  0.5434970000000  0.5048210000000  0.4588260000000 1.0
C      1  0.5424860000000  0.4270740000000  0.4332890000000 1.0
C      1  0.5605560000000  0.4320640000000  0.5474800000000 1.0
C      1  0.4366390000000  0.4793090000000  0.5485660000000 1.0
C      1  0.5237770000000  0.4362570000000  0.4817040000000 1.0
C      1  0.5734740000000  0.4480700000000  0.5332060000000 1.0
C      1  0.4358190000000  0.5513330000000  0.4426410000000 1.0
C      1  0.5041380000000  0.5413440000000  0.4249640000000 1.0
C      1  0.5327920000000  0.4939160000000  0.4043610000000 1.0
C      1  0.5568490000000  0.4730450000000  0.5760850000000 1.0
C      1  0.4464970000000  0.4254420000000  0.4450440000000 1.0
END
