TITL C-4164240-4114-309 -7.65386316843728 125000 -11198.974933416 0 0 77 (C1) n - 1
REM
REM in /home/nfs/bkarasulu/CARBON/AIRSS/Generating-Clusters/ReaxFF-fromJPCA2015/Units_Real/with-SteepDescent/Only-C1/SD-CG/Try1-3A/FIRE-CG
REM
REM
REM
REM
REM
REM ./C.cell (11c1c37f851c82e70ff6c80c92926a4b)
REM
REM compiler GCC version 9.2.1 20190827 (Red Hat 9.2.1-1)
REM options -cpp -mtune=generic -march=x86-64 -g -O0 -fpre-include=/usr/include/finclude/math-vector-fortran.h
REM seed 295777252 1910283395 -2023821785 -727609988 269948621 -462653876 1600656003 -1710868721 -1562151997 1183372067 55342778 -546163981 -715386964 -2102916588 1439711690 895657314 1342031682 -2018576813 1923698675 -1078917162 -379187610 -672821813 1412811278 -965658348 -966026307 -681496601 -1046342990 2030024888 1778502109 1571089738 -409810369 1224439870 -403806162
REM
CELL 1.54180   50.00000   50.00000   50.00000   90.00000   90.00000   90.00000
LATT -1
SFAC C  
C      1  0.4446110000000  0.5515810000000  0.5212040000000 1.0
C      1  0.5111200000000  0.5585560000000  0.4490960000000 1.0
C      1  0.5485520000000  0.4708540000000  0.4493960000000 1.0
C      1  0.5006470000000  0.5587510000000  0.4952210000000 1.0
C      1  0.5287940000000  0.4847860000000  0.5422530000000 1.0
C      1  0.5243560000000  0.4687690000000  0.4355190000000 1.0
C      1  0.5922790000000  0.5110610000000  0.5157020000000 1.0
C      1  0.4824910000000  0.5664690000000  0.5203430000000 1.0
C      1  0.4563670000000  0.5728640000000  0.5039670000000 1.0
C      1  0.4547850000000  0.5488650000000  0.4550250000000 1.0
C      1  0.5867480000000  0.5029620000000  0.5440860000000 1.0
C      1  0.4864320000000  0.5505210000000  0.5421300000000 1.0
C      1  0.5620570000000  0.4990600000000  0.4558160000000 1.0
C      1  0.4876730000000  0.5314720000000  0.4938230000000 1.0
C      1  0.5160000000000  0.5110960000000  0.4581190000000 1.0
C      1  0.5403110000000  0.4988890000000  0.5000420000000 1.0
C      1  0.4966810000000  0.4740760000000  0.4353220000000 1.0
C      1  0.4956880000000  0.5110770000000  0.5770480000000 1.0
C      1  0.4597140000000  0.4945620000000  0.4929460000000 1.0
C      1  0.4403590000000  0.5018910000000  0.5144180000000 1.0
C      1  0.5372230000000  0.5480170000000  0.4582800000000 1.0
C      1  0.4957280000000  0.4282080000000  0.5269610000000 1.0
C      1  0.5502250000000  0.5611510000000  0.5122180000000 1.0
C      1  0.4677210000000  0.5291200000000  0.4729180000000 1.0
C      1  0.5779230000000  0.4988590000000  0.4785160000000 1.0
C      1  0.4801400000000  0.4937580000000  0.4172600000000 1.0
C      1  0.5445810000000  0.4411820000000  0.5308550000000 1.0
C      1  0.4367320000000  0.5525540000000  0.4952940000000 1.0
C      1  0.4644940000000  0.5705620000000  0.4718170000000 1.0
C      1  0.5244320000000  0.5057530000000  0.5225510000000 1.0
C      1  0.4523810000000  0.4943140000000  0.4171700000000 1.0
C      1  0.4931220000000  0.5715550000000  0.4688650000000 1.0
C      1  0.5675600000000  0.4580530000000  0.5381150000000 1.0
C      1  0.5559270000000  0.5449100000000  0.5387760000000 1.0
C      1  0.4540180000000  0.5336720000000  0.4295970000000 1.0
C      1  0.4536600000000  0.4395720000000  0.4734330000000 1.0
C      1  0.5812950000000  0.5299030000000  0.5361110000000 1.0
C      1  0.4871420000000  0.4370210000000  0.5536150000000 1.0
C      1  0.4724890000000  0.4163840000000  0.4829290000000 1.0
C      1  0.5485350000000  0.4709310000000  0.4959370000000 1.0
C      1  0.5003750000000  0.4185030000000  0.4726050000000 1.0
C      1  0.5269080000000  0.5186600000000  0.4848120000000 1.0
C      1  0.4789690000000  0.4856540000000  0.5772450000000 1.0
C      1  0.4731980000000  0.4295320000000  0.5094510000000 1.0
C      1  0.4972680000000  0.5124840000000  0.5136700000000 1.0
C      1  0.4977060000000  0.4830580000000  0.4630270000000 1.0
C      1  0.5257010000000  0.5140280000000  0.5750690000000 1.0
C      1  0.4651640000000  0.4540930000000  0.4966670000000 1.0
C      1  0.5399380000000  0.4552130000000  0.4726000000000 1.0
C      1  0.5434960000000  0.5210060000000  0.4481460000000 1.0
C      1  0.4601130000000  0.4368790000000  0.5457330000000 1.0
C      1  0.5014510000000  0.4775020000000  0.5440680000000 1.0
C      1  0.5678420000000  0.4832230000000  0.5553990000000 1.0
C      1  0.4510560000000  0.5064260000000  0.4690190000000 1.0
C      1  0.5734090000000  0.4632180000000  0.5098380000000 1.0
C      1  0.5903450000000  0.4865910000000  0.4998680000000 1.0
C      1  0.4831110000000  0.4958340000000  0.5315450000000 1.0
C      1  0.4414510000000  0.4549140000000  0.5581320000000 1.0
C      1  0.4809820000000  0.5233740000000  0.4224610000000 1.0
C      1  0.4817620000000  0.4771950000000  0.4867920000000 1.0
C      1  0.4320680000000  0.4569720000000  0.4733120000000 1.0
C      1  0.4252200000000  0.5037830000000  0.4568810000000 1.0
C      1  0.5423230000000  0.4903410000000  0.5674920000000 1.0
C      1  0.4335720000000  0.5114020000000  0.4297100000000 1.0
C      1  0.4559080000000  0.4967110000000  0.5389190000000 1.0
C      1  0.5224240000000  0.4308440000000  0.5147860000000 1.0
C      1  0.4112140000000  0.4937310000000  0.5008500000000 1.0
C      1  0.5568820000000  0.5853610000000  0.5104140000000 1.0
C      1  0.4939190000000  0.4623470000000  0.5678000000000 1.0
C      1  0.4289980000000  0.5297730000000  0.5111530000000 1.0
C      1  0.5362920000000  0.5367080000000  0.5584900000000 1.0
C      1  0.4915930000000  0.5339150000000  0.5617570000000 1.0
C      1  0.5039970000000  0.5323360000000  0.4384080000000 1.0
C      1  0.5235840000000  0.4324850000000  0.4843770000000 1.0
C      1  0.4530000000000  0.4833010000000  0.5637220000000 1.0
C      1  0.5323380000000  0.5477390000000  0.4885630000000 1.0
C      1  0.4154290000000  0.4812240000000  0.4745260000000 1.0
END
