TITL C-4164233-775-428 -3.14538587429194 125000 -14142.3244392054 0 0 95 (C1) n - 1
REM
REM in /home/nfs/bkarasulu/CARBON/AIRSS/Generating-Clusters/ReaxFF-fromJPCA2015/Units_Real/with-SteepDescent/Only-C1/SD-CG/Try1-3A/FIRE-CG
REM
REM
REM
REM
REM
REM ./C.cell (11c1c37f851c82e70ff6c80c92926a4b)
REM
REM compiler GCC version 9.2.1 20190827 (Red Hat 9.2.1-1)
REM options -cpp -mtune=generic -march=x86-64 -g -O0 -fpre-include=/usr/include/finclude/math-vector-fortran.h
REM seed -1433257966 113336398 1858157416 839952474 1392764263 -601231078 -2077702305 -1183259246 -1755824078 -1290377081 939449775 -213359417 -1736301623 -670558491 -636124398 -880283945 477978486 -468412982 -1675882979 1762971371 -1431637863 2068066462 1688917276 792565451 257408608 650935527 -680384900 -1527817766 -708824146 -1937137944 -2014000350 -952322640 -540804241
REM
CELL 1.54180   50.00000   50.00000   50.00000   90.00000   90.00000   90.00000
LATT -1
SFAC C  
C      1  0.4666620000000  0.5292500000000  0.4782530000000 1.0
C      1  0.4307550000000  0.4996370000000  0.4440580000000 1.0
C      1  0.4617190000000  0.5697970000000  0.5162040000000 1.0
C      1  0.5705780000000  0.4977880000000  0.4330180000000 1.0
C      1  0.5409830000000  0.4228830000000  0.4533450000000 1.0
C      1  0.4588460000000  0.4593680000000  0.4509350000000 1.0
C      1  0.5116770000000  0.4282960000000  0.4496740000000 1.0
C      1  0.4796700000000  0.4739300000000  0.4962190000000 1.0
C      1  0.4743860000000  0.4791710000000  0.4679350000000 1.0
C      1  0.4946250000000  0.5365180000000  0.5257070000000 1.0
C      1  0.4362500000000  0.5609620000000  0.5279150000000 1.0
C      1  0.5330000000000  0.5711940000000  0.5505620000000 1.0
C      1  0.4674950000000  0.4822850000000  0.5839640000000 1.0
C      1  0.5290840000000  0.5029430000000  0.4407000000000 1.0
C      1  0.5101910000000  0.5877820000000  0.5609980000000 1.0
C      1  0.5407390000000  0.5708610000000  0.5203110000000 1.0
C      1  0.5797900000000  0.5011640000000  0.4614070000000 1.0
C      1  0.5328300000000  0.5453380000000  0.5645310000000 1.0
C      1  0.5139340000000  0.4568080000000  0.4391400000000 1.0
C      1  0.5264400000000  0.4519400000000  0.5595570000000 1.0
C      1  0.4416380000000  0.4401710000000  0.4848750000000 1.0
C      1  0.4621400000000  0.5086210000000  0.5772950000000 1.0
C      1  0.4901270000000  0.4653330000000  0.5828670000000 1.0
C      1  0.4372530000000  0.4491300000000  0.5135440000000 1.0
C      1  0.5648050000000  0.4990460000000  0.5245240000000 1.0
C      1  0.4696620000000  0.5063020000000  0.4616260000000 1.0
C      1  0.5835880000000  0.4789340000000  0.4807720000000 1.0
C      1  0.4805290000000  0.4292570000000  0.5438960000000 1.0
C      1  0.5493690000000  0.4199120000000  0.5250840000000 1.0
C      1  0.4162960000000  0.5403290000000  0.5226240000000 1.0
C      1  0.5575040000000  0.4295480000000  0.4767400000000 1.0
C      1  0.5466290000000  0.5022730000000  0.4163860000000 1.0
C      1  0.5027110000000  0.5212240000000  0.5051280000000 1.0
C      1  0.4465890000000  0.4812740000000  0.4290060000000 1.0
C      1  0.5147670000000  0.5314200000000  0.4819550000000 1.0
C      1  0.4228440000000  0.4762300000000  0.5189960000000 1.0
C      1  0.4913690000000  0.5580650000000  0.4446700000000 1.0
C      1  0.4987830000000  0.4447260000000  0.5636940000000 1.0
C      1  0.5822710000000  0.4518320000000  0.5124590000000 1.0
C      1  0.5557180000000  0.5669330000000  0.4701850000000 1.0
C      1  0.5322420000000  0.4804770000000  0.5661250000000 1.0
C      1  0.4704280000000  0.5778850000000  0.4900330000000 1.0
C      1  0.4565700000000  0.4383280000000  0.5306800000000 1.0
C      1  0.4554160000000  0.5204170000000  0.4388420000000 1.0
C      1  0.4172820000000  0.4938700000000  0.4962510000000 1.0
C      1  0.4304650000000  0.5395380000000  0.5483300000000 1.0
C      1  0.5679480000000  0.5291680000000  0.5304560000000 1.0
C      1  0.5055330000000  0.5403040000000  0.5743120000000 1.0
C      1  0.4544400000000  0.5725440000000  0.4639860000000 1.0
C      1  0.5081360000000  0.4896110000000  0.5805560000000 1.0
C      1  0.5730620000000  0.5512170000000  0.4852440000000 1.0
C      1  0.4644370000000  0.4333650000000  0.4676010000000 1.0
C      1  0.4629820000000  0.5014030000000  0.4166050000000 1.0
C      1  0.5844190000000  0.4808450000000  0.5100710000000 1.0
C      1  0.4267400000000  0.5634510000000  0.4707730000000 1.0
C      1  0.4210470000000  0.4853600000000  0.4679650000000 1.0
C      1  0.5336020000000  0.5779280000000  0.4612950000000 1.0
C      1  0.4914820000000  0.4226910000000  0.4702790000000 1.0
C      1  0.5786070000000  0.4492030000000  0.4834570000000 1.0
C      1  0.4191630000000  0.5227170000000  0.4992880000000 1.0
C      1  0.5168880000000  0.5089460000000  0.4150770000000 1.0
C      1  0.5004580000000  0.4714460000000  0.4207880000000 1.0
C      1  0.5342000000000  0.4747580000000  0.4831340000000 1.0
C      1  0.5047130000000  0.4151580000000  0.4958860000000 1.0
C      1  0.5705160000000  0.4353220000000  0.5325090000000 1.0
C      1  0.5397930000000  0.4982880000000  0.5006510000000 1.0
C      1  0.4917000000000  0.5639690000000  0.5632750000000 1.0
C      1  0.4557970000000  0.4774280000000  0.5423130000000 1.0
C      1  0.4291430000000  0.4890150000000  0.5449780000000 1.0
C      1  0.4925720000000  0.5145780000000  0.5780860000000 1.0
C      1  0.4916030000000  0.4203020000000  0.5194410000000 1.0
C      1  0.5248440000000  0.4513390000000  0.4966870000000 1.0
C      1  0.5532930000000  0.5258610000000  0.5556330000000 1.0
C      1  0.5632850000000  0.5519990000000  0.5131260000000 1.0
C      1  0.5363130000000  0.4242620000000  0.4995880000000 1.0
C      1  0.4308630000000  0.4579800000000  0.4647740000000 1.0
C      1  0.5526380000000  0.4970150000000  0.5535310000000 1.0
C      1  0.5017390000000  0.4615800000000  0.5100290000000 1.0
C      1  0.4631370000000  0.5533540000000  0.4429770000000 1.0
C      1  0.5473960000000  0.4339730000000  0.5491950000000 1.0
C      1  0.5186570000000  0.5050040000000  0.5193590000000 1.0
C      1  0.4915320000000  0.4941200000000  0.4082140000000 1.0
C      1  0.4378760000000  0.5368210000000  0.4809830000000 1.0
C      1  0.5659770000000  0.5264780000000  0.4698910000000 1.0
C      1  0.4991720000000  0.5848730000000  0.4848300000000 1.0
C      1  0.4920760000000  0.5401850000000  0.4682320000000 1.0
C      1  0.5399880000000  0.5194810000000  0.4807090000000 1.0
C      1  0.4391470000000  0.5136380000000  0.5579090000000 1.0
C      1  0.5204340000000  0.5778010000000  0.5027660000000 1.0
C      1  0.4806480000000  0.4916190000000  0.5389920000000 1.0
C      1  0.4643900000000  0.4872110000000  0.5161530000000 1.0
C      1  0.5066070000000  0.5811530000000  0.4557660000000 1.0
C      1  0.5055350000000  0.4819700000000  0.5298150000000 1.0
C      1  0.5271380000000  0.4778980000000  0.4563490000000 1.0
C      1  0.4816870000000  0.5563760000000  0.5354500000000 1.0
END
