TITL C-4164236-1577-249 35.8805770220467 125000 -21867.1051951826 0 0 149 (C1) n - 1
REM
REM in /home/nfs/bkarasulu/CARBON/AIRSS/Generating-Clusters/ReaxFF-fromJPCA2015/Units_Real/with-SteepDescent/Only-C1/SD-CG/Try1-3A/FIRE-CG
REM
REM
REM
REM
REM
REM ./C.cell (11c1c37f851c82e70ff6c80c92926a4b)
REM
REM compiler GCC version 9.2.1 20190827 (Red Hat 9.2.1-1)
REM options -cpp -mtune=generic -march=x86-64 -g -O0 -fpre-include=/usr/include/finclude/math-vector-fortran.h
REM seed -2110670640 -869730589 -1608848349 -1665644106 -920176463 -231478301 232725945 -1301300478 -646359185 1939663946 -1843665391 106637689 581318686 1153894034 -4315404 362517997 -1366594734 -1317216703 575077320 -1668820871 -1622360337 -174442709 -560823503 1156946235 -210191154 -1943856913 -1504558546 -598904754 1301662045 -1689547664 -974776715 -493947674 816308383
REM
CELL 1.54180   50.00000   50.00000   50.00000   90.00000   90.00000   90.00000
LATT -1
SFAC C  
C      1  0.5702550000000  0.4743680000000  0.5416510000000 1.0
C      1  0.5995020000000  0.5034760000000  0.4853860000000 1.0
C      1  0.5418360000000  0.4552530000000  0.5701410000000 1.0
C      1  0.4700460000000  0.5183850000000  0.4149710000000 1.0
C      1  0.4808880000000  0.4278110000000  0.5588440000000 1.0
C      1  0.5401190000000  0.5956110000000  0.5194010000000 1.0
C      1  0.4321270000000  0.4480650000000  0.5556490000000 1.0
C      1  0.4882830000000  0.4584910000000  0.4112050000000 1.0
C      1  0.4258740000000  0.5225400000000  0.4665600000000 1.0
C      1  0.5294310000000  0.5149050000000  0.4171840000000 1.0
C      1  0.5678030000000  0.5528720000000  0.5525090000000 1.0
C      1  0.5530680000000  0.4210740000000  0.5415170000000 1.0
C      1  0.4817350000000  0.5591560000000  0.4917660000000 1.0
C      1  0.5212870000000  0.4834700000000  0.5288940000000 1.0
C      1  0.4114380000000  0.4825470000000  0.5666060000000 1.0
C      1  0.5657270000000  0.5687660000000  0.4847960000000 1.0
C      1  0.5283520000000  0.5837880000000  0.5445170000000 1.0
C      1  0.5941990000000  0.4852000000000  0.4371330000000 1.0
C      1  0.5446330000000  0.4096620000000  0.5156610000000 1.0
C      1  0.5380470000000  0.5425030000000  0.5803780000000 1.0
C      1  0.5410130000000  0.5344920000000  0.5272480000000 1.0
C      1  0.4526070000000  0.5061130000000  0.5063750000000 1.0
C      1  0.4385590000000  0.5285160000000  0.5669950000000 1.0
C      1  0.3951470000000  0.5194660000000  0.5427940000000 1.0
C      1  0.5691330000000  0.4953890000000  0.5627460000000 1.0
C      1  0.4841210000000  0.4029020000000  0.4492190000000 1.0
C      1  0.5384360000000  0.4832510000000  0.6010680000000 1.0
C      1  0.4772660000000  0.5680180000000  0.4201410000000 1.0
C      1  0.4785990000000  0.6003860000000  0.4957530000000 1.0
C      1  0.4951540000000  0.4808520000000  0.5380730000000 1.0
C      1  0.4342800000000  0.4828810000000  0.5850660000000 1.0
C      1  0.4632590000000  0.5196210000000  0.5789800000000 1.0
C      1  0.4826520000000  0.4687240000000  0.5916230000000 1.0
C      1  0.5379680000000  0.4953140000000  0.5059750000000 1.0
C      1  0.4493610000000  0.5922140000000  0.5239930000000 1.0
C      1  0.4302120000000  0.5707800000000  0.5316700000000 1.0
C      1  0.4063160000000  0.4747310000000  0.4838560000000 1.0
C      1  0.3934130000000  0.5378180000000  0.5221320000000 1.0
C      1  0.4141390000000  0.5466900000000  0.4665540000000 1.0
C      1  0.5488960000000  0.4269520000000  0.4435630000000 1.0
C      1  0.5194390000000  0.5431360000000  0.4143490000000 1.0
C      1  0.5546710000000  0.4257980000000  0.4929110000000 1.0
C      1  0.5887160000000  0.4419570000000  0.4655490000000 1.0
C      1  0.5588550000000  0.4495180000000  0.4284450000000 1.0
C      1  0.4980900000000  0.4477310000000  0.4814990000000 1.0
C      1  0.4623520000000  0.4016920000000  0.4622850000000 1.0
C      1  0.4770160000000  0.5446430000000  0.5148010000000 1.0
C      1  0.5142740000000  0.4716140000000  0.4096820000000 1.0
C      1  0.5052490000000  0.4160870000000  0.5411100000000 1.0
C      1  0.5060160000000  0.5626100000000  0.4757470000000 1.0
C      1  0.5118000000000  0.4439000000000  0.5298150000000 1.0
C      1  0.4739910000000  0.4632970000000  0.4835600000000 1.0
C      1  0.5144380000000  0.5300820000000  0.5419680000000 1.0
C      1  0.5517370000000  0.4970720000000  0.4109850000000 1.0
C      1  0.5264420000000  0.5989030000000  0.4668960000000 1.0
C      1  0.4940720000000  0.5546180000000  0.5562320000000 1.0
C      1  0.4810940000000  0.5138070000000  0.4601960000000 1.0
C      1  0.4795840000000  0.5935070000000  0.5236130000000 1.0
C      1  0.5600400000000  0.4749350000000  0.5824270000000 1.0
C      1  0.5833150000000  0.5680980000000  0.5067760000000 1.0
C      1  0.4996840000000  0.5265560000000  0.5161990000000 1.0
C      1  0.4638510000000  0.4878110000000  0.5760950000000 1.0
C      1  0.4776810000000  0.5828550000000  0.4461970000000 1.0
C      1  0.4690240000000  0.5552070000000  0.5408990000000 1.0
C      1  0.4963390000000  0.5923910000000  0.4690690000000 1.0
C      1  0.5887970000000  0.4440990000000  0.5175710000000 1.0
C      1  0.5105960000000  0.4950800000000  0.4278420000000 1.0
C      1  0.4626380000000  0.4621780000000  0.4571230000000 1.0
C      1  0.5198420000000  0.4216780000000  0.4464400000000 1.0
C      1  0.4086250000000  0.5611570000000  0.5147630000000 1.0
C      1  0.5797180000000  0.5243760000000  0.4413430000000 1.0
C      1  0.5432440000000  0.4687900000000  0.4119900000000 1.0
C      1  0.4531370000000  0.4290420000000  0.5501420000000 1.0
C      1  0.4926670000000  0.4432130000000  0.5798390000000 1.0
C      1  0.4481440000000  0.5995190000000  0.4948450000000 1.0
C      1  0.4284080000000  0.5820110000000  0.4835880000000 1.0
C      1  0.5269300000000  0.4917860000000  0.4658600000000 1.0
C      1  0.4909930000000  0.5440300000000  0.4120850000000 1.0
C      1  0.5254530000000  0.5091410000000  0.5603160000000 1.0
C      1  0.5465230000000  0.4723160000000  0.4678320000000 1.0
C      1  0.4053190000000  0.5668630000000  0.4843080000000 1.0
C      1  0.4094110000000  0.4617920000000  0.5105470000000 1.0
C      1  0.4231030000000  0.5168710000000  0.4396370000000 1.0
C      1  0.4490070000000  0.4822450000000  0.5213630000000 1.0
C      1  0.5359290000000  0.5521940000000  0.4522250000000 1.0
C      1  0.5974950000000  0.5068730000000  0.4575300000000 1.0
C      1  0.5660380000000  0.5886150000000  0.5059100000000 1.0
C      1  0.4148350000000  0.5119400000000  0.5618230000000 1.0
C      1  0.5699940000000  0.5288250000000  0.5373210000000 1.0
C      1  0.4423000000000  0.5540350000000  0.5523560000000 1.0
C      1  0.4890310000000  0.4848170000000  0.4945830000000 1.0
C      1  0.5020570000000  0.3976410000000  0.4915330000000 1.0
C      1  0.5892140000000  0.5277440000000  0.4921240000000 1.0
C      1  0.4558670000000  0.5665210000000  0.4557150000000 1.0
C      1  0.5451210000000  0.5661880000000  0.5636790000000 1.0
C      1  0.4431940000000  0.4220900000000  0.4709570000000 1.0
C      1  0.4494330000000  0.5582900000000  0.4278310000000 1.0
C      1  0.4740940000000  0.3992200000000  0.4869040000000 1.0
C      1  0.5432880000000  0.5791040000000  0.4518550000000 1.0
C      1  0.3941510000000  0.5090310000000  0.5165220000000 1.0
C      1  0.4682170000000  0.4810560000000  0.5437670000000 1.0
C      1  0.5335840000000  0.5654490000000  0.4276830000000 1.0
C      1  0.5021570000000  0.5014500000000  0.4755210000000 1.0
C      1  0.4809740000000  0.5055640000000  0.5108230000000 1.0
C      1  0.5840330000000  0.4578940000000  0.4416910000000 1.0
C      1  0.5621570000000  0.5381780000000  0.4828510000000 1.0
C      1  0.4185490000000  0.4686130000000  0.4582420000000 1.0
C      1  0.4128230000000  0.4904510000000  0.5056360000000 1.0
C      1  0.4566920000000  0.4959120000000  0.3973480000000 1.0
C      1  0.5296410000000  0.4603170000000  0.5439220000000 1.0
C      1  0.4826330000000  0.5006760000000  0.4352460000000 1.0
C      1  0.5787790000000  0.5037230000000  0.4206260000000 1.0
C      1  0.5050540000000  0.4461670000000  0.4538160000000 1.0
C      1  0.5459340000000  0.4540810000000  0.4946770000000 1.0
C      1  0.5052450000000  0.5097270000000  0.6044800000000 1.0
C      1  0.5669680000000  0.4224860000000  0.4665240000000 1.0
C      1  0.5219790000000  0.4708880000000  0.6225100000000 1.0
C      1  0.5173180000000  0.4950370000000  0.5827240000000 1.0
C      1  0.5981280000000  0.4528210000000  0.4921440000000 1.0
C      1  0.5112610000000  0.5360180000000  0.5941010000000 1.0
C      1  0.5566140000000  0.5333750000000  0.4559430000000 1.0
C      1  0.5223950000000  0.4357950000000  0.5798910000000 1.0
C      1  0.4637280000000  0.4683440000000  0.3992470000000 1.0
C      1  0.5165060000000  0.4023160000000  0.5157660000000 1.0
C      1  0.5062360000000  0.4010810000000  0.4620810000000 1.0
C      1  0.4583120000000  0.5497820000000  0.4795440000000 1.0
C      1  0.4435280000000  0.5305960000000  0.4235140000000 1.0
C      1  0.5637590000000  0.4808000000000  0.5125810000000 1.0
C      1  0.4133700000000  0.4626750000000  0.5443350000000 1.0
C      1  0.4524830000000  0.5200540000000  0.4794220000000 1.0
C      1  0.5282470000000  0.5996200000000  0.4944400000000 1.0
C      1  0.5737780000000  0.4436330000000  0.5410260000000 1.0
C      1  0.5374520000000  0.5239270000000  0.5010340000000 1.0
C      1  0.5002740000000  0.5819760000000  0.5442100000000 1.0
C      1  0.4372710000000  0.4794750000000  0.4110990000000 1.0
C      1  0.5884580000000  0.5417290000000  0.5180420000000 1.0
C      1  0.5306430000000  0.4169250000000  0.5595840000000 1.0
C      1  0.4380770000000  0.4467760000000  0.4556450000000 1.0
C      1  0.4378610000000  0.4522370000000  0.5099610000000 1.0
C      1  0.4949550000000  0.4827880000000  0.6142210000000 1.0
C      1  0.4516700000000  0.4296230000000  0.4973670000000 1.0
C      1  0.4852210000000  0.5387360000000  0.5820370000000 1.0
C      1  0.4855060000000  0.4608870000000  0.4397450000000 1.0
C      1  0.4993710000000  0.5391820000000  0.4612490000000 1.0
C      1  0.5908910000000  0.4808080000000  0.4981830000000 1.0
C      1  0.4241480000000  0.4873430000000  0.4361540000000 1.0
C      1  0.5500360000000  0.5168400000000  0.5716260000000 1.0
C      1  0.4419370000000  0.4259070000000  0.5227840000000 1.0
C      1  0.5175960000000  0.4500670000000  0.5027390000000 1.0
END
