TITL C-4164232-771-269 0.45608432863972 125000 -1742.57906830351 0 0 13 (C1) n - 1
REM
REM in /home/nfs/bkarasulu/CARBON/AIRSS/Generating-Clusters/ReaxFF-fromJPCA2015/Units_Real/with-SteepDescent/Only-C1/SD-CG/Try1-3A/FIRE-CG
REM
REM
REM
REM
REM
REM ./C.cell (11c1c37f851c82e70ff6c80c92926a4b)
REM
REM compiler GCC version 9.2.1 20190827 (Red Hat 9.2.1-1)
REM options -cpp -mtune=generic -march=x86-64 -g -O0 -fpre-include=/usr/include/finclude/math-vector-fortran.h
REM seed 632228659 1148449084 -1327158405 1490044442 847202665 1891672617 1955303913 -580405591 -676251035 555958569 1423174784 -1236148138 -1319708716 -1248540665 -1228428792 -1470061623 -921522549 -1068705940 -1805933784 330340814 195818417 1958722224 1726871212 -306136054 1477861632 432888460 -1379841673 501481990 2035975154 -637202948 58831367 -268124986 -618928021
REM
CELL 1.54180   50.00000   50.00000   50.00000   90.00000   90.00000   90.00000
LATT -1
SFAC C  
C      1  0.4912880000000  0.4792290000000  0.4578750000000 1.0
C      1  0.5199180000000  0.5446270000000  0.5167040000000 1.0
C      1  0.5151120000000  0.5294990000000  0.4940180000000 1.0
C      1  0.4743210000000  0.4581810000000  0.5151110000000 1.0
C      1  0.4946370000000  0.4933900000000  0.5472030000000 1.0
C      1  0.5100670000000  0.5143140000000  0.4734030000000 1.0
C      1  0.5122600000000  0.5129640000000  0.4477760000000 1.0
C      1  0.4891030000000  0.4795010000000  0.4842860000000 1.0
C      1  0.4765320000000  0.4586250000000  0.4908130000000 1.0
C      1  0.4854940000000  0.4776610000000  0.5262250000000 1.0
C      1  0.5095620000000  0.5173580000000  0.5596180000000 1.0
C      1  0.5015780000000  0.4934150000000  0.4389820000000 1.0
C      1  0.5201270000000  0.5412360000000  0.5479860000000 1.0
END
