TITL C-4164238-4211-203 5.58792417265085 125000 -15145.8484053422 0 0 102 (C1) n - 1
REM
REM in /home/nfs/bkarasulu/CARBON/AIRSS/Generating-Clusters/ReaxFF-fromJPCA2015/Units_Real/with-SteepDescent/Only-C1/SD-CG/Try1-3A/FIRE-CG
REM
REM
REM
REM
REM
REM ./C.cell (11c1c37f851c82e70ff6c80c92926a4b)
REM
REM compiler GCC version 9.2.1 20190827 (Red Hat 9.2.1-1)
REM options -cpp -mtune=generic -march=x86-64 -g -O0 -fpre-include=/usr/include/finclude/math-vector-fortran.h
REM seed 1478734032 2119980114 -1686479676 2132073987 -1610035000 432008112 1526334599 710653981 1009871336 -2092189076 -1734509441 1066741245 1833266687 -1424873397 264319665 -1533172089 -377998462 1006272686 1607246092 1708826960 -298853001 1290429510 -2103180509 -550224348 2044208210 1287775254 164553797 -1681207892 319482814 -891525631 593418735 1891232175 1494856506
REM
CELL 1.54180   50.00000   50.00000   50.00000   90.00000   90.00000   90.00000
LATT -1
SFAC C  
C      1  0.5518640000000  0.5431550000000  0.5798420000000 1.0
C      1  0.4628960000000  0.4878630000000  0.4662840000000 1.0
C      1  0.4765020000000  0.4231140000000  0.5208810000000 1.0
C      1  0.5551070000000  0.4287620000000  0.4731550000000 1.0
C      1  0.4616520000000  0.5765760000000  0.4976190000000 1.0
C      1  0.4634340000000  0.4464320000000  0.4340680000000 1.0
C      1  0.5045420000000  0.4747580000000  0.4166470000000 1.0
C      1  0.4617540000000  0.4383590000000  0.4620140000000 1.0
C      1  0.4857610000000  0.5443030000000  0.5756090000000 1.0
C      1  0.4604480000000  0.5112290000000  0.5375440000000 1.0
C      1  0.4794410000000  0.5316090000000  0.5309740000000 1.0
C      1  0.4199930000000  0.4735070000000  0.5203650000000 1.0
C      1  0.5290490000000  0.4587370000000  0.4198850000000 1.0
C      1  0.5575090000000  0.5406660000000  0.4872870000000 1.0
C      1  0.5297320000000  0.5614220000000  0.5874600000000 1.0
C      1  0.4246300000000  0.5440610000000  0.4920790000000 1.0
C      1  0.5118240000000  0.5164790000000  0.5610460000000 1.0
C      1  0.5675450000000  0.5304640000000  0.5588010000000 1.0
C      1  0.4946360000000  0.5076290000000  0.5810230000000 1.0
C      1  0.5216580000000  0.4676000000000  0.5791830000000 1.0
C      1  0.4836280000000  0.4373900000000  0.5644760000000 1.0
C      1  0.4504130000000  0.4968880000000  0.4860680000000 1.0
C      1  0.5048220000000  0.5827740000000  0.5481860000000 1.0
C      1  0.5359500000000  0.4669900000000  0.4888040000000 1.0
C      1  0.5544910000000  0.4382260000000  0.4464710000000 1.0
C      1  0.5243960000000  0.5628530000000  0.5394980000000 1.0
C      1  0.4926670000000  0.4664380000000  0.5095530000000 1.0
C      1  0.4326640000000  0.5101330000000  0.5510860000000 1.0
C      1  0.4574920000000  0.5523280000000  0.5679800000000 1.0
C      1  0.4891080000000  0.4865580000000  0.4812680000000 1.0
C      1  0.4694530000000  0.5640440000000  0.4509600000000 1.0
C      1  0.4100200000000  0.5286050000000  0.5140010000000 1.0
C      1  0.5525200000000  0.5243750000000  0.4298610000000 1.0
C      1  0.5868220000000  0.5252530000000  0.5169210000000 1.0
C      1  0.5373830000000  0.5231420000000  0.4997580000000 1.0
C      1  0.4199410000000  0.4848300000000  0.4424670000000 1.0
C      1  0.5198520000000  0.4086600000000  0.5072400000000 1.0
C      1  0.5194250000000  0.4162370000000  0.5343840000000 1.0
C      1  0.5078000000000  0.5048340000000  0.4235660000000 1.0
C      1  0.4779390000000  0.5787410000000  0.4740460000000 1.0
C      1  0.5715650000000  0.4986150000000  0.4737730000000 1.0
C      1  0.5882120000000  0.4998450000000  0.5321180000000 1.0
C      1  0.5331890000000  0.5164340000000  0.4095830000000 1.0
C      1  0.5010070000000  0.5392910000000  0.5475040000000 1.0
C      1  0.5097920000000  0.4828870000000  0.4642390000000 1.0
C      1  0.5170610000000  0.5219530000000  0.4785940000000 1.0
C      1  0.4857030000000  0.5264810000000  0.4250050000000 1.0
C      1  0.4145460000000  0.5000520000000  0.5076320000000 1.0
C      1  0.4292940000000  0.4816710000000  0.5466250000000 1.0
C      1  0.5188260000000  0.4984170000000  0.5398730000000 1.0
C      1  0.5640840000000  0.4741870000000  0.4873540000000 1.0
C      1  0.4406650000000  0.5581770000000  0.5455570000000 1.0
C      1  0.5366060000000  0.4421760000000  0.5324500000000 1.0
C      1  0.4816620000000  0.5835450000000  0.5319920000000 1.0
C      1  0.5515060000000  0.5683910000000  0.4974250000000 1.0
C      1  0.4438980000000  0.5057140000000  0.5082460000000 1.0
C      1  0.4866940000000  0.4251800000000  0.4704380000000 1.0
C      1  0.5860050000000  0.4779050000000  0.5245650000000 1.0
C      1  0.4390880000000  0.4478580000000  0.4782070000000 1.0
C      1  0.4726530000000  0.4876740000000  0.5475020000000 1.0
C      1  0.4919460000000  0.4178840000000  0.5458500000000 1.0
C      1  0.5491400000000  0.4678120000000  0.4393760000000 1.0
C      1  0.4513860000000  0.4927070000000  0.4384580000000 1.0
C      1  0.5071590000000  0.5815670000000  0.4687620000000 1.0
C      1  0.5543910000000  0.4995540000000  0.4497350000000 1.0
C      1  0.4966680000000  0.4837500000000  0.5329450000000 1.0
C      1  0.5506200000000  0.5628530000000  0.5272190000000 1.0
C      1  0.5728990000000  0.5443850000000  0.5338780000000 1.0
C      1  0.4752760000000  0.5339910000000  0.5025820000000 1.0
C      1  0.4527810000000  0.5506710000000  0.4954880000000 1.0
C      1  0.4911430000000  0.5537070000000  0.4345030000000 1.0
C      1  0.4547780000000  0.4649660000000  0.5504100000000 1.0
C      1  0.5205190000000  0.4580790000000  0.5108870000000 1.0
C      1  0.5632080000000  0.5046610000000  0.5442030000000 1.0
C      1  0.4940400000000  0.4804060000000  0.5860550000000 1.0
C      1  0.5105100000000  0.4342290000000  0.4564170000000 1.0
C      1  0.4731170000000  0.4592400000000  0.5763590000000 1.0
C      1  0.5165220000000  0.5651640000000  0.4437610000000 1.0
C      1  0.5035500000000  0.5684940000000  0.5757410000000 1.0
C      1  0.4222610000000  0.5347040000000  0.5400330000000 1.0
C      1  0.4564450000000  0.5781640000000  0.5261970000000 1.0
C      1  0.5389720000000  0.4556600000000  0.5613800000000 1.0
C      1  0.5413680000000  0.5506700000000  0.4385550000000 1.0
C      1  0.5241990000000  0.4616430000000  0.4630140000000 1.0
C      1  0.5275380000000  0.4321100000000  0.4333590000000 1.0
C      1  0.5611080000000  0.4369640000000  0.5135740000000 1.0
C      1  0.4927080000000  0.4149560000000  0.4979000000000 1.0
C      1  0.4586670000000  0.5219200000000  0.4313860000000 1.0
C      1  0.5231450000000  0.5049280000000  0.4550600000000 1.0
C      1  0.4640650000000  0.4500810000000  0.5211520000000 1.0
C      1  0.5413350000000  0.5065340000000  0.5239390000000 1.0
C      1  0.4385400000000  0.4544950000000  0.5064120000000 1.0
C      1  0.5803440000000  0.5228260000000  0.4887190000000 1.0
C      1  0.5486160000000  0.4171490000000  0.4968660000000 1.0
C      1  0.5770940000000  0.4596930000000  0.5075120000000 1.0
C      1  0.4221890000000  0.5427980000000  0.4624990000000 1.0
C      1  0.4845510000000  0.4556390000000  0.4167780000000 1.0
C      1  0.4903960000000  0.5162380000000  0.4854410000000 1.0
C      1  0.4470410000000  0.5448250000000  0.4457250000000 1.0
C      1  0.5286680000000  0.5763540000000  0.4841190000000 1.0
C      1  0.4634440000000  0.4720000000000  0.4199500000000 1.0
C      1  0.4188350000000  0.4630520000000  0.4607580000000 1.0
END
