TITL C-4164241-3639-151 22.4054599718516 125000 -22113.3094879396 0 0 149 (C1) n - 1
REM
REM in /home/nfs/bkarasulu/CARBON/AIRSS/Generating-Clusters/ReaxFF-fromJPCA2015/Units_Real/with-SteepDescent/Only-C1/SD-CG/Try1-3A/FIRE-CG
REM
REM
REM
REM
REM
REM ./C.cell (11c1c37f851c82e70ff6c80c92926a4b)
REM
REM compiler GCC version 9.2.1 20190827 (Red Hat 9.2.1-1)
REM options -cpp -mtune=generic -march=x86-64 -g -O0 -fpre-include=/usr/include/finclude/math-vector-fortran.h
REM seed 1875362748 -1060089375 -1634331630 -1989665759 -1358489231 990629291 -1238321844 1820683471 -908150491 667199088 -608655918 82879105 -396064849 593059379 -567423886 165144519 526470953 1100274961 -415290897 -725902739 -253825530 -1208911072 54162741 -2017792826 -1068197868 -1830614566 -324229913 1988606352 -454060898 -546628222 -1183044305 -2033341736 -37680676
REM
CELL 1.54180   50.00000   50.00000   50.00000   90.00000   90.00000   90.00000
LATT -1
SFAC C  
C      1  0.5894800000000  0.5217620000000  0.4724170000000 1.0
C      1  0.5374340000000  0.4821380000000  0.4028870000000 1.0
C      1  0.4462950000000  0.5755050000000  0.5216940000000 1.0
C      1  0.4525440000000  0.5019700000000  0.4172880000000 1.0
C      1  0.5282390000000  0.5113840000000  0.5158920000000 1.0
C      1  0.4414440000000  0.3970780000000  0.4577890000000 1.0
C      1  0.5373610000000  0.5297700000000  0.4198150000000 1.0
C      1  0.5349920000000  0.5771620000000  0.5741110000000 1.0
C      1  0.4372350000000  0.4669630000000  0.4438720000000 1.0
C      1  0.5421120000000  0.4827600000000  0.5142130000000 1.0
C      1  0.4205460000000  0.5642360000000  0.5088590000000 1.0
C      1  0.4421480000000  0.4953060000000  0.5989090000000 1.0
C      1  0.5645030000000  0.5416660000000  0.4240230000000 1.0
C      1  0.4188970000000  0.5169640000000  0.4546070000000 1.0
C      1  0.5798280000000  0.4631980000000  0.5402550000000 1.0
C      1  0.4574920000000  0.5531230000000  0.4219290000000 1.0
C      1  0.5923560000000  0.4457260000000  0.5226040000000 1.0
C      1  0.4451280000000  0.5241610000000  0.5192060000000 1.0
C      1  0.5617940000000  0.4786890000000  0.4185150000000 1.0
C      1  0.5340060000000  0.5824480000000  0.5026390000000 1.0
C      1  0.4839820000000  0.5510880000000  0.5057600000000 1.0
C      1  0.4908150000000  0.5853570000000  0.4407020000000 1.0
C      1  0.4799120000000  0.4085120000000  0.4513210000000 1.0
C      1  0.5222160000000  0.4528040000000  0.4736600000000 1.0
C      1  0.5156390000000  0.4618200000000  0.4036890000000 1.0
C      1  0.4988790000000  0.5577590000000  0.5335310000000 1.0
C      1  0.5708800000000  0.5502950000000  0.5585860000000 1.0
C      1  0.5085760000000  0.5356970000000  0.4776360000000 1.0
C      1  0.4964840000000  0.4541650000000  0.4604250000000 1.0
C      1  0.4232130000000  0.5352050000000  0.5670280000000 1.0
C      1  0.5434720000000  0.4345970000000  0.5199190000000 1.0
C      1  0.4821320000000  0.4337860000000  0.5705830000000 1.0
C      1  0.4650560000000  0.4729790000000  0.4077300000000 1.0
C      1  0.4989360000000  0.4358270000000  0.5471520000000 1.0
C      1  0.5539850000000  0.5641510000000  0.5389890000000 1.0
C      1  0.5344610000000  0.4800930000000  0.5416750000000 1.0
C      1  0.4826260000000  0.5822560000000  0.5476340000000 1.0
C      1  0.5232480000000  0.5906650000000  0.5540240000000 1.0
C      1  0.4970390000000  0.5110080000000  0.4458400000000 1.0
C      1  0.5586190000000  0.4448850000000  0.5478510000000 1.0
C      1  0.4362790000000  0.4239090000000  0.5247260000000 1.0
C      1  0.5920270000000  0.4367310000000  0.4820470000000 1.0
C      1  0.5766420000000  0.4868580000000  0.5193420000000 1.0
C      1  0.4623950000000  0.5450030000000  0.5215270000000 1.0
C      1  0.5766910000000  0.4957560000000  0.4597060000000 1.0
C      1  0.5191820000000  0.5472390000000  0.4155460000000 1.0
C      1  0.4443380000000  0.5812720000000  0.4659990000000 1.0
C      1  0.5332150000000  0.5236510000000  0.5408080000000 1.0
C      1  0.5407640000000  0.5008320000000  0.5881840000000 1.0
C      1  0.5652400000000  0.5648920000000  0.4698940000000 1.0
C      1  0.4398560000000  0.5635590000000  0.4425720000000 1.0
C      1  0.4877300000000  0.4952230000000  0.4981860000000 1.0
C      1  0.4288500000000  0.4630340000000  0.5662450000000 1.0
C      1  0.4140370000000  0.4316820000000  0.4842380000000 1.0
C      1  0.4947640000000  0.4664660000000  0.5082250000000 1.0
C      1  0.5556410000000  0.4636000000000  0.4429790000000 1.0
C      1  0.5030600000000  0.5206630000000  0.6130050000000 1.0
C      1  0.4472080000000  0.4698290000000  0.5866330000000 1.0
C      1  0.5798400000000  0.5616280000000  0.4975920000000 1.0
C      1  0.4801260000000  0.4642550000000  0.5816170000000 1.0
C      1  0.4869850000000  0.5492620000000  0.4767300000000 1.0
C      1  0.5480660000000  0.5906960000000  0.4608120000000 1.0
C      1  0.4913600000000  0.4764020000000  0.3955680000000 1.0
C      1  0.5623470000000  0.5773640000000  0.5145590000000 1.0
C      1  0.4233690000000  0.5460590000000  0.4580660000000 1.0
C      1  0.5039810000000  0.4728840000000  0.6010260000000 1.0
C      1  0.5346340000000  0.5288670000000  0.4882560000000 1.0
C      1  0.4854060000000  0.4382520000000  0.4372830000000 1.0
C      1  0.4719550000000  0.4635170000000  0.5248420000000 1.0
C      1  0.4212470000000  0.5115660000000  0.5853320000000 1.0
C      1  0.4534010000000  0.4848950000000  0.5286960000000 1.0
C      1  0.4909410000000  0.5072620000000  0.5456460000000 1.0
C      1  0.5243420000000  0.5185700000000  0.4437790000000 1.0
C      1  0.5260650000000  0.4257930000000  0.4638420000000 1.0
C      1  0.4716090000000  0.5433420000000  0.5769850000000 1.0
C      1  0.4103880000000  0.4540890000000  0.4641260000000 1.0
C      1  0.5193730000000  0.4023090000000  0.4768950000000 1.0
C      1  0.5241030000000  0.5965600000000  0.4755050000000 1.0
C      1  0.4654940000000  0.5949630000000  0.5071880000000 1.0
C      1  0.4059690000000  0.5284350000000  0.4929760000000 1.0
C      1  0.4155480000000  0.4408120000000  0.5120250000000 1.0
C      1  0.6085280000000  0.4507860000000  0.4999930000000 1.0
C      1  0.5004070000000  0.5654840000000  0.4226660000000 1.0
C      1  0.4503350000000  0.5322460000000  0.4036250000000 1.0
C      1  0.4388880000000  0.4836220000000  0.4873900000000 1.0
C      1  0.4885450000000  0.4975640000000  0.4697360000000 1.0
C      1  0.5580290000000  0.4186690000000  0.4986480000000 1.0
C      1  0.4325350000000  0.4086700000000  0.4823340000000 1.0
C      1  0.4250720000000  0.4813830000000  0.5406370000000 1.0
C      1  0.4232680000000  0.5660750000000  0.4802600000000 1.0
C      1  0.4913050000000  0.4939510000000  0.6166070000000 1.0
C      1  0.5408660000000  0.4514080000000  0.5709890000000 1.0
C      1  0.4579190000000  0.3934480000000  0.4417550000000 1.0
C      1  0.5312210000000  0.4735010000000  0.5911260000000 1.0
C      1  0.4795500000000  0.4083370000000  0.5045070000000 1.0
C      1  0.5511330000000  0.4821280000000  0.4660740000000 1.0
C      1  0.5795710000000  0.4979750000000  0.4313070000000 1.0
C      1  0.5737400000000  0.5226840000000  0.5515590000000 1.0
C      1  0.4098200000000  0.4785180000000  0.4890320000000 1.0
C      1  0.4329650000000  0.4967400000000  0.4385200000000 1.0
C      1  0.5410270000000  0.5592790000000  0.4853140000000 1.0
C      1  0.5301180000000  0.5219080000000  0.6039810000000 1.0
C      1  0.5118310000000  0.4393170000000  0.4211840000000 1.0
C      1  0.4808650000000  0.5594150000000  0.4434210000000 1.0
C      1  0.4160750000000  0.5088440000000  0.5575560000000 1.0
C      1  0.4176420000000  0.5363130000000  0.5169480000000 1.0
C      1  0.5849970000000  0.5255250000000  0.4258900000000 1.0
C      1  0.5232870000000  0.4583840000000  0.5032770000000 1.0
C      1  0.4525900000000  0.4690440000000  0.4687540000000 1.0
C      1  0.4685920000000  0.5935150000000  0.4789480000000 1.0
C      1  0.5866070000000  0.5340330000000  0.5019560000000 1.0
C      1  0.4858170000000  0.4861400000000  0.5629260000000 1.0
C      1  0.5160790000000  0.5961400000000  0.5268670000000 1.0
C      1  0.5361090000000  0.3995630000000  0.5001410000000 1.0
C      1  0.5372330000000  0.5079560000000  0.4667440000000 1.0
C      1  0.4871980000000  0.6011920000000  0.5258140000000 1.0
C      1  0.5699210000000  0.4251090000000  0.4713060000000 1.0
C      1  0.5390590000000  0.5425430000000  0.5937880000000 1.0
C      1  0.5324820000000  0.4262440000000  0.4364280000000 1.0
C      1  0.4906010000000  0.4019780000000  0.4782760000000 1.0
C      1  0.5273950000000  0.5091900000000  0.3995810000000 1.0
C      1  0.4597970000000  0.4542990000000  0.4273650000000 1.0
C      1  0.4568330000000  0.4381060000000  0.5358710000000 1.0
C      1  0.4542760000000  0.5761780000000  0.5509760000000 1.0
C      1  0.4954890000000  0.5972610000000  0.4662320000000 1.0
C      1  0.4606430000000  0.4229730000000  0.5567150000000 1.0
C      1  0.4460650000000  0.5549630000000  0.5691960000000 1.0
C      1  0.6015720000000  0.4815320000000  0.5018860000000 1.0
C      1  0.4648690000000  0.5060450000000  0.6099680000000 1.0
C      1  0.5275610000000  0.5512000000000  0.5409630000000 1.0
C      1  0.4986640000000  0.5047160000000  0.3982940000000 1.0
C      1  0.4506920000000  0.4098960000000  0.5050550000000 1.0
C      1  0.6074440000000  0.5028630000000  0.4845330000000 1.0
C      1  0.5545760000000  0.5585290000000  0.5818540000000 1.0
C      1  0.5819690000000  0.5160830000000  0.5252420000000 1.0
C      1  0.5011930000000  0.5081920000000  0.5179170000000 1.0
C      1  0.4017960000000  0.5070120000000  0.4768640000000 1.0
C      1  0.5482000000000  0.5052480000000  0.5585350000000 1.0
C      1  0.4773590000000  0.5303930000000  0.6024980000000 1.0
C      1  0.4819230000000  0.5121460000000  0.4211600000000 1.0
C      1  0.5822590000000  0.5448000000000  0.4465720000000 1.0
C      1  0.4551370000000  0.5005340000000  0.5049800000000 1.0
C      1  0.4817330000000  0.5372500000000  0.5496070000000 1.0
C      1  0.5261280000000  0.4120230000000  0.5224320000000 1.0
C      1  0.4985750000000  0.4158780000000  0.5253380000000 1.0
C      1  0.4102430000000  0.4680950000000  0.5171740000000 1.0
C      1  0.5188210000000  0.4581910000000  0.5527990000000 1.0
C      1  0.5595440000000  0.4347180000000  0.4437720000000 1.0
C      1  0.4789430000000  0.4731220000000  0.4658730000000 1.0
END
