TITL C-4164236-1577-520 -7.55100643438025 125000 -12745.9248101042 0 0 87 (C1) n - 1
REM
REM in /home/nfs/bkarasulu/CARBON/AIRSS/Generating-Clusters/ReaxFF-fromJPCA2015/Units_Real/with-SteepDescent/Only-C1/SD-CG/Try1-3A/FIRE-CG
REM
REM
REM
REM
REM
REM ./C.cell (11c1c37f851c82e70ff6c80c92926a4b)
REM
REM compiler GCC version 9.2.1 20190827 (Red Hat 9.2.1-1)
REM options -cpp -mtune=generic -march=x86-64 -g -O0 -fpre-include=/usr/include/finclude/math-vector-fortran.h
REM seed 1687630647 -1908379231 -1858350784 1267225617 -250610618 -1075851825 1031351115 986494589 -1897171263 -611961366 -935794117 -2080591940 307048490 -1114590708 -258103902 1324955884 382213029 -1940365528 346255539 -648606328 -1361680009 -1111676856 -707776618 -261565358 133101950 1445110808 1963386278 -1562964478 -1713486275 1209203484 1882522684 105536885 1532640419
REM
CELL 1.54180   50.00000   50.00000   50.00000   90.00000   90.00000   90.00000
LATT -1
SFAC C  
C      1  0.4651770000000  0.5002690000000  0.5153790000000 1.0
C      1  0.4266270000000  0.5411730000000  0.5339100000000 1.0
C      1  0.5850080000000  0.5104940000000  0.4876340000000 1.0
C      1  0.5092760000000  0.4930620000000  0.5299970000000 1.0
C      1  0.4807230000000  0.4844900000000  0.4693420000000 1.0
C      1  0.4846750000000  0.5602500000000  0.5668880000000 1.0
C      1  0.5345210000000  0.5305660000000  0.5256700000000 1.0
C      1  0.5036590000000  0.4681800000000  0.5832360000000 1.0
C      1  0.4854950000000  0.5527850000000  0.5158550000000 1.0
C      1  0.4940230000000  0.5082070000000  0.4578410000000 1.0
C      1  0.4715860000000  0.4804480000000  0.4948990000000 1.0
C      1  0.4449580000000  0.4279120000000  0.5082530000000 1.0
C      1  0.5660860000000  0.5532750000000  0.5128270000000 1.0
C      1  0.4294420000000  0.5448080000000  0.5053410000000 1.0
C      1  0.4678860000000  0.5338940000000  0.5685430000000 1.0
C      1  0.5344900000000  0.5155240000000  0.4159440000000 1.0
C      1  0.5133260000000  0.5053960000000  0.5004320000000 1.0
C      1  0.5004220000000  0.5613080000000  0.4739350000000 1.0
C      1  0.5797740000000  0.5386950000000  0.4898510000000 1.0
C      1  0.4381310000000  0.4747140000000  0.5479270000000 1.0
C      1  0.4648090000000  0.4109090000000  0.5235640000000 1.0
C      1  0.4470630000000  0.4432140000000  0.4837120000000 1.0
C      1  0.5127030000000  0.4178760000000  0.5029660000000 1.0
C      1  0.5204330000000  0.4842320000000  0.4822690000000 1.0
C      1  0.5197110000000  0.5152780000000  0.5439680000000 1.0
C      1  0.5294260000000  0.4437860000000  0.5399360000000 1.0
C      1  0.5264320000000  0.5132920000000  0.5726790000000 1.0
C      1  0.5336390000000  0.5395750000000  0.4202580000000 1.0
C      1  0.5404610000000  0.5666900000000  0.5075130000000 1.0
C      1  0.4802420000000  0.4899320000000  0.5386300000000 1.0
C      1  0.5840010000000  0.4541430000000  0.4965180000000 1.0
C      1  0.5108370000000  0.5647900000000  0.5552360000000 1.0
C      1  0.4719000000000  0.5728530000000  0.4816510000000 1.0
C      1  0.4589350000000  0.5311840000000  0.4444290000000 1.0
C      1  0.5164510000000  0.5572970000000  0.5257920000000 1.0
C      1  0.5391300000000  0.5179640000000  0.5001210000000 1.0
C      1  0.5666960000000  0.5256760000000  0.5591420000000 1.0
C      1  0.4611310000000  0.4634810000000  0.4241570000000 1.0
C      1  0.5467930000000  0.5187070000000  0.4719230000000 1.0
C      1  0.5234610000000  0.4878290000000  0.5840000000000 1.0
C      1  0.4524910000000  0.4368600000000  0.5349610000000 1.0
C      1  0.4370350000000  0.4932340000000  0.5246980000000 1.0
C      1  0.5273940000000  0.5022800000000  0.4543400000000 1.0
C      1  0.5048670000000  0.4480900000000  0.4358970000000 1.0
C      1  0.4968200000000  0.5278570000000  0.4814790000000 1.0
C      1  0.5650370000000  0.5407880000000  0.4646850000000 1.0
C      1  0.4318370000000  0.4676720000000  0.4270010000000 1.0
C      1  0.4779770000000  0.5517450000000  0.4389670000000 1.0
C      1  0.4767810000000  0.5065150000000  0.5646570000000 1.0
C      1  0.4958800000000  0.4676680000000  0.4862100000000 1.0
C      1  0.4285380000000  0.5202890000000  0.4875760000000 1.0
C      1  0.5309220000000  0.4722040000000  0.5360480000000 1.0
C      1  0.4470400000000  0.4772780000000  0.5782540000000 1.0
C      1  0.4608730000000  0.5720350000000  0.5530240000000 1.0
C      1  0.4775570000000  0.5113820000000  0.4320760000000 1.0
C      1  0.4259550000000  0.4919780000000  0.4981150000000 1.0
C      1  0.4758190000000  0.4435820000000  0.4401530000000 1.0
C      1  0.5525610000000  0.4738210000000  0.5162710000000 1.0
C      1  0.4900820000000  0.4121520000000  0.5153120000000 1.0
C      1  0.4518620000000  0.5296210000000  0.4737150000000 1.0
C      1  0.5710740000000  0.5407970000000  0.5382540000000 1.0
C      1  0.5435530000000  0.4713400000000  0.4879730000000 1.0
C      1  0.5119360000000  0.4466570000000  0.5637140000000 1.0
C      1  0.5375790000000  0.4274010000000  0.5151030000000 1.0
C      1  0.5766830000000  0.4604670000000  0.5224500000000 1.0
C      1  0.4674080000000  0.5739760000000  0.5241040000000 1.0
C      1  0.5303870000000  0.4903340000000  0.4269520000000 1.0
C      1  0.4443840000000  0.5481440000000  0.5575510000000 1.0
C      1  0.4639220000000  0.4620840000000  0.5432040000000 1.0
C      1  0.5205620000000  0.4381090000000  0.4584140000000 1.0
C      1  0.5012870000000  0.5664590000000  0.4439100000000 1.0
C      1  0.4293390000000  0.4678670000000  0.4810410000000 1.0
C      1  0.5299400000000  0.5630800000000  0.4345520000000 1.0
C      1  0.4802220000000  0.4853100000000  0.4191690000000 1.0
C      1  0.5590110000000  0.4342660000000  0.4958300000000 1.0
C      1  0.4498580000000  0.5698280000000  0.4998920000000 1.0
C      1  0.5867830000000  0.4828400000000  0.4901120000000 1.0
C      1  0.5467950000000  0.5638430000000  0.4587060000000 1.0
C      1  0.4701450000000  0.4353450000000  0.4672000000000 1.0
C      1  0.4733170000000  0.5301900000000  0.4989780000000 1.0
C      1  0.4986650000000  0.4344630000000  0.4780020000000 1.0
C      1  0.5448370000000  0.4467600000000  0.4731050000000 1.0
C      1  0.5069690000000  0.4731970000000  0.4212900000000 1.0
C      1  0.5301350000000  0.5701940000000  0.4814730000000 1.0
C      1  0.4188570000000  0.4710720000000  0.4538160000000 1.0
C      1  0.4753160000000  0.4840950000000  0.5834720000000 1.0
C      1  0.5541670000000  0.5106760000000  0.5761230000000 1.0
END
