TITL C-4164235-1454-295 21.2879935868404 125000 -18434.416074845 0 0 125 (C1) n - 1
REM
REM in /home/nfs/bkarasulu/CARBON/AIRSS/Generating-Clusters/ReaxFF-fromJPCA2015/Units_Real/with-SteepDescent/Only-C1/SD-CG/Try1-3A/FIRE-CG
REM
REM
REM
REM
REM
REM ./C.cell (11c1c37f851c82e70ff6c80c92926a4b)
REM
REM compiler GCC version 9.2.1 20190827 (Red Hat 9.2.1-1)
REM options -cpp -mtune=generic -march=x86-64 -g -O0 -fpre-include=/usr/include/finclude/math-vector-fortran.h
REM seed 187065352 -735766714 766122262 -1081937223 1110381768 -1148512592 1956654063 -1706985565 223845640 401335970 1746451857 203137556 1188483627 -1881737923 201503987 1181784653 -119713421 -680401756 -460476472 -1256184286 -1596463321 -1354735911 301320046 -856371131 778160731 720562324 -1490926608 -1873752661 -531453085 163782386 -939879790 1990905994 1454028359
REM
CELL 1.54180   50.00000   50.00000   50.00000   90.00000   90.00000   90.00000
LATT -1
SFAC C  
C      1  0.4619040000000  0.5272560000000  0.5764990000000 1.0
C      1  0.4275110000000  0.4368810000000  0.5040570000000 1.0
C      1  0.4993290000000  0.4930530000000  0.5919130000000 1.0
C      1  0.4567500000000  0.4937760000000  0.5404420000000 1.0
C      1  0.4948760000000  0.5440940000000  0.4165310000000 1.0
C      1  0.4837910000000  0.5428120000000  0.4685110000000 1.0
C      1  0.5068360000000  0.4540940000000  0.4869100000000 1.0
C      1  0.4978940000000  0.5833570000000  0.5112580000000 1.0
C      1  0.5521820000000  0.4783000000000  0.4920580000000 1.0
C      1  0.5423280000000  0.4222010000000  0.5014030000000 1.0
C      1  0.5845330000000  0.5010070000000  0.5407770000000 1.0
C      1  0.5353510000000  0.4612190000000  0.5756510000000 1.0
C      1  0.4526060000000  0.5865320000000  0.4905720000000 1.0
C      1  0.4858010000000  0.4432550000000  0.5039930000000 1.0
C      1  0.4125590000000  0.4970370000000  0.5389310000000 1.0
C      1  0.4185890000000  0.5029810000000  0.4691600000000 1.0
C      1  0.5498240000000  0.5457370000000  0.4649280000000 1.0
C      1  0.4648040000000  0.4891550000000  0.4275700000000 1.0
C      1  0.4589670000000  0.5624450000000  0.5433930000000 1.0
C      1  0.5462450000000  0.4406390000000  0.4371120000000 1.0
C      1  0.5787400000000  0.5290420000000  0.5337660000000 1.0
C      1  0.5491160000000  0.4841700000000  0.4629440000000 1.0
C      1  0.5013540000000  0.4452040000000  0.4396160000000 1.0
C      1  0.4297780000000  0.5195700000000  0.4507580000000 1.0
C      1  0.5335820000000  0.5758890000000  0.4443300000000 1.0
C      1  0.4396790000000  0.4671430000000  0.4653150000000 1.0
C      1  0.4705300000000  0.5541090000000  0.5697170000000 1.0
C      1  0.5427090000000  0.5478570000000  0.4924260000000 1.0
C      1  0.5172750000000  0.5146260000000  0.5445230000000 1.0
C      1  0.4756220000000  0.5873860000000  0.4388830000000 1.0
C      1  0.4401110000000  0.4620720000000  0.5699850000000 1.0
C      1  0.4745740000000  0.4410170000000  0.4490290000000 1.0
C      1  0.6056830000000  0.5001480000000  0.4778640000000 1.0
C      1  0.4971120000000  0.4629660000000  0.5438640000000 1.0
C      1  0.4977360000000  0.5321680000000  0.5486680000000 1.0
C      1  0.5489820000000  0.5062290000000  0.4984190000000 1.0
C      1  0.5258880000000  0.4948480000000  0.4515920000000 1.0
C      1  0.4354940000000  0.5435270000000  0.5431380000000 1.0
C      1  0.4144750000000  0.4746040000000  0.5564730000000 1.0
C      1  0.4750200000000  0.4602620000000  0.5248830000000 1.0
C      1  0.4687480000000  0.5828980000000  0.5148670000000 1.0
C      1  0.4897840000000  0.5727770000000  0.4612590000000 1.0
C      1  0.5227410000000  0.5202190000000  0.4412930000000 1.0
C      1  0.5258290000000  0.4852860000000  0.5910260000000 1.0
C      1  0.4222190000000  0.5088820000000  0.5147990000000 1.0
C      1  0.5113630000000  0.4695450000000  0.4254210000000 1.0
C      1  0.5292880000000  0.4629970000000  0.5030330000000 1.0
C      1  0.4640490000000  0.4726190000000  0.5809720000000 1.0
C      1  0.5229120000000  0.4329600000000  0.4553040000000 1.0
C      1  0.5940570000000  0.5263590000000  0.4713300000000 1.0
C      1  0.4246470000000  0.4340540000000  0.5332950000000 1.0
C      1  0.4593660000000  0.5254470000000  0.5105390000000 1.0
C      1  0.6086660000000  0.4836550000000  0.5005360000000 1.0
C      1  0.4726130000000  0.4995000000000  0.5880380000000 1.0
C      1  0.5231760000000  0.4159650000000  0.4792620000000 1.0
C      1  0.5063460000000  0.5022980000000  0.5223680000000 1.0
C      1  0.5177040000000  0.5388050000000  0.4989530000000 1.0
C      1  0.4986310000000  0.4919880000000  0.4557490000000 1.0
C      1  0.4958520000000  0.5168670000000  0.4056950000000 1.0
C      1  0.4966090000000  0.5218990000000  0.4542190000000 1.0
C      1  0.4305030000000  0.4273330000000  0.4632600000000 1.0
C      1  0.4664850000000  0.5412720000000  0.4267370000000 1.0
C      1  0.4871860000000  0.4509190000000  0.5698150000000 1.0
C      1  0.5161100000000  0.5852450000000  0.4667170000000 1.0
C      1  0.5161400000000  0.4396700000000  0.5739330000000 1.0
C      1  0.4936220000000  0.4163510000000  0.5136160000000 1.0
C      1  0.5506680000000  0.4658240000000  0.5503160000000 1.0
C      1  0.5219550000000  0.5890960000000  0.4946220000000 1.0
C      1  0.4145660000000  0.4509170000000  0.4654700000000 1.0
C      1  0.5415930000000  0.4667030000000  0.4243530000000 1.0
C      1  0.4299260000000  0.5788290000000  0.5041250000000 1.0
C      1  0.4582550000000  0.4647640000000  0.4427020000000 1.0
C      1  0.4894960000000  0.4107200000000  0.5445740000000 1.0
C      1  0.5203190000000  0.5104820000000  0.4984340000000 1.0
C      1  0.4979880000000  0.4817040000000  0.4819400000000 1.0
C      1  0.4101520000000  0.4588580000000  0.4935300000000 1.0
C      1  0.5622350000000  0.5159930000000  0.4293900000000 1.0
C      1  0.4976600000000  0.5543390000000  0.5100360000000 1.0
C      1  0.5242490000000  0.4576830000000  0.5317310000000 1.0
C      1  0.5716990000000  0.5308160000000  0.4525380000000 1.0
C      1  0.5663670000000  0.4394890000000  0.5012160000000 1.0
C      1  0.5867430000000  0.5480270000000  0.4893330000000 1.0
C      1  0.4085650000000  0.4572790000000  0.5345700000000 1.0
C      1  0.4713380000000  0.4207380000000  0.4711570000000 1.0
C      1  0.4494880000000  0.4743290000000  0.5206280000000 1.0
C      1  0.4104200000000  0.4896200000000  0.4918250000000 1.0
C      1  0.4451600000000  0.4187340000000  0.4853150000000 1.0
C      1  0.6023710000000  0.4712600000000  0.4768750000000 1.0
C      1  0.5684060000000  0.5282350000000  0.5052450000000 1.0
C      1  0.4907440000000  0.4884260000000  0.4140610000000 1.0
C      1  0.5226640000000  0.5563000000000  0.4243350000000 1.0
C      1  0.4605070000000  0.5347530000000  0.4838920000000 1.0
C      1  0.4447350000000  0.5174060000000  0.5551990000000 1.0
C      1  0.4541600000000  0.5662290000000  0.4390000000000 1.0
C      1  0.4439860000000  0.4363650000000  0.5568260000000 1.0
C      1  0.5686250000000  0.4493160000000  0.4510800000000 1.0
C      1  0.4332110000000  0.5435270000000  0.4722500000000 1.0
C      1  0.5911550000000  0.4783580000000  0.5229690000000 1.0
C      1  0.5709350000000  0.4580270000000  0.5226710000000 1.0
C      1  0.5817700000000  0.4500660000000  0.4757680000000 1.0
C      1  0.5248420000000  0.4238640000000  0.5255920000000 1.0
C      1  0.5608060000000  0.4868820000000  0.4358750000000 1.0
C      1  0.5601460000000  0.5703180000000  0.4570100000000 1.0
C      1  0.4494880000000  0.4771580000000  0.4911220000000 1.0
C      1  0.4416830000000  0.5698270000000  0.4656340000000 1.0
C      1  0.4768880000000  0.5023230000000  0.5182530000000 1.0
C      1  0.5352030000000  0.5148190000000  0.5890970000000 1.0
C      1  0.5434950000000  0.5174690000000  0.5581160000000 1.0
C      1  0.4951750000000  0.4081370000000  0.4843790000000 1.0
C      1  0.5034850000000  0.5530630000000  0.5701180000000 1.0
C      1  0.5160640000000  0.4179630000000  0.5538770000000 1.0
C      1  0.4527600000000  0.5159750000000  0.4327090000000 1.0
C      1  0.5184200000000  0.5372020000000  0.5930220000000 1.0
C      1  0.5257660000000  0.5700380000000  0.5539970000000 1.0
C      1  0.5391000000000  0.5322120000000  0.4200160000000 1.0
C      1  0.4175350000000  0.5379710000000  0.5206190000000 1.0
C      1  0.4738650000000  0.4895510000000  0.4930210000000 1.0
C      1  0.5475050000000  0.5761980000000  0.5037010000000 1.0
C      1  0.5470410000000  0.5680640000000  0.5365000000000 1.0
C      1  0.4781670000000  0.5415460000000  0.5279270000000 1.0
C      1  0.4708130000000  0.4264120000000  0.5599700000000 1.0
C      1  0.4169240000000  0.5551500000000  0.4963360000000 1.0
C      1  0.5723320000000  0.5728610000000  0.4838460000000 1.0
C      1  0.5590700000000  0.5439820000000  0.5479650000000 1.0
C      1  0.5605370000000  0.4933250000000  0.5534210000000 1.0
END
