TITL C-4164233-775-630 5.52693008741256 125000 -14630.4465696271 0 0 99 (C1) n - 1
REM
REM in /home/nfs/bkarasulu/CARBON/AIRSS/Generating-Clusters/ReaxFF-fromJPCA2015/Units_Real/with-SteepDescent/Only-C1/SD-CG/Try1-3A/FIRE-CG
REM
REM
REM
REM
REM
REM ./C.cell (11c1c37f851c82e70ff6c80c92926a4b)
REM
REM compiler GCC version 9.2.1 20190827 (Red Hat 9.2.1-1)
REM options -cpp -mtune=generic -march=x86-64 -g -O0 -fpre-include=/usr/include/finclude/math-vector-fortran.h
REM seed 1571431597 -1327548443 660726008 2099929844 405489649 -2125567097 -1566482132 -232514760 -1183085532 1100919108 1551370535 991790365 -1218957687 1362162880 -176776088 774376458 -915416628 -1710401373 -1240543388 -362056054 -2043773393 -2145787788 -1910149417 1544318731 255769562 1913524459 1066496751 -1146657573 260923121 1878093061 1057941916 804523058 1951155927
REM
CELL 1.54180   50.00000   50.00000   50.00000   90.00000   90.00000   90.00000
LATT -1
SFAC C  
C      1  0.4607760000000  0.5549170000000  0.5121600000000 1.0
C      1  0.4629410000000  0.4715080000000  0.4674100000000 1.0
C      1  0.4099250000000  0.5045370000000  0.5105000000000 1.0
C      1  0.5515010000000  0.5290130000000  0.4479450000000 1.0
C      1  0.5748630000000  0.5449990000000  0.5160030000000 1.0
C      1  0.5331470000000  0.4780290000000  0.5051010000000 1.0
C      1  0.4591880000000  0.4559010000000  0.4904150000000 1.0
C      1  0.4602230000000  0.4137830000000  0.4965280000000 1.0
C      1  0.5189040000000  0.5298170000000  0.4108520000000 1.0
C      1  0.4708450000000  0.4499150000000  0.4308290000000 1.0
C      1  0.4682630000000  0.4875530000000  0.5769960000000 1.0
C      1  0.4930560000000  0.4967570000000  0.5899980000000 1.0
C      1  0.5564720000000  0.5603210000000  0.5322360000000 1.0
C      1  0.5424800000000  0.5524080000000  0.5576380000000 1.0
C      1  0.4437600000000  0.5200500000000  0.4557850000000 1.0
C      1  0.4778450000000  0.4309010000000  0.4519110000000 1.0
C      1  0.4777270000000  0.5435800000000  0.5570090000000 1.0
C      1  0.4178600000000  0.4728710000000  0.4781410000000 1.0
C      1  0.5106280000000  0.4682840000000  0.5192470000000 1.0
C      1  0.5243770000000  0.5025920000000  0.4109550000000 1.0
C      1  0.4277610000000  0.4560380000000  0.5019030000000 1.0
C      1  0.4231120000000  0.5088320000000  0.4443760000000 1.0
C      1  0.4922230000000  0.4691540000000  0.4280720000000 1.0
C      1  0.5209430000000  0.4857540000000  0.5864150000000 1.0
C      1  0.5490300000000  0.4458090000000  0.4497660000000 1.0
C      1  0.4517920000000  0.4951200000000  0.5077830000000 1.0
C      1  0.5269010000000  0.4769860000000  0.4755320000000 1.0
C      1  0.5533070000000  0.4286440000000  0.5275230000000 1.0
C      1  0.4366120000000  0.4267240000000  0.5084170000000 1.0
C      1  0.4498450000000  0.5031870000000  0.4308280000000 1.0
C      1  0.5323840000000  0.5510820000000  0.4448580000000 1.0
C      1  0.4489880000000  0.4709470000000  0.4411360000000 1.0
C      1  0.4784460000000  0.5035010000000  0.4992250000000 1.0
C      1  0.4977980000000  0.5078140000000  0.5196280000000 1.0
C      1  0.5779930000000  0.4395010000000  0.5229230000000 1.0
C      1  0.5043520000000  0.5238420000000  0.5937420000000 1.0
C      1  0.5018690000000  0.4281080000000  0.4699290000000 1.0
C      1  0.4630460000000  0.5611000000000  0.4492720000000 1.0
C      1  0.4972490000000  0.5181020000000  0.4552810000000 1.0
C      1  0.4257060000000  0.5431990000000  0.4831490000000 1.0
C      1  0.4826670000000  0.4533630000000  0.5162190000000 1.0
C      1  0.5651600000000  0.4390150000000  0.4720390000000 1.0
C      1  0.4887570000000  0.4746690000000  0.4573870000000 1.0
C      1  0.4791870000000  0.5166220000000  0.4279560000000 1.0
C      1  0.4367720000000  0.5461480000000  0.4560810000000 1.0
C      1  0.5252860000000  0.5238060000000  0.5094860000000 1.0
C      1  0.4501390000000  0.5035730000000  0.5600710000000 1.0
C      1  0.5758410000000  0.4360960000000  0.4947320000000 1.0
C      1  0.5287810000000  0.4236460000000  0.5380530000000 1.0
C      1  0.4802920000000  0.5474330000000  0.4298930000000 1.0
C      1  0.5094160000000  0.5522670000000  0.4246240000000 1.0
C      1  0.5570660000000  0.4723510000000  0.4400930000000 1.0
C      1  0.5696870000000  0.5539360000000  0.4892650000000 1.0
C      1  0.4759770000000  0.5339110000000  0.4964280000000 1.0
C      1  0.5042390000000  0.5830090000000  0.4758670000000 1.0
C      1  0.4764160000000  0.4705230000000  0.5397210000000 1.0
C      1  0.4920350000000  0.4156170000000  0.4953770000000 1.0
C      1  0.4506290000000  0.5321910000000  0.5541430000000 1.0
C      1  0.5340360000000  0.4652400000000  0.5698760000000 1.0
C      1  0.4289410000000  0.4978850000000  0.4892930000000 1.0
C      1  0.4577150000000  0.4310650000000  0.4732610000000 1.0
C      1  0.4711140000000  0.4602620000000  0.5663770000000 1.0
C      1  0.5432270000000  0.5032820000000  0.5171820000000 1.0
C      1  0.5049290000000  0.4131400000000  0.5211980000000 1.0
C      1  0.4702130000000  0.5795870000000  0.4999590000000 1.0
C      1  0.4908460000000  0.4387610000000  0.5615610000000 1.0
C      1  0.4961270000000  0.5272790000000  0.5405430000000 1.0
C      1  0.5392160000000  0.5780800000000  0.5162620000000 1.0
C      1  0.4969020000000  0.5489320000000  0.5789680000000 1.0
C      1  0.5293290000000  0.5710230000000  0.4663250000000 1.0
C      1  0.4964930000000  0.4950310000000  0.4144050000000 1.0
C      1  0.5580320000000  0.4766420000000  0.5554520000000 1.0
C      1  0.5316390000000  0.5133900000000  0.5893540000000 1.0
C      1  0.5881860000000  0.5169820000000  0.5125820000000 1.0
C      1  0.5466080000000  0.5245990000000  0.5665710000000 1.0
C      1  0.4755610000000  0.5772140000000  0.4702780000000 1.0
C      1  0.5722950000000  0.5328090000000  0.4679240000000 1.0
C      1  0.5131480000000  0.5724220000000  0.5283190000000 1.0
C      1  0.4997350000000  0.4945920000000  0.4743780000000 1.0
C      1  0.4867550000000  0.5337110000000  0.4737350000000 1.0
C      1  0.5246500000000  0.4461880000000  0.4661020000000 1.0
C      1  0.4171500000000  0.4793020000000  0.5237300000000 1.0
C      1  0.5198100000000  0.4415040000000  0.5609890000000 1.0
C      1  0.4398180000000  0.5441100000000  0.5293310000000 1.0
C      1  0.4846240000000  0.4283480000000  0.5346160000000 1.0
C      1  0.5518720000000  0.5041050000000  0.5464410000000 1.0
C      1  0.4416570000000  0.4903100000000  0.5346450000000 1.0
C      1  0.4991160000000  0.5846940000000  0.5048810000000 1.0
C      1  0.5795330000000  0.4672230000000  0.5379910000000 1.0
C      1  0.4191890000000  0.5337300000000  0.5097800000000 1.0
C      1  0.5476730000000  0.5727710000000  0.4885280000000 1.0
C      1  0.5126920000000  0.5433250000000  0.5251670000000 1.0
C      1  0.4996100000000  0.4871180000000  0.5380570000000 1.0
C      1  0.5472760000000  0.4899570000000  0.4582540000000 1.0
C      1  0.4213530000000  0.4793790000000  0.4503460000000 1.0
C      1  0.5895340000000  0.5131630000000  0.4829910000000 1.0
C      1  0.5488450000000  0.4998320000000  0.4315470000000 1.0
C      1  0.5864720000000  0.4915950000000  0.5262570000000 1.0
C      1  0.5155960000000  0.5620600000000  0.5616930000000 1.0
END
