TITL C-4164241-3639-165 14.3319612000868 125000 -17497.7156677808 0 0 118 (C1) n - 1
REM
REM in /home/nfs/bkarasulu/CARBON/AIRSS/Generating-Clusters/ReaxFF-fromJPCA2015/Units_Real/with-SteepDescent/Only-C1/SD-CG/Try1-3A/FIRE-CG
REM
REM
REM
REM
REM
REM ./C.cell (11c1c37f851c82e70ff6c80c92926a4b)
REM
REM compiler GCC version 9.2.1 20190827 (Red Hat 9.2.1-1)
REM options -cpp -mtune=generic -march=x86-64 -g -O0 -fpre-include=/usr/include/finclude/math-vector-fortran.h
REM seed 2105219851 378771782 -2104825539 1467987836 -1865966859 -1026201209 -1892880714 1652893592 1643303431 1853783328 -1913888751 1537039090 2073425841 -1549580364 -954708072 1501156022 1603081396 202167881 1352150046 1725742805 1005933164 1020144511 670681709 260533884 305165908 2046009408 -38657723 662398556 -962553504 -1857797195 -1786936848 -1384598953 1593578750
REM
CELL 1.54180   50.00000   50.00000   50.00000   90.00000   90.00000   90.00000
LATT -1
SFAC C  
C      1  0.5253060000000  0.4732480000000  0.5781740000000 1.0
C      1  0.4785090000000  0.4073430000000  0.5285750000000 1.0
C      1  0.5457240000000  0.5768310000000  0.4815290000000 1.0
C      1  0.5075730000000  0.4043790000000  0.5217820000000 1.0
C      1  0.6026450000000  0.4911450000000  0.5153880000000 1.0
C      1  0.4798380000000  0.4907120000000  0.5036630000000 1.0
C      1  0.6157890000000  0.5179460000000  0.5104750000000 1.0
C      1  0.4594900000000  0.4496110000000  0.4710630000000 1.0
C      1  0.4901540000000  0.5359750000000  0.5257150000000 1.0
C      1  0.5154510000000  0.5207430000000  0.5921560000000 1.0
C      1  0.5552660000000  0.5354940000000  0.4242380000000 1.0
C      1  0.4624560000000  0.5525520000000  0.4134170000000 1.0
C      1  0.5606890000000  0.5600580000000  0.5379460000000 1.0
C      1  0.5193710000000  0.4546750000000  0.5154760000000 1.0
C      1  0.4355470000000  0.4404130000000  0.5541980000000 1.0
C      1  0.5596670000000  0.5126030000000  0.5131950000000 1.0
C      1  0.4781550000000  0.5596460000000  0.5155690000000 1.0
C      1  0.4527690000000  0.5229950000000  0.5512310000000 1.0
C      1  0.5946590000000  0.4457530000000  0.5040030000000 1.0
C      1  0.5160600000000  0.4463520000000  0.5737710000000 1.0
C      1  0.5059230000000  0.4942520000000  0.5842590000000 1.0
C      1  0.4647370000000  0.4478100000000  0.5164050000000 1.0
C      1  0.4769540000000  0.4557950000000  0.4278670000000 1.0
C      1  0.5500840000000  0.5037760000000  0.4335220000000 1.0
C      1  0.5212920000000  0.5105270000000  0.5007110000000 1.0
C      1  0.4164250000000  0.4740670000000  0.4707380000000 1.0
C      1  0.5424600000000  0.5314960000000  0.5859080000000 1.0
C      1  0.4433290000000  0.5874220000000  0.5032710000000 1.0
C      1  0.4316160000000  0.5125930000000  0.5280850000000 1.0
C      1  0.6043840000000  0.5276690000000  0.5374730000000 1.0
C      1  0.4533360000000  0.4212680000000  0.4758500000000 1.0
C      1  0.4411490000000  0.5540410000000  0.5495870000000 1.0
C      1  0.4543060000000  0.5753320000000  0.4305030000000 1.0
C      1  0.5951300000000  0.4230460000000  0.5128250000000 1.0
C      1  0.4102080000000  0.5365260000000  0.5307350000000 1.0
C      1  0.4551490000000  0.5659770000000  0.5728690000000 1.0
C      1  0.5382850000000  0.4916320000000  0.5124720000000 1.0
C      1  0.5061290000000  0.4383520000000  0.4575260000000 1.0
C      1  0.4129050000000  0.5380550000000  0.4554090000000 1.0
C      1  0.5716320000000  0.4951510000000  0.5612190000000 1.0
C      1  0.4550890000000  0.4738010000000  0.4322930000000 1.0
C      1  0.4447090000000  0.4742870000000  0.4620100000000 1.0
C      1  0.5160910000000  0.5631350000000  0.4462730000000 1.0
C      1  0.5016230000000  0.4993270000000  0.4439590000000 1.0
C      1  0.5004370000000  0.4738200000000  0.4276960000000 1.0
C      1  0.5616120000000  0.4449310000000  0.5606450000000 1.0
C      1  0.4027120000000  0.4692750000000  0.4960890000000 1.0
C      1  0.4554140000000  0.4196400000000  0.5087590000000 1.0
C      1  0.5045450000000  0.5485610000000  0.5891870000000 1.0
C      1  0.5563920000000  0.5198770000000  0.5625100000000 1.0
C      1  0.4665070000000  0.5927880000000  0.4852410000000 1.0
C      1  0.5206650000000  0.4000460000000  0.4976620000000 1.0
C      1  0.4817640000000  0.5511290000000  0.5705940000000 1.0
C      1  0.5939180000000  0.4997330000000  0.5424500000000 1.0
C      1  0.4513140000000  0.4597380000000  0.5382620000000 1.0
C      1  0.5267950000000  0.5848090000000  0.5367750000000 1.0
C      1  0.5321800000000  0.5254660000000  0.4781830000000 1.0
C      1  0.4802230000000  0.5307200000000  0.5498390000000 1.0
C      1  0.4118780000000  0.4370690000000  0.5353120000000 1.0
C      1  0.5533560000000  0.5312880000000  0.5356920000000 1.0
C      1  0.5941410000000  0.4707110000000  0.4943060000000 1.0
C      1  0.5339780000000  0.4011100000000  0.4760180000000 1.0
C      1  0.4395640000000  0.4565040000000  0.5786490000000 1.0
C      1  0.4689870000000  0.5883380000000  0.4539460000000 1.0
C      1  0.4900860000000  0.4624700000000  0.5048470000000 1.0
C      1  0.4963560000000  0.5135590000000  0.5102780000000 1.0
C      1  0.4882730000000  0.5831160000000  0.5020600000000 1.0
C      1  0.5405480000000  0.5736610000000  0.5573600000000 1.0
C      1  0.5144340000000  0.5960770000000  0.5134350000000 1.0
C      1  0.5419750000000  0.4648740000000  0.5003120000000 1.0
C      1  0.4921010000000  0.5759530000000  0.4491860000000 1.0
C      1  0.5643070000000  0.5669960000000  0.4635970000000 1.0
C      1  0.5313750000000  0.5584340000000  0.5815890000000 1.0
C      1  0.4774620000000  0.5181750000000  0.4467510000000 1.0
C      1  0.5474530000000  0.4084130000000  0.4539680000000 1.0
C      1  0.5362030000000  0.6032450000000  0.4950170000000 1.0
C      1  0.4332030000000  0.5073910000000  0.4994010000000 1.0
C      1  0.4888780000000  0.4522660000000  0.4743330000000 1.0
C      1  0.3974970000000  0.5478610000000  0.5067390000000 1.0
C      1  0.4574440000000  0.4976970000000  0.4855540000000 1.0
C      1  0.4317710000000  0.4834530000000  0.5689920000000 1.0
C      1  0.5742530000000  0.4973530000000  0.4519750000000 1.0
C      1  0.5271790000000  0.5078470000000  0.4518780000000 1.0
C      1  0.4838920000000  0.4944740000000  0.3953380000000 1.0
C      1  0.4538450000000  0.5243870000000  0.4250510000000 1.0
C      1  0.4876020000000  0.4379420000000  0.5738430000000 1.0
C      1  0.5098170000000  0.4808680000000  0.4007570000000 1.0
C      1  0.5762960000000  0.4745220000000  0.4696020000000 1.0
C      1  0.5379600000000  0.4417410000000  0.4521140000000 1.0
C      1  0.4675090000000  0.4118530000000  0.4541340000000 1.0
C      1  0.4257950000000  0.4825170000000  0.5389590000000 1.0
C      1  0.5119340000000  0.5506680000000  0.3981510000000 1.0
C      1  0.5245080000000  0.4287360000000  0.5281320000000 1.0
C      1  0.4510070000000  0.5663130000000  0.5236040000000 1.0
C      1  0.4106990000000  0.4948560000000  0.4875370000000 1.0
C      1  0.5262170000000  0.5563400000000  0.4730040000000 1.0
C      1  0.5618850000000  0.5250490000000  0.4872090000000 1.0
C      1  0.5383030000000  0.4809100000000  0.4122620000000 1.0
C      1  0.4532710000000  0.5021150000000  0.5734200000000 1.0
C      1  0.4599370000000  0.4957730000000  0.4135240000000 1.0
C      1  0.5541540000000  0.4727850000000  0.5691480000000 1.0
C      1  0.5404020000000  0.4595690000000  0.4290130000000 1.0
C      1  0.4286080000000  0.5308240000000  0.4410070000000 1.0
C      1  0.4856020000000  0.4283660000000  0.4387840000000 1.0
C      1  0.4077630000000  0.4642670000000  0.5239700000000 1.0
C      1  0.4894080000000  0.5516880000000  0.4033290000000 1.0
C      1  0.5743120000000  0.5466420000000  0.4471720000000 1.0
C      1  0.4686430000000  0.5253270000000  0.4726120000000 1.0
C      1  0.4687140000000  0.4591420000000  0.5830920000000 1.0
C      1  0.5894140000000  0.5538100000000  0.5412230000000 1.0
C      1  0.5524740000000  0.4585200000000  0.4739020000000 1.0
C      1  0.5799820000000  0.5230290000000  0.4645220000000 1.0
C      1  0.5349080000000  0.4318550000000  0.5562550000000 1.0
C      1  0.4826180000000  0.4216070000000  0.5512100000000 1.0
C      1  0.4768760000000  0.4870710000000  0.5826060000000 1.0
C      1  0.4262520000000  0.4171600000000  0.5197850000000 1.0
C      1  0.3957960000000  0.5490500000000  0.4774140000000 1.0
C      1  0.5283560000000  0.5520210000000  0.4198910000000 1.0
END
