TITL C-4164243-3780-369 12.3908987199379 125000 -17693.6450047705 0 0 121 (C1) n - 1
REM
REM in /home/nfs/bkarasulu/CARBON/AIRSS/Generating-Clusters/ReaxFF-fromJPCA2015/Units_Real/with-SteepDescent/Only-C1/SD-CG/Try1-3A/FIRE-CG
REM
REM
REM
REM
REM
REM ./C.cell (11c1c37f851c82e70ff6c80c92926a4b)
REM
REM compiler GCC version 9.2.1 20190827 (Red Hat 9.2.1-1)
REM options -cpp -mtune=generic -march=x86-64 -g -O0 -fpre-include=/usr/include/finclude/math-vector-fortran.h
REM seed 1500710773 -677988092 -402294991 1895718043 981915810 701492639 -991241716 -1008026968 1903268667 -1798670120 1986985432 -621390246 -544376828 1650068725 -947727669 -1391707053 365963316 2104806315 -1337518235 129993267 1785455072 -2090382675 1562131327 -135632439 704005186 -1213811193 716839502 -2041122565 -1933972499 1472141652 -1424835626 -1489505250 -488509981
REM
CELL 1.54180   50.00000   50.00000   50.00000   90.00000   90.00000   90.00000
LATT -1
SFAC C  
C      1  0.4452620000000  0.4857450000000  0.5791380000000 1.0
C      1  0.5333770000000  0.4267330000000  0.5292120000000 1.0
C      1  0.5483420000000  0.4624480000000  0.4768910000000 1.0
C      1  0.4352700000000  0.5269310000000  0.5391370000000 1.0
C      1  0.5299050000000  0.5014190000000  0.6074600000000 1.0
C      1  0.5345680000000  0.5270440000000  0.5926610000000 1.0
C      1  0.4974300000000  0.4913750000000  0.5519640000000 1.0
C      1  0.5264010000000  0.4957070000000  0.4060710000000 1.0
C      1  0.4593050000000  0.5261490000000  0.5211130000000 1.0
C      1  0.4537790000000  0.5101150000000  0.4212290000000 1.0
C      1  0.5844410000000  0.4840370000000  0.5039190000000 1.0
C      1  0.4635460000000  0.4635720000000  0.5803720000000 1.0
C      1  0.4178100000000  0.4528540000000  0.4761940000000 1.0
C      1  0.4576050000000  0.4740120000000  0.5414250000000 1.0
C      1  0.5372680000000  0.4790370000000  0.4543240000000 1.0
C      1  0.5001630000000  0.5880630000000  0.5286950000000 1.0
C      1  0.4496110000000  0.5594940000000  0.5621250000000 1.0
C      1  0.4578930000000  0.5113070000000  0.5836240000000 1.0
C      1  0.5621430000000  0.5370310000000  0.4268600000000 1.0
C      1  0.4471410000000  0.5238530000000  0.4906950000000 1.0
C      1  0.5630060000000  0.5449540000000  0.5462010000000 1.0
C      1  0.4427100000000  0.5225960000000  0.4467610000000 1.0
C      1  0.5399500000000  0.4857930000000  0.5230370000000 1.0
C      1  0.4401050000000  0.5528160000000  0.4536380000000 1.0
C      1  0.4185850000000  0.5031820000000  0.5353340000000 1.0
C      1  0.5009250000000  0.5779980000000  0.4315200000000 1.0
C      1  0.5476710000000  0.4563640000000  0.4375600000000 1.0
C      1  0.5083930000000  0.4836680000000  0.4474420000000 1.0
C      1  0.4764180000000  0.5967430000000  0.5391330000000 1.0
C      1  0.5773500000000  0.5290100000000  0.5255950000000 1.0
C      1  0.4234880000000  0.5004990000000  0.4571000000000 1.0
C      1  0.4258140000000  0.4481340000000  0.5175350000000 1.0
C      1  0.4945650000000  0.3994430000000  0.5220980000000 1.0
C      1  0.5814420000000  0.5347030000000  0.4502580000000 1.0
C      1  0.5470690000000  0.5051820000000  0.4474030000000 1.0
C      1  0.4889060000000  0.4872480000000  0.5043990000000 1.0
C      1  0.5020730000000  0.4846120000000  0.4177240000000 1.0
C      1  0.4684650000000  0.5188410000000  0.4680570000000 1.0
C      1  0.5329520000000  0.4373300000000  0.4762870000000 1.0
C      1  0.4609960000000  0.5721800000000  0.4474790000000 1.0
C      1  0.5448950000000  0.5116190000000  0.4924730000000 1.0
C      1  0.4304600000000  0.4615580000000  0.5430590000000 1.0
C      1  0.4868840000000  0.4217770000000  0.5568200000000 1.0
C      1  0.4688440000000  0.4725410000000  0.4883960000000 1.0
C      1  0.5182660000000  0.4360760000000  0.5022680000000 1.0
C      1  0.4717950000000  0.4686660000000  0.4604470000000 1.0
C      1  0.5030160000000  0.4899690000000  0.5995150000000 1.0
C      1  0.5195880000000  0.4773440000000  0.5410540000000 1.0
C      1  0.5317150000000  0.5194100000000  0.4677180000000 1.0
C      1  0.4962300000000  0.5112700000000  0.4639310000000 1.0
C      1  0.5734450000000  0.4586150000000  0.4626920000000 1.0
C      1  0.4702130000000  0.4091640000000  0.5353800000000 1.0
C      1  0.5685540000000  0.5462760000000  0.4738750000000 1.0
C      1  0.5312970000000  0.5872810000000  0.5327470000000 1.0
C      1  0.5062440000000  0.5217970000000  0.5177530000000 1.0
C      1  0.4079280000000  0.4637830000000  0.5004180000000 1.0
C      1  0.5179710000000  0.5838770000000  0.4696960000000 1.0
C      1  0.5879860000000  0.4844930000000  0.4743410000000 1.0
C      1  0.5015180000000  0.4565170000000  0.5328600000000 1.0
C      1  0.5058480000000  0.5325800000000  0.5882910000000 1.0
C      1  0.4758650000000  0.4967780000000  0.5317140000000 1.0
C      1  0.4696430000000  0.5852840000000  0.4730700000000 1.0
C      1  0.5458460000000  0.4399110000000  0.5521750000000 1.0
C      1  0.5388900000000  0.5583080000000  0.5358890000000 1.0
C      1  0.4379450000000  0.5519250000000  0.4820410000000 1.0
C      1  0.4946400000000  0.5988140000000  0.4797030000000 1.0
C      1  0.4732560000000  0.5505790000000  0.5106590000000 1.0
C      1  0.4293040000000  0.4759660000000  0.4426280000000 1.0
C      1  0.4225030000000  0.4847410000000  0.5581970000000 1.0
C      1  0.4115770000000  0.4928440000000  0.5083750000000 1.0
C      1  0.4848110000000  0.5125090000000  0.5943880000000 1.0
C      1  0.5767610000000  0.4882650000000  0.5542800000000 1.0
C      1  0.5171290000000  0.5347760000000  0.4156830000000 1.0
C      1  0.5337180000000  0.6081990000000  0.5119210000000 1.0
C      1  0.5153450000000  0.5409400000000  0.5392750000000 1.0
C      1  0.5667510000000  0.5306410000000  0.4982430000000 1.0
C      1  0.4989470000000  0.4087570000000  0.4934090000000 1.0
C      1  0.4604280000000  0.5862550000000  0.5599710000000 1.0
C      1  0.4777840000000  0.5682440000000  0.4231370000000 1.0
C      1  0.4994180000000  0.5445710000000  0.4998540000000 1.0
C      1  0.4730790000000  0.4535630000000  0.5320250000000 1.0
C      1  0.5665020000000  0.5089930000000  0.5679920000000 1.0
C      1  0.5797450000000  0.4362550000000  0.4823270000000 1.0
C      1  0.4223220000000  0.5058110000000  0.4853230000000 1.0
C      1  0.4878510000000  0.5754520000000  0.5717360000000 1.0
C      1  0.4549470000000  0.4182390000000  0.5112270000000 1.0
C      1  0.5488700000000  0.5118610000000  0.4190040000000 1.0
C      1  0.4713730000000  0.4146960000000  0.4604210000000 1.0
C      1  0.5414700000000  0.4690920000000  0.4124560000000 1.0
C      1  0.4698940000000  0.5219250000000  0.4002780000000 1.0
C      1  0.5678060000000  0.4361200000000  0.5091210000000 1.0
C      1  0.4543080000000  0.4302080000000  0.4422730000000 1.0
C      1  0.4683490000000  0.4066760000000  0.4882350000000 1.0
C      1  0.5006360000000  0.4146680000000  0.4631230000000 1.0
C      1  0.4435070000000  0.5329850000000  0.5673320000000 1.0
C      1  0.4556770000000  0.4483860000000  0.5077590000000 1.0
C      1  0.5868160000000  0.5096760000000  0.4623620000000 1.0
C      1  0.5851870000000  0.5007720000000  0.5278430000000 1.0
C      1  0.4980440000000  0.4591430000000  0.4539930000000 1.0
C      1  0.4576100000000  0.4819440000000  0.4325230000000 1.0
C      1  0.5343110000000  0.4575930000000  0.5724870000000 1.0
C      1  0.4838250000000  0.4451020000000  0.5759370000000 1.0
C      1  0.5606160000000  0.4637400000000  0.5635830000000 1.0
C      1  0.5187310000000  0.5588860000000  0.4828510000000 1.0
C      1  0.4691030000000  0.4431960000000  0.4222820000000 1.0
C      1  0.4573360000000  0.5694680000000  0.4946420000000 1.0
C      1  0.5007260000000  0.5495210000000  0.5641560000000 1.0
C      1  0.4910870000000  0.5421920000000  0.4102390000000 1.0
C      1  0.5584350000000  0.5334810000000  0.5738500000000 1.0
C      1  0.5027520000000  0.6075580000000  0.5070420000000 1.0
C      1  0.4292980000000  0.4479680000000  0.4516220000000 1.0
C      1  0.5595360000000  0.4682440000000  0.5073480000000 1.0
C      1  0.5117380000000  0.4117770000000  0.5424930000000 1.0
C      1  0.5041630000000  0.4694400000000  0.5769470000000 1.0
C      1  0.5157830000000  0.4372240000000  0.4534910000000 1.0
C      1  0.5281170000000  0.5059590000000  0.5109610000000 1.0
C      1  0.5259030000000  0.5804920000000  0.4413630000000 1.0
C      1  0.5066780000000  0.4636340000000  0.5059080000000 1.0
C      1  0.5362940000000  0.5520650000000  0.4303500000000 1.0
C      1  0.5387770000000  0.5465280000000  0.4662420000000 1.0
C      1  0.4774000000000  0.4683230000000  0.4128390000000 1.0
END
