TITL C-4164237-1827-219 5.06671915178927 125000 -12248.1440770323 0 0 84 (C1) n - 1
REM
REM in /home/nfs/bkarasulu/CARBON/AIRSS/Generating-Clusters/ReaxFF-fromJPCA2015/Units_Real/with-SteepDescent/Only-C1/SD-CG/Try1-3A/FIRE-CG
REM
REM
REM
REM
REM
REM ./C.cell (11c1c37f851c82e70ff6c80c92926a4b)
REM
REM compiler GCC version 9.2.1 20190827 (Red Hat 9.2.1-1)
REM options -cpp -mtune=generic -march=x86-64 -g -O0 -fpre-include=/usr/include/finclude/math-vector-fortran.h
REM seed 1769696024 -1285535439 -37932502 13542193 -1590202089 -473683324 -388429327 453601683 1573070945 294048306 44897756 -867842253 1115501365 25172729 -909604645 1750715806 1921529233 -675447679 1439804871 -165105959 888356285 -286404179 -1053744838 -581177059 1186134987 749987136 814423812 1892110185 -2026944069 1700721110 -1063881493 -557581075 1858234185
REM
CELL 1.54180   50.00000   50.00000   50.00000   90.00000   90.00000   90.00000
LATT -1
SFAC C  
C      1  0.5533520000000  0.4771550000000  0.4652660000000 1.0
C      1  0.4549280000000  0.4478870000000  0.5682760000000 1.0
C      1  0.4367390000000  0.4513870000000  0.5479270000000 1.0
C      1  0.5389650000000  0.5356080000000  0.4228150000000 1.0
C      1  0.4414900000000  0.5375230000000  0.5437030000000 1.0
C      1  0.5220480000000  0.5782460000000  0.5245550000000 1.0
C      1  0.4494840000000  0.4409600000000  0.4986220000000 1.0
C      1  0.4678500000000  0.5513350000000  0.4323730000000 1.0
C      1  0.5713640000000  0.5673610000000  0.5131640000000 1.0
C      1  0.4213210000000  0.4927480000000  0.5159010000000 1.0
C      1  0.5088040000000  0.4916470000000  0.5395110000000 1.0
C      1  0.5101730000000  0.5003520000000  0.3856570000000 1.0
C      1  0.5565370000000  0.4305810000000  0.5518430000000 1.0
C      1  0.4796210000000  0.5069450000000  0.4464220000000 1.0
C      1  0.5325130000000  0.5323330000000  0.4736040000000 1.0
C      1  0.4311950000000  0.4416810000000  0.4798120000000 1.0
C      1  0.5634630000000  0.4453750000000  0.4956280000000 1.0
C      1  0.5070020000000  0.5657510000000  0.5436770000000 1.0
C      1  0.4914210000000  0.5595170000000  0.4385030000000 1.0
C      1  0.4761670000000  0.4534580000000  0.4534570000000 1.0
C      1  0.4274770000000  0.4510340000000  0.4524540000000 1.0
C      1  0.5484450000000  0.4451540000000  0.4702860000000 1.0
C      1  0.5186660000000  0.4695080000000  0.4297550000000 1.0
C      1  0.5704780000000  0.5690090000000  0.4842430000000 1.0
C      1  0.5376830000000  0.5336770000000  0.5727950000000 1.0
C      1  0.5734250000000  0.5002940000000  0.5198490000000 1.0
C      1  0.5137590000000  0.5594430000000  0.4805480000000 1.0
C      1  0.4708560000000  0.5384550000000  0.4845190000000 1.0
C      1  0.5300770000000  0.5076290000000  0.5710250000000 1.0
C      1  0.5885980000000  0.5066040000000  0.4926440000000 1.0
C      1  0.4146390000000  0.5433050000000  0.5136230000000 1.0
C      1  0.4681830000000  0.5439540000000  0.5459540000000 1.0
C      1  0.4889450000000  0.5547390000000  0.4965400000000 1.0
C      1  0.4266420000000  0.5471390000000  0.4923740000000 1.0
C      1  0.4430060000000  0.5197010000000  0.4328220000000 1.0
C      1  0.4944080000000  0.5026670000000  0.4228110000000 1.0
C      1  0.4514150000000  0.4945930000000  0.5674120000000 1.0
C      1  0.5149330000000  0.5662500000000  0.4512600000000 1.0
C      1  0.4527380000000  0.4643030000000  0.4408540000000 1.0
C      1  0.4976130000000  0.4847240000000  0.5165440000000 1.0
C      1  0.5104150000000  0.5454830000000  0.5663910000000 1.0
C      1  0.4999780000000  0.4328730000000  0.5121970000000 1.0
C      1  0.5505860000000  0.5192480000000  0.5188430000000 1.0
C      1  0.4404560000000  0.4910040000000  0.5008670000000 1.0
C      1  0.5570810000000  0.5454990000000  0.5292580000000 1.0
C      1  0.4463820000000  0.5479510000000  0.4742290000000 1.0
C      1  0.4862250000000  0.5582000000000  0.5248220000000 1.0
C      1  0.5414500000000  0.4820870000000  0.4924290000000 1.0
C      1  0.4807630000000  0.5122380000000  0.4807990000000 1.0
C      1  0.4717650000000  0.4597420000000  0.4836070000000 1.0
C      1  0.4793830000000  0.4543000000000  0.5807380000000 1.0
C      1  0.5648820000000  0.5359400000000  0.5561880000000 1.0
C      1  0.4537760000000  0.4947190000000  0.4377360000000 1.0
C      1  0.5147090000000  0.4824530000000  0.5672800000000 1.0
C      1  0.4297260000000  0.4823390000000  0.5549310000000 1.0
C      1  0.4604410000000  0.4891830000000  0.4851650000000 1.0
C      1  0.4532570000000  0.4375930000000  0.5277460000000 1.0
C      1  0.4817720000000  0.4308670000000  0.5346470000000 1.0
C      1  0.5071030000000  0.4165350000000  0.4859680000000 1.0
C      1  0.4849480000000  0.5329230000000  0.5679230000000 1.0
C      1  0.5450480000000  0.4502090000000  0.5403480000000 1.0
C      1  0.5817340000000  0.5228090000000  0.4696350000000 1.0
C      1  0.5805500000000  0.4945700000000  0.4680550000000 1.0
C      1  0.4876540000000  0.4819430000000  0.5844750000000 1.0
C      1  0.5045640000000  0.4495460000000  0.4464670000000 1.0
C      1  0.5809490000000  0.5128880000000  0.5479470000000 1.0
C      1  0.4941170000000  0.3951270000000  0.4787760000000 1.0
C      1  0.4108910000000  0.5004820000000  0.5399290000000 1.0
C      1  0.5216250000000  0.4350710000000  0.4650290000000 1.0
C      1  0.4426440000000  0.5459990000000  0.4433470000000 1.0
C      1  0.5345200000000  0.4887240000000  0.4438850000000 1.0
C      1  0.5281320000000  0.5836100000000  0.4984160000000 1.0
C      1  0.4143790000000  0.5309070000000  0.5395660000000 1.0
C      1  0.4954600000000  0.4590330000000  0.5021800000000 1.0
C      1  0.5597130000000  0.5460830000000  0.4666220000000 1.0
C      1  0.5014920000000  0.5071760000000  0.5022710000000 1.0
C      1  0.5422580000000  0.5578300000000  0.4416400000000 1.0
C      1  0.5226560000000  0.4504670000000  0.5597990000000 1.0
C      1  0.5301500000000  0.5112060000000  0.4962400000000 1.0
C      1  0.5307260000000  0.5178000000000  0.4469440000000 1.0
C      1  0.4958440000000  0.4394880000000  0.5594050000000 1.0
C      1  0.4732500000000  0.5067210000000  0.5799050000000 1.0
C      1  0.5035640000000  0.4816670000000  0.4043040000000 1.0
C      1  0.5565590000000  0.4694360000000  0.5140260000000 1.0
END
