TITL C-4164235-1454-570 -6.47877547611565 125000 -5791.29026944778 0 0 40 (C1) n - 1
REM
REM in /home/nfs/bkarasulu/CARBON/AIRSS/Generating-Clusters/ReaxFF-fromJPCA2015/Units_Real/with-SteepDescent/Only-C1/SD-CG/Try1-3A/FIRE-CG
REM
REM
REM
REM
REM
REM ./C.cell (11c1c37f851c82e70ff6c80c92926a4b)
REM
REM compiler GCC version 9.2.1 20190827 (Red Hat 9.2.1-1)
REM options -cpp -mtune=generic -march=x86-64 -g -O0 -fpre-include=/usr/include/finclude/math-vector-fortran.h
REM seed -887780226 1080202462 -1286796574 -1882687612 477622741 -1372386174 1753360297 -1653691860 838547008 -277023774 -1980973990 -665460593 -1717248511 406724736 -981661630 -746295533 1468882594 -1217867202 632198032 -866607258 -1290959692 -478505972 -886656337 -1480193561 -2090417074 -1121329536 -2034094021 -899324891 252905650 -322718458 -1754625723 -2005761345 -1438329135
REM
CELL 1.54180   50.00000   50.00000   50.00000   90.00000   90.00000   90.00000
LATT -1
SFAC C  
C      1  0.4386150000000  0.5186750000000  0.5029960000000 1.0
C      1  0.4941410000000  0.4670440000000  0.5545560000000 1.0
C      1  0.5333010000000  0.5384790000000  0.5326660000000 1.0
C      1  0.5553880000000  0.4625020000000  0.5065240000000 1.0
C      1  0.5379320000000  0.4519050000000  0.5284470000000 1.0
C      1  0.5354450000000  0.4505380000000  0.4859850000000 1.0
C      1  0.5445510000000  0.4844500000000  0.4501280000000 1.0
C      1  0.4669260000000  0.5332780000000  0.5406480000000 1.0
C      1  0.4744950000000  0.4668180000000  0.4602650000000 1.0
C      1  0.5300160000000  0.5512650000000  0.4465040000000 1.0
C      1  0.4783740000000  0.4497180000000  0.5360940000000 1.0
C      1  0.4928410000000  0.4326090000000  0.5163680000000 1.0
C      1  0.5306850000000  0.5715940000000  0.4656690000000 1.0
C      1  0.5429200000000  0.5251560000000  0.4425010000000 1.0
C      1  0.4657310000000  0.5555850000000  0.5190380000000 1.0
C      1  0.4387230000000  0.4924620000000  0.4852310000000 1.0
C      1  0.5589910000000  0.5086900000000  0.4622140000000 1.0
C      1  0.5281720000000  0.4628000000000  0.4604480000000 1.0
C      1  0.5324000000000  0.5284710000000  0.5047670000000 1.0
C      1  0.5245410000000  0.4960880000000  0.5521480000000 1.0
C      1  0.4776050000000  0.5785630000000  0.5195700000000 1.0
C      1  0.4582780000000  0.4760260000000  0.4995290000000 1.0
C      1  0.5233720000000  0.4688630000000  0.5501840000000 1.0
C      1  0.4526830000000  0.4893620000000  0.5446620000000 1.0
C      1  0.4465900000000  0.5150520000000  0.5321330000000 1.0
C      1  0.5068740000000  0.5310390000000  0.4882840000000 1.0
C      1  0.5561390000000  0.5169700000000  0.4900860000000 1.0
C      1  0.4944800000000  0.5078580000000  0.4762170000000 1.0
C      1  0.5008940000000  0.4973810000000  0.4492000000000 1.0
C      1  0.4783660000000  0.4915890000000  0.5585800000000 1.0
C      1  0.5273340000000  0.5025860000000  0.4370520000000 1.0
C      1  0.4485900000000  0.4841070000000  0.4588770000000 1.0
C      1  0.4465060000000  0.5445170000000  0.4951210000000 1.0
C      1  0.4558940000000  0.4664810000000  0.5268640000000 1.0
C      1  0.4879060000000  0.5190830000000  0.5548320000000 1.0
C      1  0.5012310000000  0.4676370000000  0.4484480000000 1.0
C      1  0.5183280000000  0.5230170000000  0.5539250000000 1.0
C      1  0.5213290000000  0.4363310000000  0.5088960000000 1.0
C      1  0.4839940000000  0.4815500000000  0.4843690000000 1.0
C      1  0.5094220000000  0.5538610000000  0.4699750000000 1.0
END
