TITL C-4164247-2821-303 34.0045158903501 125000 -17034.2928267405 0 0 116 (C1) n - 1
REM
REM in /home/nfs/bkarasulu/CARBON/AIRSS/Generating-Clusters/ReaxFF-fromJPCA2015/Units_Real/with-SteepDescent/Only-C1/SD-CG/Try1-3A/FIRE-CG
REM
REM
REM
REM
REM
REM ./C.cell (11c1c37f851c82e70ff6c80c92926a4b)
REM
REM compiler GCC version 9.2.1 20190827 (Red Hat 9.2.1-1)
REM options -cpp -mtune=generic -march=x86-64 -g -O0 -fpre-include=/usr/include/finclude/math-vector-fortran.h
REM seed 1434466757 -1810676906 1895345329 -1438871127 -1995265756 -936980351 80321732 -508246589 1944008550 -1331522782 -824051750 -1610720538 265962497 1163730713 -1749717116 1516617726 -488184351 -1732355001 -289349893 1409607354 141342506 1951106981 -2056255 18759698 -100043045 416628621 691017431 1793397185 -114082999 870346484 165167556 -685531394 -164905255
REM
CELL 1.54180   50.00000   50.00000   50.00000   90.00000   90.00000   90.00000
LATT -1
SFAC C  
C      1  0.4924730000000  0.5353520000000  0.5757420000000 1.0
C      1  0.4725280000000  0.5673000000000  0.5310130000000 1.0
C      1  0.4974310000000  0.5380460000000  0.4465460000000 1.0
C      1  0.4479670000000  0.5075070000000  0.4804930000000 1.0
C      1  0.5727990000000  0.4567120000000  0.5658450000000 1.0
C      1  0.5821700000000  0.5211070000000  0.5094200000000 1.0
C      1  0.5770590000000  0.4660920000000  0.5132660000000 1.0
C      1  0.4323500000000  0.4421060000000  0.4760320000000 1.0
C      1  0.5081080000000  0.4070300000000  0.4603830000000 1.0
C      1  0.5311850000000  0.5397110000000  0.4955440000000 1.0
C      1  0.5377250000000  0.4070140000000  0.4614780000000 1.0
C      1  0.5615540000000  0.5682480000000  0.5208930000000 1.0
C      1  0.4757750000000  0.5044360000000  0.4868460000000 1.0
C      1  0.5468840000000  0.5020520000000  0.5203560000000 1.0
C      1  0.5894200000000  0.5033320000000  0.4324210000000 1.0
C      1  0.5327110000000  0.5912760000000  0.4853990000000 1.0
C      1  0.4733920000000  0.5598040000000  0.5611530000000 1.0
C      1  0.4462950000000  0.5816310000000  0.4585480000000 1.0
C      1  0.5630020000000  0.5445720000000  0.4720780000000 1.0
C      1  0.4189100000000  0.4736410000000  0.4539840000000 1.0
C      1  0.4440180000000  0.5568490000000  0.5639360000000 1.0
C      1  0.5696600000000  0.4647210000000  0.4858360000000 1.0
C      1  0.5001530000000  0.4228830000000  0.4836250000000 1.0
C      1  0.5056140000000  0.4887420000000  0.5949920000000 1.0
C      1  0.5626410000000  0.4908070000000  0.4689230000000 1.0
C      1  0.5619840000000  0.4385150000000  0.4757780000000 1.0
C      1  0.4271750000000  0.5453540000000  0.5420270000000 1.0
C      1  0.4902060000000  0.4529500000000  0.5205860000000 1.0
C      1  0.5086720000000  0.5729670000000  0.5504990000000 1.0
C      1  0.5336710000000  0.5123320000000  0.4973870000000 1.0
C      1  0.4542150000000  0.4265170000000  0.5270760000000 1.0
C      1  0.4842240000000  0.4246630000000  0.5257270000000 1.0
C      1  0.4409100000000  0.5139830000000  0.4529330000000 1.0
C      1  0.4777480000000  0.4591910000000  0.4231450000000 1.0
C      1  0.5370230000000  0.5060040000000  0.4243080000000 1.0
C      1  0.4542380000000  0.5032260000000  0.5845680000000 1.0
C      1  0.5192600000000  0.4515650000000  0.4469140000000 1.0
C      1  0.4046110000000  0.4920610000000  0.4734270000000 1.0
C      1  0.5234420000000  0.4837630000000  0.4107410000000 1.0
C      1  0.5775060000000  0.5185630000000  0.4799580000000 1.0
C      1  0.4532170000000  0.5650700000000  0.5071190000000 1.0
C      1  0.4984050000000  0.4268680000000  0.4415350000000 1.0
C      1  0.4542790000000  0.5146850000000  0.5376770000000 1.0
C      1  0.4580040000000  0.4822300000000  0.4177300000000 1.0
C      1  0.4998780000000  0.5263810000000  0.5475700000000 1.0
C      1  0.5098060000000  0.4975740000000  0.5506820000000 1.0
C      1  0.5777230000000  0.5714220000000  0.4765470000000 1.0
C      1  0.5811830000000  0.5194380000000  0.5689030000000 1.0
C      1  0.4539390000000  0.4287080000000  0.4614500000000 1.0
C      1  0.5113860000000  0.5943440000000  0.5052140000000 1.0
C      1  0.4718370000000  0.5657570000000  0.4208900000000 1.0
C      1  0.5662480000000  0.5422880000000  0.5545020000000 1.0
C      1  0.4747120000000  0.5020140000000  0.4084860000000 1.0
C      1  0.4352010000000  0.4394310000000  0.5068340000000 1.0
C      1  0.4279400000000  0.5612090000000  0.4539030000000 1.0
C      1  0.5647340000000  0.4944860000000  0.4393620000000 1.0
C      1  0.5042680000000  0.4407200000000  0.5740360000000 1.0
C      1  0.5067280000000  0.4627170000000  0.4209520000000 1.0
C      1  0.4559820000000  0.5791330000000  0.4314140000000 1.0
C      1  0.6002840000000  0.5127840000000  0.4557140000000 1.0
C      1  0.5245330000000  0.4879590000000  0.5280980000000 1.0
C      1  0.5508790000000  0.4117000000000  0.4879000000000 1.0
C      1  0.5773630000000  0.5441350000000  0.5273720000000 1.0
C      1  0.4706470000000  0.4346660000000  0.4377960000000 1.0
C      1  0.4378080000000  0.4687460000000  0.5432450000000 1.0
C      1  0.5233650000000  0.5232370000000  0.4486930000000 1.0
C      1  0.5284150000000  0.5752110000000  0.4605170000000 1.0
C      1  0.5611510000000  0.5853310000000  0.4962700000000 1.0
C      1  0.5032450000000  0.5438000000000  0.4924680000000 1.0
C      1  0.5689570000000  0.4497990000000  0.5367310000000 1.0
C      1  0.4355740000000  0.4679370000000  0.4735430000000 1.0
C      1  0.4619680000000  0.4872990000000  0.5392800000000 1.0
C      1  0.5383860000000  0.4466060000000  0.5439420000000 1.0
C      1  0.4550220000000  0.4424230000000  0.5507010000000 1.0
C      1  0.4771740000000  0.4569870000000  0.4954950000000 1.0
C      1  0.4874080000000  0.5530510000000  0.4701560000000 1.0
C      1  0.5327840000000  0.4156010000000  0.5112130000000 1.0
C      1  0.4796640000000  0.4529230000000  0.5629760000000 1.0
C      1  0.5775360000000  0.4951470000000  0.5245390000000 1.0
C      1  0.4932280000000  0.5205650000000  0.4003150000000 1.0
C      1  0.4820500000000  0.5079830000000  0.5894430000000 1.0
C      1  0.5189170000000  0.4607410000000  0.5210460000000 1.0
C      1  0.5187550000000  0.4635040000000  0.5861370000000 1.0
C      1  0.4772730000000  0.5309530000000  0.5303520000000 1.0
C      1  0.4728870000000  0.4309580000000  0.4833180000000 1.0
C      1  0.5211020000000  0.4386100000000  0.4977390000000 1.0
C      1  0.5393030000000  0.5483960000000  0.4541880000000 1.0
C      1  0.5313370000000  0.4985770000000  0.4715960000000 1.0
C      1  0.4848100000000  0.4794000000000  0.5524040000000 1.0
C      1  0.5215290000000  0.5509160000000  0.5430610000000 1.0
C      1  0.4963210000000  0.5871960000000  0.5293410000000 1.0
C      1  0.4177840000000  0.4939130000000  0.5463030000000 1.0
C      1  0.4182060000000  0.5350130000000  0.4546660000000 1.0
C      1  0.4876320000000  0.5235470000000  0.5052970000000 1.0
C      1  0.4884890000000  0.4781540000000  0.4786450000000 1.0
C      1  0.5433260000000  0.4632430000000  0.5688160000000 1.0
C      1  0.5363560000000  0.5538710000000  0.5188910000000 1.0
C      1  0.5237070000000  0.5053460000000  0.5805160000000 1.0
C      1  0.5218390000000  0.5341740000000  0.5820190000000 1.0
C      1  0.4262670000000  0.4640520000000  0.5163380000000 1.0
C      1  0.4275200000000  0.5531600000000  0.5142640000000 1.0
C      1  0.5106280000000  0.4113920000000  0.5316060000000 1.0
C      1  0.4093410000000  0.5304230000000  0.5050980000000 1.0
C      1  0.4903740000000  0.5452340000000  0.4191150000000 1.0
C      1  0.5141870000000  0.4746800000000  0.4671140000000 1.0
C      1  0.4108790000000  0.5111110000000  0.5253550000000 1.0
C      1  0.5907750000000  0.4968340000000  0.5539360000000 1.0
C      1  0.4269980000000  0.4870740000000  0.4934800000000 1.0
C      1  0.4360310000000  0.4904800000000  0.4364570000000 1.0
C      1  0.4631000000000  0.5671630000000  0.4796920000000 1.0
C      1  0.5448890000000  0.4340640000000  0.4528270000000 1.0
C      1  0.5201070000000  0.4246490000000  0.5552840000000 1.0
C      1  0.5396590000000  0.5499790000000  0.5650410000000 1.0
C      1  0.4037850000000  0.5208960000000  0.4766270000000 1.0
C      1  0.5202310000000  0.5088890000000  0.4009560000000 1.0
C      1  0.4360350000000  0.5124200000000  0.5614340000000 1.0
END
