TITL C-4164241-3639-1 5.80784288748097 125000 -11650.656353422 0 0 79 (C1) n - 1
REM
REM in /home/nfs/bkarasulu/CARBON/AIRSS/Generating-Clusters/ReaxFF-fromJPCA2015/Units_Real/with-SteepDescent/Only-C1/SD-CG/Try1-3A/FIRE-CG
REM
REM
REM
REM
REM
REM ./C.cell (11c1c37f851c82e70ff6c80c92926a4b)
REM
REM compiler GCC version 9.2.1 20190827 (Red Hat 9.2.1-1)
REM options -cpp -mtune=generic -march=x86-64 -g -O0 -fpre-include=/usr/include/finclude/math-vector-fortran.h
REM seed 254578460 -1121955221 -1982087763 -30262567 -496329424 846962582 -1439944964 702948415 595092851 568461619 1787861551 1632818061 104617656 -1363964078 -126209701 -1804935810 -1136062267 1397952274 -1129503442 1127352854 -1624170882 -1623608578 722986995 -1993576267 1014516101 1116015465 -1342109670 1177869235 840849024 961519215 -137157121 150624886 -1900026295
REM
CELL 1.54180   50.00000   50.00000   50.00000   90.00000   90.00000   90.00000
LATT -1
SFAC C  
C      1  0.4600380000000  0.5326440000000  0.4358370000000 1.0
C      1  0.5581840000000  0.5017510000000  0.5351450000000 1.0
C      1  0.5805460000000  0.5167030000000  0.4798560000000 1.0
C      1  0.5665680000000  0.4650440000000  0.4835510000000 1.0
C      1  0.5561630000000  0.4504650000000  0.5430390000000 1.0
C      1  0.4358890000000  0.5532370000000  0.5022160000000 1.0
C      1  0.5110080000000  0.4635070000000  0.4851090000000 1.0
C      1  0.4878730000000  0.5839310000000  0.5325040000000 1.0
C      1  0.5198400000000  0.5702960000000  0.4941580000000 1.0
C      1  0.4788170000000  0.5480540000000  0.4520040000000 1.0
C      1  0.5359440000000  0.4962850000000  0.4574370000000 1.0
C      1  0.5043220000000  0.4639860000000  0.5295070000000 1.0
C      1  0.5002910000000  0.5137570000000  0.4860450000000 1.0
C      1  0.4813430000000  0.4648120000000  0.5639120000000 1.0
C      1  0.4405320000000  0.5184850000000  0.5318740000000 1.0
C      1  0.4184690000000  0.5148160000000  0.4690110000000 1.0
C      1  0.4611560000000  0.4882980000000  0.4435470000000 1.0
C      1  0.4605070000000  0.4565880000000  0.5453000000000 1.0
C      1  0.5019100000000  0.4746510000000  0.4268400000000 1.0
C      1  0.4820260000000  0.5373220000000  0.4801090000000 1.0
C      1  0.4884380000000  0.4204230000000  0.4892680000000 1.0
C      1  0.4664160000000  0.5530000000000  0.4986770000000 1.0
C      1  0.4400210000000  0.4771570000000  0.5499600000000 1.0
C      1  0.4265760000000  0.4922060000000  0.5281120000000 1.0
C      1  0.4385710000000  0.4721170000000  0.4533170000000 1.0
C      1  0.4823110000000  0.4535810000000  0.4365220000000 1.0
C      1  0.4834060000000  0.5105560000000  0.5873560000000 1.0
C      1  0.5005740000000  0.5047800000000  0.4244910000000 1.0
C      1  0.5397660000000  0.4941920000000  0.5137080000000 1.0
C      1  0.5230500000000  0.4535490000000  0.4269340000000 1.0
C      1  0.4408910000000  0.5475800000000  0.5307710000000 1.0
C      1  0.4887560000000  0.5097850000000  0.5375270000000 1.0
C      1  0.4666000000000  0.4350730000000  0.4784090000000 1.0
C      1  0.4196290000000  0.5359980000000  0.4870730000000 1.0
C      1  0.5757970000000  0.4911730000000  0.4816750000000 1.0
C      1  0.4224950000000  0.4853500000000  0.4745380000000 1.0
C      1  0.5137830000000  0.4362170000000  0.5308940000000 1.0
C      1  0.4904220000000  0.4234400000000  0.5190330000000 1.0
C      1  0.5445240000000  0.5217250000000  0.4442360000000 1.0
C      1  0.5075340000000  0.4363780000000  0.4723020000000 1.0
C      1  0.5619060000000  0.4676580000000  0.5576610000000 1.0
C      1  0.5334750000000  0.5444460000000  0.4954720000000 1.0
C      1  0.5141760000000  0.5438600000000  0.5600770000000 1.0
C      1  0.5528500000000  0.4547140000000  0.4331990000000 1.0
C      1  0.5665970000000  0.4472630000000  0.4595740000000 1.0
C      1  0.5410160000000  0.4420970000000  0.5212840000000 1.0
C      1  0.4723170000000  0.4820970000000  0.5854780000000 1.0
C      1  0.5029090000000  0.4841820000000  0.5515600000000 1.0
C      1  0.5065960000000  0.5531540000000  0.4429630000000 1.0
C      1  0.4621300000000  0.4878190000000  0.4973090000000 1.0
C      1  0.5124610000000  0.5672920000000  0.4672930000000 1.0
C      1  0.4558530000000  0.5207580000000  0.5813680000000 1.0
C      1  0.5588950000000  0.5524270000000  0.5339590000000 1.0
C      1  0.5241280000000  0.5165540000000  0.5028910000000 1.0
C      1  0.5181720000000  0.5274010000000  0.4329220000000 1.0
C      1  0.4656590000000  0.5079890000000  0.5204440000000 1.0
C      1  0.5402970000000  0.4661270000000  0.5020400000000 1.0
C      1  0.5115330000000  0.5204110000000  0.5785800000000 1.0
C      1  0.5654860000000  0.5334930000000  0.4626040000000 1.0
C      1  0.4687310000000  0.4429940000000  0.5193280000000 1.0
C      1  0.5247440000000  0.4961860000000  0.5706390000000 1.0
C      1  0.4637450000000  0.5007810000000  0.4690920000000 1.0
C      1  0.4854520000000  0.4651780000000  0.5064090000000 1.0
C      1  0.5746970000000  0.5430610000000  0.5104280000000 1.0
C      1  0.4466600000000  0.4915140000000  0.5752340000000 1.0
C      1  0.4904630000000  0.5364130000000  0.5447470000000 1.0
C      1  0.4324090000000  0.4816390000000  0.5013690000000 1.0
C      1  0.5102240000000  0.4903070000000  0.4715940000000 1.0
C      1  0.5523670000000  0.4817260000000  0.4404550000000 1.0
C      1  0.5145210000000  0.5768490000000  0.5250780000000 1.0
C      1  0.5708000000000  0.5276210000000  0.5330920000000 1.0
C      1  0.5608470000000  0.5507700000000  0.4859650000000 1.0
C      1  0.4465990000000  0.5229230000000  0.4602450000000 1.0
C      1  0.4585880000000  0.4492690000000  0.4556060000000 1.0
C      1  0.4715940000000  0.5084580000000  0.4241730000000 1.0
C      1  0.5048620000000  0.4358130000000  0.4428750000000 1.0
C      1  0.5318550000000  0.5592260000000  0.5423460000000 1.0
C      1  0.5527620000000  0.4937620000000  0.5637460000000 1.0
C      1  0.4706420000000  0.5568540000000  0.5290970000000 1.0
END
