TITL C-4164247-2821-427 26.2120646214015 125000 -18552.3504310659 0 0 125 (C1) n - 1
REM
REM in /home/nfs/bkarasulu/CARBON/AIRSS/Generating-Clusters/ReaxFF-fromJPCA2015/Units_Real/with-SteepDescent/Only-C1/SD-CG/Try1-3A/FIRE-CG
REM
REM
REM
REM
REM
REM ./C.cell (11c1c37f851c82e70ff6c80c92926a4b)
REM
REM compiler GCC version 9.2.1 20190827 (Red Hat 9.2.1-1)
REM options -cpp -mtune=generic -march=x86-64 -g -O0 -fpre-include=/usr/include/finclude/math-vector-fortran.h
REM seed -1593881916 792166519 -956104532 1039521575 -718823349 -781957710 1067707005 -1046717137 1600454234 608592428 -1812926795 -1741647301 1215634026 423794532 -1202598638 -927974978 1768032611 1508824285 1852848800 2001986385 757434820 -420366109 -1735285503 1429832097 -146833909 1791406352 1842167530 1496639177 -1739445726 2146640268 -2088069859 -1752598379 -1388276059
REM
CELL 1.54180   50.00000   50.00000   50.00000   90.00000   90.00000   90.00000
LATT -1
SFAC C  
C      1  0.4589120000000  0.5757500000000  0.5587050000000 1.0
C      1  0.5253180000000  0.5528020000000  0.4946300000000 1.0
C      1  0.5224010000000  0.5482970000000  0.5457140000000 1.0
C      1  0.4533670000000  0.5584010000000  0.4290570000000 1.0
C      1  0.5511000000000  0.5462850000000  0.5577700000000 1.0
C      1  0.5929600000000  0.4884200000000  0.4677070000000 1.0
C      1  0.4556080000000  0.5762140000000  0.5273510000000 1.0
C      1  0.4391850000000  0.5004350000000  0.5619510000000 1.0
C      1  0.5466840000000  0.4855080000000  0.4640090000000 1.0
C      1  0.5351760000000  0.3952350000000  0.4929910000000 1.0
C      1  0.4915120000000  0.4106190000000  0.4658210000000 1.0
C      1  0.4518620000000  0.4681520000000  0.4469860000000 1.0
C      1  0.5771640000000  0.5085800000000  0.5807390000000 1.0
C      1  0.4871690000000  0.5726700000000  0.5654560000000 1.0
C      1  0.5372760000000  0.5059580000000  0.4818200000000 1.0
C      1  0.4762410000000  0.5549810000000  0.5162060000000 1.0
C      1  0.4467060000000  0.5279030000000  0.4557760000000 1.0
C      1  0.4740510000000  0.4530430000000  0.4667980000000 1.0
C      1  0.4317510000000  0.5282390000000  0.5609760000000 1.0
C      1  0.4041080000000  0.4963990000000  0.4789240000000 1.0
C      1  0.4278550000000  0.4773290000000  0.4518420000000 1.0
C      1  0.4022170000000  0.5368550000000  0.5145370000000 1.0
C      1  0.4991510000000  0.4481860000000  0.4263310000000 1.0
C      1  0.4405640000000  0.5326670000000  0.4277340000000 1.0
C      1  0.5644790000000  0.5166690000000  0.4301090000000 1.0
C      1  0.4772880000000  0.5268220000000  0.5230770000000 1.0
C      1  0.4856570000000  0.4324210000000  0.4479810000000 1.0
C      1  0.4281830000000  0.5678140000000  0.5242080000000 1.0
C      1  0.4860450000000  0.4191470000000  0.5411700000000 1.0
C      1  0.5898990000000  0.5032230000000  0.5288980000000 1.0
C      1  0.4339410000000  0.5313970000000  0.4821380000000 1.0
C      1  0.4983930000000  0.4226280000000  0.5150060000000 1.0
C      1  0.4665360000000  0.5923920000000  0.5003950000000 1.0
C      1  0.4006230000000  0.4507070000000  0.5321510000000 1.0
C      1  0.5827170000000  0.4590210000000  0.4790360000000 1.0
C      1  0.5391140000000  0.4419950000000  0.5782560000000 1.0
C      1  0.5384350000000  0.4485480000000  0.5004790000000 1.0
C      1  0.5117320000000  0.5894020000000  0.4677600000000 1.0
C      1  0.6061600000000  0.5089100000000  0.4841570000000 1.0
C      1  0.4489550000000  0.4807570000000  0.5814850000000 1.0
C      1  0.4307470000000  0.4984310000000  0.5307500000000 1.0
C      1  0.4573820000000  0.4155880000000  0.5380140000000 1.0
C      1  0.5109690000000  0.4511500000000  0.5761010000000 1.0
C      1  0.5026600000000  0.4678570000000  0.4700930000000 1.0
C      1  0.4954600000000  0.5154480000000  0.5035780000000 1.0
C      1  0.5845220000000  0.5479840000000  0.5111450000000 1.0
C      1  0.4545630000000  0.5748530000000  0.4806220000000 1.0
C      1  0.5360130000000  0.5399510000000  0.5201840000000 1.0
C      1  0.4978980000000  0.4779750000000  0.5731540000000 1.0
C      1  0.5115270000000  0.5043240000000  0.6067740000000 1.0
C      1  0.5100050000000  0.5037530000000  0.5646930000000 1.0
C      1  0.5624230000000  0.5486470000000  0.5305530000000 1.0
C      1  0.5700780000000  0.4808910000000  0.5764360000000 1.0
C      1  0.4561670000000  0.4794090000000  0.4208470000000 1.0
C      1  0.5564770000000  0.5435820000000  0.4383680000000 1.0
C      1  0.4767990000000  0.4836520000000  0.5927120000000 1.0
C      1  0.4051990000000  0.5221320000000  0.4880570000000 1.0
C      1  0.5299250000000  0.4652320000000  0.4769820000000 1.0
C      1  0.4100920000000  0.5625980000000  0.5048910000000 1.0
C      1  0.4814050000000  0.4111280000000  0.4941380000000 1.0
C      1  0.5484880000000  0.5000530000000  0.4123510000000 1.0
C      1  0.4957710000000  0.4917080000000  0.3967260000000 1.0
C      1  0.4206940000000  0.4707480000000  0.5213470000000 1.0
C      1  0.5333300000000  0.4189550000000  0.5611200000000 1.0
C      1  0.4712470000000  0.4710390000000  0.5095290000000 1.0
C      1  0.4085150000000  0.4321790000000  0.5101410000000 1.0
C      1  0.5687920000000  0.4416900000000  0.4595250000000 1.0
C      1  0.4948370000000  0.5966160000000  0.4950190000000 1.0
C      1  0.4292190000000  0.5601690000000  0.4840330000000 1.0
C      1  0.5088310000000  0.5736430000000  0.4440960000000 1.0
C      1  0.5372190000000  0.4800050000000  0.4308600000000 1.0
C      1  0.5024630000000  0.5883110000000  0.5208420000000 1.0
C      1  0.4806720000000  0.5671070000000  0.4293410000000 1.0
C      1  0.4552200000000  0.4084840000000  0.5093720000000 1.0
C      1  0.5897700000000  0.5091160000000  0.5554290000000 1.0
C      1  0.5656720000000  0.4610490000000  0.5135780000000 1.0
C      1  0.5041250000000  0.4249510000000  0.5637400000000 1.0
C      1  0.5481010000000  0.4344830000000  0.4390730000000 1.0
C      1  0.4392450000000  0.4305640000000  0.5593980000000 1.0
C      1  0.5533950000000  0.5279310000000  0.5796340000000 1.0
C      1  0.5796070000000  0.5597690000000  0.4838320000000 1.0
C      1  0.4145560000000  0.5234900000000  0.5371740000000 1.0
C      1  0.6006920000000  0.5241010000000  0.5090770000000 1.0
C      1  0.5453690000000  0.4173830000000  0.5082550000000 1.0
C      1  0.4109010000000  0.4705950000000  0.4726000000000 1.0
C      1  0.4614590000000  0.4935060000000  0.4933410000000 1.0
C      1  0.4747630000000  0.5328820000000  0.4582100000000 1.0
C      1  0.5279590000000  0.5137490000000  0.5862150000000 1.0
C      1  0.4880040000000  0.4935480000000  0.6201660000000 1.0
C      1  0.4504040000000  0.5083680000000  0.4118230000000 1.0
C      1  0.5275020000000  0.4520270000000  0.4268260000000 1.0
C      1  0.5610110000000  0.5801640000000  0.4820210000000 1.0
C      1  0.5393060000000  0.5338650000000  0.4769200000000 1.0
C      1  0.4887210000000  0.5393110000000  0.4275540000000 1.0
C      1  0.5117550000000  0.4958720000000  0.5163790000000 1.0
C      1  0.5150550000000  0.5384420000000  0.4163400000000 1.0
C      1  0.4977520000000  0.4924460000000  0.4565680000000 1.0
C      1  0.5626190000000  0.5435900000000  0.4656230000000 1.0
C      1  0.5400790000000  0.5053350000000  0.5126770000000 1.0
C      1  0.4815410000000  0.5441280000000  0.5720350000000 1.0
C      1  0.4970150000000  0.5276490000000  0.5524510000000 1.0
C      1  0.5188400000000  0.3984680000000  0.4661690000000 1.0
C      1  0.4838740000000  0.4702350000000  0.4120170000000 1.0
C      1  0.4765560000000  0.5573040000000  0.4737180000000 1.0
C      1  0.5721410000000  0.4964340000000  0.4501360000000 1.0
C      1  0.5340610000000  0.5842050000000  0.4857090000000 1.0
C      1  0.5664820000000  0.4447510000000  0.5383390000000 1.0
C      1  0.5384310000000  0.4140920000000  0.4550530000000 1.0
C      1  0.5153930000000  0.4969160000000  0.4353990000000 1.0
C      1  0.4437360000000  0.4555020000000  0.5709200000000 1.0
C      1  0.4949990000000  0.5555280000000  0.4948320000000 1.0
C      1  0.4996450000000  0.4706780000000  0.5179560000000 1.0
C      1  0.4492960000000  0.5142050000000  0.5087630000000 1.0
C      1  0.4274850000000  0.4546770000000  0.4963790000000 1.0
C      1  0.4727640000000  0.5071790000000  0.3956430000000 1.0
C      1  0.5635120000000  0.4560400000000  0.5666790000000 1.0
C      1  0.5139800000000  0.4473230000000  0.5148540000000 1.0
C      1  0.5089580000000  0.5762730000000  0.5452610000000 1.0
C      1  0.4843030000000  0.5098730000000  0.4762710000000 1.0
C      1  0.4523030000000  0.5490480000000  0.5689660000000 1.0
C      1  0.5644570000000  0.4892180000000  0.5203030000000 1.0
C      1  0.5304870000000  0.5561300000000  0.4323940000000 1.0
C      1  0.4579720000000  0.4520020000000  0.4926290000000 1.0
C      1  0.5203750000000  0.5091680000000  0.4090060000000 1.0
C      1  0.5514790000000  0.4203590000000  0.5371350000000 1.0
END
