TITL C-4164238-4211-749 16.3190784798224 125000 -24214.2492770713 0 0 161 (C1) n - 1
REM
REM in /home/nfs/bkarasulu/CARBON/AIRSS/Generating-Clusters/ReaxFF-fromJPCA2015/Units_Real/with-SteepDescent/Only-C1/SD-CG/Try1-3A/FIRE-CG
REM
REM
REM
REM
REM
REM ./C.cell (11c1c37f851c82e70ff6c80c92926a4b)
REM
REM compiler GCC version 9.2.1 20190827 (Red Hat 9.2.1-1)
REM options -cpp -mtune=generic -march=x86-64 -g -O0 -fpre-include=/usr/include/finclude/math-vector-fortran.h
REM seed 785153804 525895623 1059286335 2047314261 -86258099 460539749 -510421344 -720470790 -1331766981 -898907074 -812898401 -1381578551 226383958 1943030171 1302430044 -1137831624 2061282877 1676292865 1793762744 -2092296819 1830465686 -1746583170 1342613875 -745787375 740862492 1626502785 172557979 -947761564 -1451006016 60632628 1495814283 670451362 -361123910
REM
CELL 1.54180   50.00000   50.00000   50.00000   90.00000   90.00000   90.00000
LATT -1
SFAC C  
C      1  0.5282100000000  0.4632330000000  0.4044660000000 1.0
C      1  0.4726930000000  0.5821730000000  0.5131050000000 1.0
C      1  0.5192100000000  0.4287690000000  0.5629180000000 1.0
C      1  0.4097220000000  0.4666770000000  0.5505620000000 1.0
C      1  0.5039300000000  0.4512940000000  0.5186570000000 1.0
C      1  0.4331620000000  0.5427720000000  0.4650510000000 1.0
C      1  0.6035000000000  0.5107990000000  0.4632090000000 1.0
C      1  0.5229670000000  0.5457540000000  0.4077760000000 1.0
C      1  0.3989060000000  0.4433170000000  0.5015300000000 1.0
C      1  0.6072350000000  0.5249690000000  0.4889170000000 1.0
C      1  0.5697330000000  0.4288100000000  0.4609220000000 1.0
C      1  0.4839860000000  0.4682720000000  0.4137080000000 1.0
C      1  0.5585830000000  0.5369870000000  0.5305440000000 1.0
C      1  0.3980310000000  0.5181710000000  0.5046180000000 1.0
C      1  0.4653060000000  0.5102190000000  0.5998010000000 1.0
C      1  0.5471870000000  0.4355880000000  0.5608210000000 1.0
C      1  0.4459250000000  0.5757540000000  0.5258550000000 1.0
C      1  0.4543070000000  0.4309040000000  0.4301460000000 1.0
C      1  0.4579740000000  0.4547190000000  0.5383460000000 1.0
C      1  0.4582690000000  0.4532030000000  0.4949430000000 1.0
C      1  0.5040440000000  0.4062990000000  0.4705480000000 1.0
C      1  0.5766400000000  0.5731350000000  0.4501350000000 1.0
C      1  0.4917480000000  0.4886810000000  0.3911630000000 1.0
C      1  0.4779660000000  0.5283410000000  0.5208800000000 1.0
C      1  0.4471310000000  0.4961880000000  0.5606550000000 1.0
C      1  0.4262220000000  0.4945510000000  0.5806640000000 1.0
C      1  0.4618960000000  0.4626650000000  0.5971710000000 1.0
C      1  0.4999030000000  0.5000480000000  0.4866910000000 1.0
C      1  0.4716800000000  0.4500130000000  0.4698490000000 1.0
C      1  0.5836920000000  0.4957970000000  0.4227290000000 1.0
C      1  0.5499860000000  0.6030240000000  0.4616820000000 1.0
C      1  0.5653470000000  0.4913640000000  0.5080670000000 1.0
C      1  0.4151670000000  0.5214150000000  0.4529190000000 1.0
C      1  0.5705770000000  0.4486990000000  0.4381380000000 1.0
C      1  0.3981470000000  0.5131310000000  0.4754220000000 1.0
C      1  0.5920620000000  0.5187940000000  0.4373310000000 1.0
C      1  0.5462740000000  0.4235680000000  0.4804210000000 1.0
C      1  0.5511940000000  0.4838060000000  0.5672230000000 1.0
C      1  0.5899150000000  0.4415480000000  0.4751270000000 1.0
C      1  0.5000040000000  0.4267510000000  0.4312530000000 1.0
C      1  0.4885940000000  0.5901630000000  0.5406190000000 1.0
C      1  0.4619260000000  0.5040330000000  0.4615560000000 1.0
C      1  0.5464740000000  0.5528970000000  0.5082000000000 1.0
C      1  0.5205530000000  0.5806240000000  0.4879050000000 1.0
C      1  0.5189660000000  0.5568150000000  0.5011710000000 1.0
C      1  0.4656730000000  0.4087470000000  0.5189350000000 1.0
C      1  0.4297310000000  0.4352160000000  0.5682100000000 1.0
C      1  0.4770540000000  0.3975100000000  0.4647110000000 1.0
C      1  0.4858740000000  0.4531650000000  0.5402580000000 1.0
C      1  0.5890380000000  0.4718620000000  0.4387130000000 1.0
C      1  0.4539940000000  0.4578520000000  0.4174900000000 1.0
C      1  0.4838580000000  0.5484540000000  0.4751210000000 1.0
C      1  0.4398200000000  0.4771260000000  0.5399720000000 1.0
C      1  0.4756520000000  0.4129890000000  0.4374310000000 1.0
C      1  0.4877230000000  0.4807420000000  0.5490660000000 1.0
C      1  0.5499230000000  0.5225140000000  0.4498810000000 1.0
C      1  0.4250100000000  0.5627400000000  0.5107930000000 1.0
C      1  0.4382400000000  0.5455400000000  0.5673640000000 1.0
C      1  0.5654490000000  0.4279110000000  0.5387610000000 1.0
C      1  0.5247080000000  0.6036600000000  0.5051290000000 1.0
C      1  0.6028350000000  0.5127570000000  0.5153770000000 1.0
C      1  0.4492170000000  0.5699220000000  0.5542160000000 1.0
C      1  0.3951420000000  0.4839570000000  0.4753710000000 1.0
C      1  0.6031830000000  0.4819430000000  0.4620280000000 1.0
C      1  0.4475970000000  0.4367750000000  0.4567870000000 1.0
C      1  0.4833230000000  0.5933250000000  0.4590050000000 1.0
C      1  0.4701470000000  0.4008420000000  0.4921580000000 1.0
C      1  0.4412300000000  0.4741250000000  0.4923940000000 1.0
C      1  0.4461860000000  0.4881860000000  0.6009250000000 1.0
C      1  0.4179750000000  0.5320780000000  0.5519340000000 1.0
C      1  0.4437520000000  0.5905920000000  0.4750960000000 1.0
C      1  0.4750250000000  0.5773120000000  0.5641710000000 1.0
C      1  0.5953500000000  0.5544310000000  0.5241840000000 1.0
C      1  0.4816990000000  0.4820120000000  0.4646550000000 1.0
C      1  0.4230010000000  0.4479080000000  0.4571680000000 1.0
C      1  0.3877580000000  0.4944860000000  0.5179150000000 1.0
C      1  0.5449730000000  0.4595970000000  0.4282250000000 1.0
C      1  0.4914510000000  0.4966500000000  0.5998450000000 1.0
C      1  0.5228170000000  0.4860710000000  0.4929820000000 1.0
C      1  0.4855500000000  0.5295770000000  0.5497670000000 1.0
C      1  0.4182960000000  0.5340590000000  0.5206550000000 1.0
C      1  0.4958660000000  0.5060560000000  0.5145610000000 1.0
C      1  0.4487800000000  0.4355180000000  0.5175000000000 1.0
C      1  0.5832560000000  0.5496410000000  0.5476020000000 1.0
C      1  0.5408360000000  0.5151990000000  0.6019270000000 1.0
C      1  0.5214350000000  0.4906660000000  0.3943790000000 1.0
C      1  0.5126700000000  0.6033990000000  0.5345730000000 1.0
C      1  0.4481030000000  0.5206270000000  0.4799530000000 1.0
C      1  0.3926980000000  0.4893560000000  0.5471410000000 1.0
C      1  0.4824840000000  0.4094420000000  0.5435300000000 1.0
C      1  0.4468940000000  0.5188380000000  0.5094580000000 1.0
C      1  0.5444140000000  0.6131310000000  0.4878990000000 1.0
C      1  0.5465590000000  0.4940210000000  0.4623360000000 1.0
C      1  0.5012480000000  0.4332820000000  0.4617370000000 1.0
C      1  0.4166580000000  0.4315470000000  0.5209320000000 1.0
C      1  0.4061030000000  0.5092660000000  0.5647720000000 1.0
C      1  0.5965970000000  0.5512320000000  0.4964940000000 1.0
C      1  0.4997410000000  0.4817790000000  0.4407000000000 1.0
C      1  0.4895690000000  0.4664710000000  0.5955400000000 1.0
C      1  0.5863850000000  0.5292970000000  0.5692540000000 1.0
C      1  0.4408600000000  0.4905870000000  0.5135620000000 1.0
C      1  0.4776530000000  0.4241680000000  0.5699590000000 1.0
C      1  0.4885470000000  0.5541400000000  0.5037660000000 1.0
C      1  0.5459440000000  0.4974350000000  0.4908150000000 1.0
C      1  0.4228560000000  0.4739650000000  0.4706740000000 1.0
C      1  0.4631340000000  0.5550640000000  0.4521240000000 1.0
C      1  0.5050090000000  0.5789650000000  0.4448940000000 1.0
C      1  0.4532420000000  0.4364290000000  0.5830260000000 1.0
C      1  0.5653060000000  0.5174030000000  0.4260340000000 1.0
C      1  0.5043100000000  0.4467270000000  0.4104520000000 1.0
C      1  0.5056070000000  0.5298060000000  0.4738490000000 1.0
C      1  0.5737090000000  0.5908270000000  0.4731340000000 1.0
C      1  0.5204780000000  0.5272490000000  0.4492330000000 1.0
C      1  0.5282700000000  0.4053760000000  0.5168570000000 1.0
C      1  0.5090190000000  0.5088270000000  0.4305390000000 1.0
C      1  0.6029540000000  0.5063680000000  0.5608910000000 1.0
C      1  0.5106190000000  0.4914060000000  0.5344430000000 1.0
C      1  0.4784560000000  0.5568690000000  0.5859960000000 1.0
C      1  0.4743730000000  0.5118640000000  0.3893090000000 1.0
C      1  0.5041240000000  0.5466180000000  0.5971180000000 1.0
C      1  0.5386750000000  0.5265500000000  0.5523950000000 1.0
C      1  0.5561360000000  0.5543470000000  0.4611380000000 1.0
C      1  0.5624250000000  0.4587430000000  0.5653810000000 1.0
C      1  0.5283370000000  0.5155350000000  0.4091920000000 1.0
C      1  0.5202150000000  0.5617440000000  0.5766290000000 1.0
C      1  0.4578740000000  0.5367000000000  0.5879210000000 1.0
C      1  0.5214770000000  0.4566810000000  0.4999370000000 1.0
C      1  0.5422530000000  0.5643420000000  0.4150840000000 1.0
C      1  0.4738270000000  0.5486420000000  0.4247780000000 1.0
C      1  0.6111910000000  0.4928180000000  0.5358820000000 1.0
C      1  0.4275670000000  0.5059400000000  0.4306360000000 1.0
C      1  0.4703100000000  0.5966200000000  0.4865050000000 1.0
C      1  0.5263500000000  0.4446820000000  0.4710940000000 1.0
C      1  0.4607100000000  0.5253780000000  0.4130090000000 1.0
C      1  0.4151890000000  0.4341200000000  0.4801480000000 1.0
C      1  0.5121460000000  0.5173340000000  0.6019590000000 1.0
C      1  0.4570620000000  0.5849740000000  0.4493620000000 1.0
C      1  0.3867640000000  0.4716960000000  0.4998260000000 1.0
C      1  0.5120880000000  0.5418080000000  0.5549540000000 1.0
C      1  0.5106730000000  0.4104380000000  0.5412480000000 1.0
C      1  0.4984000000000  0.4411620000000  0.5802590000000 1.0
C      1  0.4747040000000  0.5039590000000  0.5592570000000 1.0
C      1  0.5533890000000  0.4177690000000  0.5147330000000 1.0
C      1  0.6038830000000  0.4637700000000  0.4861800000000 1.0
C      1  0.5818220000000  0.4682390000000  0.5058300000000 1.0
C      1  0.5345620000000  0.4978220000000  0.5492620000000 1.0
C      1  0.5563580000000  0.5293340000000  0.5795890000000 1.0
C      1  0.5300270000000  0.4712980000000  0.4512620000000 1.0
C      1  0.5743340000000  0.5136790000000  0.5205560000000 1.0
C      1  0.4086930000000  0.4372880000000  0.5489240000000 1.0
C      1  0.5835400000000  0.4501080000000  0.5469930000000 1.0
C      1  0.5302950000000  0.5777580000000  0.4608730000000 1.0
C      1  0.5675680000000  0.5610360000000  0.4888150000000 1.0
C      1  0.4549960000000  0.5078200000000  0.4349760000000 1.0
C      1  0.6000480000000  0.4658080000000  0.5288000000000 1.0
C      1  0.5004520000000  0.5598680000000  0.4226850000000 1.0
C      1  0.5615730000000  0.5015780000000  0.5868480000000 1.0
C      1  0.4323970000000  0.4772200000000  0.4212250000000 1.0
C      1  0.5598390000000  0.5793900000000  0.4284940000000 1.0
C      1  0.4272400000000  0.5672830000000  0.4828730000000 1.0
C      1  0.5266510000000  0.4024920000000  0.4874190000000 1.0
END
