TITL C-4164235-1454-250 3.95324162369185 125000 -13071.2175080654 0 0 88 (C1) n - 1
REM
REM in /home/nfs/bkarasulu/CARBON/AIRSS/Generating-Clusters/ReaxFF-fromJPCA2015/Units_Real/with-SteepDescent/Only-C1/SD-CG/Try1-3A/FIRE-CG
REM
REM
REM
REM
REM
REM ./C.cell (11c1c37f851c82e70ff6c80c92926a4b)
REM
REM compiler GCC version 9.2.1 20190827 (Red Hat 9.2.1-1)
REM options -cpp -mtune=generic -march=x86-64 -g -O0 -fpre-include=/usr/include/finclude/math-vector-fortran.h
REM seed 1962877722 1655353375 1066694817 1016514413 -572132072 1384555973 -72353469 -1566781425 -1623075646 -332942282 -1086351988 86527772 -1947852175 -203441198 -1971035258 -802991998 -1729983009 1053406989 536691936 -701897113 734350160 -1152740980 -908100828 -1841834173 1988026258 1973126892 1890405959 -1942326001 -1296254188 1591931170 647795983 1798552006 -1761525265
REM
CELL 1.54180   50.00000   50.00000   50.00000   90.00000   90.00000   90.00000
LATT -1
SFAC C  
C      1  0.4667190000000  0.4516480000000  0.4320440000000 1.0
C      1  0.4841640000000  0.5196780000000  0.5489840000000 1.0
C      1  0.4142640000000  0.4920560000000  0.4685840000000 1.0
C      1  0.4261250000000  0.5416070000000  0.4677140000000 1.0
C      1  0.5399800000000  0.4526270000000  0.5083290000000 1.0
C      1  0.5369570000000  0.4752410000000  0.4362620000000 1.0
C      1  0.4381190000000  0.5597780000000  0.4862980000000 1.0
C      1  0.4838240000000  0.4691300000000  0.5168970000000 1.0
C      1  0.5495680000000  0.4308380000000  0.4652880000000 1.0
C      1  0.4884790000000  0.4382580000000  0.4417220000000 1.0
C      1  0.5616500000000  0.4443140000000  0.4893130000000 1.0
C      1  0.5201570000000  0.5098220000000  0.5782240000000 1.0
C      1  0.5060860000000  0.4853080000000  0.4423460000000 1.0
C      1  0.4180390000000  0.5025140000000  0.5181360000000 1.0
C      1  0.4602600000000  0.4854140000000  0.5222590000000 1.0
C      1  0.4651030000000  0.4915680000000  0.4655500000000 1.0
C      1  0.4396140000000  0.4794480000000  0.4616330000000 1.0
C      1  0.4753450000000  0.4249210000000  0.5356870000000 1.0
C      1  0.5466020000000  0.4979690000000  0.5807830000000 1.0
C      1  0.4947160000000  0.4696150000000  0.5491610000000 1.0
C      1  0.4977030000000  0.4976230000000  0.5624110000000 1.0
C      1  0.4599210000000  0.5123090000000  0.5334400000000 1.0
C      1  0.5692050000000  0.4897530000000  0.5032420000000 1.0
C      1  0.5411630000000  0.4543980000000  0.5370230000000 1.0
C      1  0.4444170000000  0.4524250000000  0.4524580000000 1.0
C      1  0.4514560000000  0.5347960000000  0.4566870000000 1.0
C      1  0.4046300000000  0.5026620000000  0.4930090000000 1.0
C      1  0.5472520000000  0.5273950000000  0.5374290000000 1.0
C      1  0.4755380000000  0.4242140000000  0.4793620000000 1.0
C      1  0.5145360000000  0.5167990000000  0.4457680000000 1.0
C      1  0.4744630000000  0.4384680000000  0.5086880000000 1.0
C      1  0.4889950000000  0.5170880000000  0.4929340000000 1.0
C      1  0.5619920000000  0.5017580000000  0.5538380000000 1.0
C      1  0.5273870000000  0.4225460000000  0.5020820000000 1.0
C      1  0.5258000000000  0.5822520000000  0.4752520000000 1.0
C      1  0.4690880000000  0.4563360000000  0.5632920000000 1.0
C      1  0.5754840000000  0.4886460000000  0.5306500000000 1.0
C      1  0.5034910000000  0.4243550000000  0.5443560000000 1.0
C      1  0.5616530000000  0.5198010000000  0.4522320000000 1.0
C      1  0.5736750000000  0.4753730000000  0.4561780000000 1.0
C      1  0.5618470000000  0.4930800000000  0.4383840000000 1.0
C      1  0.5183220000000  0.4061180000000  0.5249050000000 1.0
C      1  0.5807020000000  0.5289820000000  0.4734250000000 1.0
C      1  0.5573960000000  0.5648080000000  0.5131870000000 1.0
C      1  0.5356620000000  0.5198150000000  0.4657560000000 1.0
C      1  0.5167640000000  0.4493830000000  0.5496130000000 1.0
C      1  0.4658950000000  0.5176340000000  0.4753370000000 1.0
C      1  0.4911090000000  0.4800320000000  0.4673130000000 1.0
C      1  0.5093920000000  0.5715410000000  0.4526820000000 1.0
C      1  0.5094670000000  0.5928410000000  0.4965890000000 1.0
C      1  0.5064140000000  0.5436680000000  0.4385130000000 1.0
C      1  0.4379640000000  0.5529730000000  0.5157710000000 1.0
C      1  0.5608640000000  0.4712110000000  0.5460350000000 1.0
C      1  0.5001650000000  0.5352950000000  0.5095680000000 1.0
C      1  0.5790600000000  0.5172420000000  0.5016350000000 1.0
C      1  0.5679540000000  0.5382550000000  0.5187260000000 1.0
C      1  0.5244590000000  0.5208980000000  0.5148650000000 1.0
C      1  0.4840480000000  0.4748770000000  0.4227540000000 1.0
C      1  0.5530630000000  0.5745590000000  0.4847440000000 1.0
C      1  0.4679380000000  0.4973450000000  0.4244080000000 1.0
C      1  0.4824220000000  0.5706700000000  0.4583450000000 1.0
C      1  0.5362980000000  0.5499760000000  0.5542020000000 1.0
C      1  0.5420180000000  0.4509460000000  0.4472940000000 1.0
C      1  0.4591370000000  0.5651590000000  0.5315680000000 1.0
C      1  0.5255880000000  0.4163460000000  0.4737510000000 1.0
C      1  0.4317290000000  0.4489670000000  0.5269440000000 1.0
C      1  0.4982240000000  0.4204230000000  0.4610850000000 1.0
C      1  0.4083820000000  0.5198690000000  0.4719670000000 1.0
C      1  0.4485270000000  0.4337890000000  0.4744890000000 1.0
C      1  0.5774040000000  0.4681130000000  0.4834710000000 1.0
C      1  0.5291730000000  0.4830410000000  0.4979870000000 1.0
C      1  0.4880110000000  0.5407360000000  0.5707640000000 1.0
C      1  0.4620420000000  0.5762430000000  0.4769740000000 1.0
C      1  0.5372530000000  0.5714410000000  0.5340340000000 1.0
C      1  0.4520090000000  0.4388540000000  0.5481390000000 1.0
C      1  0.4633690000000  0.5355270000000  0.6039750000000 1.0
C      1  0.4560090000000  0.5166380000000  0.4355200000000 1.0
C      1  0.5691330000000  0.5543890000000  0.4738990000000 1.0
C      1  0.4321380000000  0.4778770000000  0.5257580000000 1.0
C      1  0.4760350000000  0.5215540000000  0.5886410000000 1.0
C      1  0.4440520000000  0.4372320000000  0.5038580000000 1.0
C      1  0.5004940000000  0.4847480000000  0.4941090000000 1.0
C      1  0.5345730000000  0.5086440000000  0.4922190000000 1.0
C      1  0.5126100000000  0.5831500000000  0.5243570000000 1.0
C      1  0.5173620000000  0.5399710000000  0.5732820000000 1.0
C      1  0.4879250000000  0.5643730000000  0.5203830000000 1.0
C      1  0.4348650000000  0.5245370000000  0.5259220000000 1.0
C      1  0.4811110000000  0.5854810000000  0.4973090000000 1.0
END
