TITL C-4164236-1577-510 0.494552292166508 125000 -4280.25303813103 0 0 30 (C1) n - 1
REM
REM in /home/nfs/bkarasulu/CARBON/AIRSS/Generating-Clusters/ReaxFF-fromJPCA2015/Units_Real/with-SteepDescent/Only-C1/SD-CG/Try1-3A/FIRE-CG
REM
REM
REM
REM
REM
REM ./C.cell (11c1c37f851c82e70ff6c80c92926a4b)
REM
REM compiler GCC version 9.2.1 20190827 (Red Hat 9.2.1-1)
REM options -cpp -mtune=generic -march=x86-64 -g -O0 -fpre-include=/usr/include/finclude/math-vector-fortran.h
REM seed 1582929196 888832 2006369038 -309140399 -1692312451 187359239 839620302 -1693391699 -509470896 -894184248 -2096307047 911607822 -304203943 1162656747 -1509701177 -282787573 -45082180 -632607274 -1990554085 -1910672494 400520257 935755729 1527665340 -757291811 -1037875535 -2035555438 -1450291329 498617718 -1913028781 -2110146997 1987449374 -281261824 519985396
REM
CELL 1.54180   50.00000   50.00000   50.00000   90.00000   90.00000   90.00000
LATT -1
SFAC C  
C      1  0.4968460000000  0.4479730000000  0.5057340000000 1.0
C      1  0.4391680000000  0.5122080000000  0.4732460000000 1.0
C      1  0.5359700000000  0.5021250000000  0.4933740000000 1.0
C      1  0.4849860000000  0.4947820000000  0.5087770000000 1.0
C      1  0.5341140000000  0.4507240000000  0.4535410000000 1.0
C      1  0.5168230000000  0.4983850000000  0.5554630000000 1.0
C      1  0.5501480000000  0.4769870000000  0.4980310000000 1.0
C      1  0.4846010000000  0.5376970000000  0.5549580000000 1.0
C      1  0.4707500000000  0.5466310000000  0.5117590000000 1.0
C      1  0.5537590000000  0.4607460000000  0.4730600000000 1.0
C      1  0.5181780000000  0.4745850000000  0.5411710000000 1.0
C      1  0.4618770000000  0.5209940000000  0.5500290000000 1.0
C      1  0.4615700000000  0.5186790000000  0.5181180000000 1.0
C      1  0.5152400000000  0.5377060000000  0.4988130000000 1.0
C      1  0.4862430000000  0.5572720000000  0.5328500000000 1.0
C      1  0.4353360000000  0.5140360000000  0.5019390000000 1.0
C      1  0.5123110000000  0.5104770000000  0.5077030000000 1.0
C      1  0.5208060000000  0.5270310000000  0.4531760000000 1.0
C      1  0.4874620000000  0.4562230000000  0.4782070000000 1.0
C      1  0.4768490000000  0.4825600000000  0.4820420000000 1.0
C      1  0.5035840000000  0.5232610000000  0.4359000000000 1.0
C      1  0.5346030000000  0.5284150000000  0.4777570000000 1.0
C      1  0.5042710000000  0.4488810000000  0.4548680000000 1.0
C      1  0.4645080000000  0.4993000000000  0.4614620000000 1.0
C      1  0.4960650000000  0.5563930000000  0.5061840000000 1.0
C      1  0.5107760000000  0.5227110000000  0.5671520000000 1.0
C      1  0.5246190000000  0.4459600000000  0.5113700000000 1.0
C      1  0.4832190000000  0.5124700000000  0.4450720000000 1.0
C      1  0.4937940000000  0.4703990000000  0.5244380000000 1.0
C      1  0.5415240000000  0.4643880000000  0.5238070000000 1.0
END
