TITL C-4164246-3563-724 22.6866046265913 125000 -23664.5545637872 0 0 158 (C1) n - 1
REM
REM in /home/nfs/bkarasulu/CARBON/AIRSS/Generating-Clusters/ReaxFF-fromJPCA2015/Units_Real/with-SteepDescent/Only-C1/SD-CG/Try1-3A/FIRE-CG
REM
REM
REM
REM
REM
REM ./C.cell (11c1c37f851c82e70ff6c80c92926a4b)
REM
REM compiler GCC version 9.2.1 20190827 (Red Hat 9.2.1-1)
REM options -cpp -mtune=generic -march=x86-64 -g -O0 -fpre-include=/usr/include/finclude/math-vector-fortran.h
REM seed 1812326693 585798278 836676420 -1310305528 -2091298553 -774097327 -1865568863 -1210180769 -796429993 -1359051416 -1013377969 -335847793 -1021981194 -1100744344 2119139737 778598134 -94495406 735995623 644576595 145042548 -169211845 -1840925679 -415779199 -240429059 -810903044 1102074362 -1991929358 -1336978388 -843608175 1384693187 233767919 -1098375157 -1984441089
REM
CELL 1.54180   50.00000   50.00000   50.00000   90.00000   90.00000   90.00000
LATT -1
SFAC C  
C      1  0.5191440000000  0.5797750000000  0.5595500000000 1.0
C      1  0.5255950000000  0.4999270000000  0.4465400000000 1.0
C      1  0.4973620000000  0.4380230000000  0.5310870000000 1.0
C      1  0.5038380000000  0.5029740000000  0.5794560000000 1.0
C      1  0.5647060000000  0.5750700000000  0.5326900000000 1.0
C      1  0.4911920000000  0.5202030000000  0.5309520000000 1.0
C      1  0.5001870000000  0.5071700000000  0.4867810000000 1.0
C      1  0.5610940000000  0.5493490000000  0.4338510000000 1.0
C      1  0.4721470000000  0.5396990000000  0.5432520000000 1.0
C      1  0.5851250000000  0.5262220000000  0.4666850000000 1.0
C      1  0.3973680000000  0.5297030000000  0.4986320000000 1.0
C      1  0.5403150000000  0.4519930000000  0.5130810000000 1.0
C      1  0.4076000000000  0.5046400000000  0.5131050000000 1.0
C      1  0.5827490000000  0.4400120000000  0.4611530000000 1.0
C      1  0.4495180000000  0.4812480000000  0.4083380000000 1.0
C      1  0.5442230000000  0.5162430000000  0.6065190000000 1.0
C      1  0.4360880000000  0.4656980000000  0.5876700000000 1.0
C      1  0.5393320000000  0.5318560000000  0.5534850000000 1.0
C      1  0.5095360000000  0.4744960000000  0.4388690000000 1.0
C      1  0.6091210000000  0.4964370000000  0.4896070000000 1.0
C      1  0.4905640000000  0.6028800000000  0.5098120000000 1.0
C      1  0.5790110000000  0.5665890000000  0.5073740000000 1.0
C      1  0.4969010000000  0.4634770000000  0.4102480000000 1.0
C      1  0.4886810000000  0.5189040000000  0.4115690000000 1.0
C      1  0.5231610000000  0.5258560000000  0.5821400000000 1.0
C      1  0.5304140000000  0.3923130000000  0.5006650000000 1.0
C      1  0.5950860000000  0.4661970000000  0.5291410000000 1.0
C      1  0.4117760000000  0.5282690000000  0.5602950000000 1.0
C      1  0.5812310000000  0.4580680000000  0.4381500000000 1.0
C      1  0.5278400000000  0.4956470000000  0.4964260000000 1.0
C      1  0.5680300000000  0.4956600000000  0.4232460000000 1.0
C      1  0.5515240000000  0.5927290000000  0.4707370000000 1.0
C      1  0.6061560000000  0.4697280000000  0.5007730000000 1.0
C      1  0.5424820000000  0.5231800000000  0.4971890000000 1.0
C      1  0.5400310000000  0.4013200000000  0.5274230000000 1.0
C      1  0.4412890000000  0.4590600000000  0.4242440000000 1.0
C      1  0.4766290000000  0.4896980000000  0.5395520000000 1.0
C      1  0.4665030000000  0.5975020000000  0.4941570000000 1.0
C      1  0.4721330000000  0.5668770000000  0.5313650000000 1.0
C      1  0.5563550000000  0.5093790000000  0.5505040000000 1.0
C      1  0.4990330000000  0.3942980000000  0.4939710000000 1.0
C      1  0.5128810000000  0.4275800000000  0.4243580000000 1.0
C      1  0.4001930000000  0.4780980000000  0.4589690000000 1.0
C      1  0.5161940000000  0.3943960000000  0.5390950000000 1.0
C      1  0.4944240000000  0.5657900000000  0.4087950000000 1.0
C      1  0.4230010000000  0.4873400000000  0.5911820000000 1.0
C      1  0.4123440000000  0.5533870000000  0.5065680000000 1.0
C      1  0.4880530000000  0.4756530000000  0.4607680000000 1.0
C      1  0.5343900000000  0.5313480000000  0.4059010000000 1.0
C      1  0.5624940000000  0.4690630000000  0.5711190000000 1.0
C      1  0.4231880000000  0.5143420000000  0.5840170000000 1.0
C      1  0.4770080000000  0.3950840000000  0.5131740000000 1.0
C      1  0.3995970000000  0.5308420000000  0.4700530000000 1.0
C      1  0.5582340000000  0.4637840000000  0.4206280000000 1.0
C      1  0.3928660000000  0.4640870000000  0.4836090000000 1.0
C      1  0.4124500000000  0.5751510000000  0.4484040000000 1.0
C      1  0.4482560000000  0.5762320000000  0.5102010000000 1.0
C      1  0.4906020000000  0.5322870000000  0.6129660000000 1.0
C      1  0.5290150000000  0.5485110000000  0.4960470000000 1.0
C      1  0.5146420000000  0.5093270000000  0.4081300000000 1.0
C      1  0.5607140000000  0.4648240000000  0.4961810000000 1.0
C      1  0.4410570000000  0.4336480000000  0.5267330000000 1.0
C      1  0.5108060000000  0.4540340000000  0.5513350000000 1.0
C      1  0.4542270000000  0.4469190000000  0.5788000000000 1.0
C      1  0.5386080000000  0.4844480000000  0.4681930000000 1.0
C      1  0.5591300000000  0.5232930000000  0.4189710000000 1.0
C      1  0.4781250000000  0.4629000000000  0.5846660000000 1.0
C      1  0.5294420000000  0.4773510000000  0.5210670000000 1.0
C      1  0.5957400000000  0.5171650000000  0.5069960000000 1.0
C      1  0.4716600000000  0.4739050000000  0.5155550000000 1.0
C      1  0.5896360000000  0.4869280000000  0.4395790000000 1.0
C      1  0.4893720000000  0.5912160000000  0.4219350000000 1.0
C      1  0.5985200000000  0.4857170000000  0.5544770000000 1.0
C      1  0.4617450000000  0.5356710000000  0.5691280000000 1.0
C      1  0.4919560000000  0.5034310000000  0.3907160000000 1.0
C      1  0.5504830000000  0.4837340000000  0.5410970000000 1.0
C      1  0.4631180000000  0.4892270000000  0.4583470000000 1.0
C      1  0.4362250000000  0.5094420000000  0.4127840000000 1.0
C      1  0.4487690000000  0.5618550000000  0.5691990000000 1.0
C      1  0.4380910000000  0.5553660000000  0.4906280000000 1.0
C      1  0.4721460000000  0.5771190000000  0.5603960000000 1.0
C      1  0.5958360000000  0.5446390000000  0.5176050000000 1.0
C      1  0.5199930000000  0.5594670000000  0.5226280000000 1.0
C      1  0.4901160000000  0.4046260000000  0.4695740000000 1.0
C      1  0.4975150000000  0.5731630000000  0.5754550000000 1.0
C      1  0.5006390000000  0.5960090000000  0.4500550000000 1.0
C      1  0.5414170000000  0.4541960000000  0.5863930000000 1.0
C      1  0.5512640000000  0.4056100000000  0.4876280000000 1.0
C      1  0.5347910000000  0.6084820000000  0.4869180000000 1.0
C      1  0.4460860000000  0.4690580000000  0.4709640000000 1.0
C      1  0.4882390000000  0.3931020000000  0.5411180000000 1.0
C      1  0.4533730000000  0.4308440000000  0.5525150000000 1.0
C      1  0.3913920000000  0.4334100000000  0.4779880000000 1.0
C      1  0.5514950000000  0.4322690000000  0.5351660000000 1.0
C      1  0.5153370000000  0.6107320000000  0.4994790000000 1.0
C      1  0.5227320000000  0.5582750000000  0.4098030000000 1.0
C      1  0.5370980000000  0.5829850000000  0.5391330000000 1.0
C      1  0.5712430000000  0.5718330000000  0.4796840000000 1.0
C      1  0.4884850000000  0.4518030000000  0.4773390000000 1.0
C      1  0.4734800000000  0.5425720000000  0.4167530000000 1.0
C      1  0.5868470000000  0.4530950000000  0.4867530000000 1.0
C      1  0.4935610000000  0.4728320000000  0.6074450000000 1.0
C      1  0.4390060000000  0.5049730000000  0.5090420000000 1.0
C      1  0.4496380000000  0.4963740000000  0.5477660000000 1.0
C      1  0.4956430000000  0.5453690000000  0.4603060000000 1.0
C      1  0.4615320000000  0.4403950000000  0.4318700000000 1.0
C      1  0.5843350000000  0.5117360000000  0.5547860000000 1.0
C      1  0.4045860000000  0.4716840000000  0.5085010000000 1.0
C      1  0.5396730000000  0.5692860000000  0.4305480000000 1.0
C      1  0.4164910000000  0.5563410000000  0.4645300000000 1.0
C      1  0.5371310000000  0.4899140000000  0.6097100000000 1.0
C      1  0.5807730000000  0.4365770000000  0.5362980000000 1.0
C      1  0.5046980000000  0.5477830000000  0.5926480000000 1.0
C      1  0.4810690000000  0.5967920000000  0.4703610000000 1.0
C      1  0.5297100000000  0.4601640000000  0.4561720000000 1.0
C      1  0.4240940000000  0.5548340000000  0.5538880000000 1.0
C      1  0.5332430000000  0.4406360000000  0.5621740000000 1.0
C      1  0.4896150000000  0.5025570000000  0.6039960000000 1.0
C      1  0.4281810000000  0.5163730000000  0.4410070000000 1.0
C      1  0.5326200000000  0.4321340000000  0.4617550000000 1.0
C      1  0.4705320000000  0.5409610000000  0.4468460000000 1.0
C      1  0.4764340000000  0.4794800000000  0.3969110000000 1.0
C      1  0.5351860000000  0.4469940000000  0.4170260000000 1.0
C      1  0.4208660000000  0.4595470000000  0.4486140000000 1.0
C      1  0.4939680000000  0.4783360000000  0.5626060000000 1.0
C      1  0.4457000000000  0.5334430000000  0.4008980000000 1.0
C      1  0.5304330000000  0.5879870000000  0.4509630000000 1.0
C      1  0.4804720000000  0.4206790000000  0.5485210000000 1.0
C      1  0.4038730000000  0.5067110000000  0.4535720000000 1.0
C      1  0.5112370000000  0.4153700000000  0.4510700000000 1.0
C      1  0.4220110000000  0.4574230000000  0.5263940000000 1.0
C      1  0.4067430000000  0.5053160000000  0.5433380000000 1.0
C      1  0.5698710000000  0.4788730000000  0.5201910000000 1.0
C      1  0.4488870000000  0.4794620000000  0.4994990000000 1.0
C      1  0.5884060000000  0.4719730000000  0.5768320000000 1.0
C      1  0.5173960000000  0.5341990000000  0.5354620000000 1.0
C      1  0.5891100000000  0.5396300000000  0.5461560000000 1.0
C      1  0.4236860000000  0.5685550000000  0.5281290000000 1.0
C      1  0.4243370000000  0.4813960000000  0.5443190000000 1.0
C      1  0.5231450000000  0.4663450000000  0.6071090000000 1.0
C      1  0.5074160000000  0.5178490000000  0.4610600000000 1.0
C      1  0.5040200000000  0.5564820000000  0.4859060000000 1.0
C      1  0.4530880000000  0.5255240000000  0.4926480000000 1.0
C      1  0.5642560000000  0.5533430000000  0.5511370000000 1.0
C      1  0.4536480000000  0.5192790000000  0.4582410000000 1.0
C      1  0.5705270000000  0.5189440000000  0.4917190000000 1.0
C      1  0.4633110000000  0.4412000000000  0.4634110000000 1.0
C      1  0.4950410000000  0.5713640000000  0.5111790000000 1.0
C      1  0.4892210000000  0.4529460000000  0.5065530000000 1.0
C      1  0.4857190000000  0.4375000000000  0.4160900000000 1.0
C      1  0.4094180000000  0.4311970000000  0.4551840000000 1.0
C      1  0.5603070000000  0.4206650000000  0.4657030000000 1.0
C      1  0.4812840000000  0.5214120000000  0.5020200000000 1.0
C      1  0.4491110000000  0.5114620000000  0.5723330000000 1.0
C      1  0.6021410000000  0.5030700000000  0.4618880000000 1.0
C      1  0.5772640000000  0.5531640000000  0.4578400000000 1.0
C      1  0.4556930000000  0.4151900000000  0.5070590000000 1.0
C      1  0.4627960000000  0.4149440000000  0.4787650000000 1.0
END
