TITL C-4164238-4211-635 8.43667982057319 125000 -28088.6025392 0 0 187 (C1) n - 1
REM
REM in /home/nfs/bkarasulu/CARBON/AIRSS/Generating-Clusters/ReaxFF-fromJPCA2015/Units_Real/with-SteepDescent/Only-C1/SD-CG/Try1-3A/FIRE-CG
REM
REM
REM
REM
REM
REM ./C.cell (11c1c37f851c82e70ff6c80c92926a4b)
REM
REM compiler GCC version 9.2.1 20190827 (Red Hat 9.2.1-1)
REM options -cpp -mtune=generic -march=x86-64 -g -O0 -fpre-include=/usr/include/finclude/math-vector-fortran.h
REM seed 1280540394 -723488931 422407204 1466908566 1665880300 -628166188 -1783856839 1478995002 116820331 -178280135 -523674833 -1415958260 -1238303881 -738951661 -1507515386 978093651 1374650556 -2007888172 1536166076 -855699509 -354362719 748107393 -2036338562 836454911 1123219396 803953637 1635088802 1060841362 2028067127 193957517 -704521880 2010248696 501731783
REM
CELL 1.54180   50.00000   50.00000   50.00000   90.00000   90.00000   90.00000
LATT -1
SFAC C  
C      1  0.4780290000000  0.6028090000000  0.4688320000000 1.0
C      1  0.5906510000000  0.5499040000000  0.5371760000000 1.0
C      1  0.5251880000000  0.5022600000000  0.4986820000000 1.0
C      1  0.4531660000000  0.5601680000000  0.4868990000000 1.0
C      1  0.4881870000000  0.5139130000000  0.3987050000000 1.0
C      1  0.5687690000000  0.4850530000000  0.4287210000000 1.0
C      1  0.5321920000000  0.4065940000000  0.5442660000000 1.0
C      1  0.5354400000000  0.5249900000000  0.5035390000000 1.0
C      1  0.4797800000000  0.4670960000000  0.5643150000000 1.0
C      1  0.4508300000000  0.4452140000000  0.5968500000000 1.0
C      1  0.5297780000000  0.4295090000000  0.5923770000000 1.0
C      1  0.4486590000000  0.5483700000000  0.4155110000000 1.0
C      1  0.4891930000000  0.5451350000000  0.5509470000000 1.0
C      1  0.4425270000000  0.5878680000000  0.4795270000000 1.0
C      1  0.4512490000000  0.5394720000000  0.4666990000000 1.0
C      1  0.3905320000000  0.4448180000000  0.5087880000000 1.0
C      1  0.5661300000000  0.5976430000000  0.5346130000000 1.0
C      1  0.4898480000000  0.5257700000000  0.4253700000000 1.0
C      1  0.5170370000000  0.4592220000000  0.5284790000000 1.0
C      1  0.4461610000000  0.4617650000000  0.4156830000000 1.0
C      1  0.5099240000000  0.4499090000000  0.4380140000000 1.0
C      1  0.4099730000000  0.5302780000000  0.5410830000000 1.0
C      1  0.4995230000000  0.5612010000000  0.4601920000000 1.0
C      1  0.5657830000000  0.5586830000000  0.4388570000000 1.0
C      1  0.5200970000000  0.5423770000000  0.4582700000000 1.0
C      1  0.5347350000000  0.6005150000000  0.4681170000000 1.0
C      1  0.5459210000000  0.5583110000000  0.5306250000000 1.0
C      1  0.5545630000000  0.4227490000000  0.5100500000000 1.0
C      1  0.5004570000000  0.4837210000000  0.4611090000000 1.0
C      1  0.5484850000000  0.5323570000000  0.5262900000000 1.0
C      1  0.4486460000000  0.5692950000000  0.4366530000000 1.0
C      1  0.4245870000000  0.5817900000000  0.5278570000000 1.0
C      1  0.5558660000000  0.4158770000000  0.5413650000000 1.0
C      1  0.5311720000000  0.5482330000000  0.4117730000000 1.0
C      1  0.5139560000000  0.5044740000000  0.3899290000000 1.0
C      1  0.4956470000000  0.4337730000000  0.5287020000000 1.0
C      1  0.4482860000000  0.5464480000000  0.5126670000000 1.0
C      1  0.4116090000000  0.4676630000000  0.4530940000000 1.0
C      1  0.5998740000000  0.4813670000000  0.4695170000000 1.0
C      1  0.3879580000000  0.4691950000000  0.5029470000000 1.0
C      1  0.5076670000000  0.4027900000000  0.5371170000000 1.0
C      1  0.5089410000000  0.4759630000000  0.3962100000000 1.0
C      1  0.5854770000000  0.4711800000000  0.5330180000000 1.0
C      1  0.4027690000000  0.4234560000000  0.5142400000000 1.0
C      1  0.4967040000000  0.5417700000000  0.4985410000000 1.0
C      1  0.5447140000000  0.6019480000000  0.5533470000000 1.0
C      1  0.4600510000000  0.5057650000000  0.3948760000000 1.0
C      1  0.5648290000000  0.4766360000000  0.5125740000000 1.0
C      1  0.4007820000000  0.5409420000000  0.4526200000000 1.0
C      1  0.4030650000000  0.5681100000000  0.4581660000000 1.0
C      1  0.4749330000000  0.4341130000000  0.6004690000000 1.0
C      1  0.5631190000000  0.5957860000000  0.5054670000000 1.0
C      1  0.4309670000000  0.5250610000000  0.4800460000000 1.0
C      1  0.4276170000000  0.5241830000000  0.5691000000000 1.0
C      1  0.5298630000000  0.4428540000000  0.3853020000000 1.0
C      1  0.5979350000000  0.4550530000000  0.4599400000000 1.0
C      1  0.4202190000000  0.5862510000000  0.4992690000000 1.0
C      1  0.3984000000000  0.4906060000000  0.4666750000000 1.0
C      1  0.5165060000000  0.4424480000000  0.4651370000000 1.0
C      1  0.4337510000000  0.4451410000000  0.5757020000000 1.0
C      1  0.5685130000000  0.5690470000000  0.5470450000000 1.0
C      1  0.4231850000000  0.4112920000000  0.5284720000000 1.0
C      1  0.6017600000000  0.5105720000000  0.4976390000000 1.0
C      1  0.4947780000000  0.5304130000000  0.6041930000000 1.0
C      1  0.4376920000000  0.4055090000000  0.5055530000000 1.0
C      1  0.4780150000000  0.3914020000000  0.5383450000000 1.0
C      1  0.5592950000000  0.5175470000000  0.5452590000000 1.0
C      1  0.5314230000000  0.4590200000000  0.4827080000000 1.0
C      1  0.5751540000000  0.4952620000000  0.4909130000000 1.0
C      1  0.6006630000000  0.4970440000000  0.5415240000000 1.0
C      1  0.4655420000000  0.5323510000000  0.5974700000000 1.0
C      1  0.5019160000000  0.4224310000000  0.4802950000000 1.0
C      1  0.4448270000000  0.4736370000000  0.5224700000000 1.0
C      1  0.4372960000000  0.4229780000000  0.5565890000000 1.0
C      1  0.4645210000000  0.5246650000000  0.5205780000000 1.0
C      1  0.6091120000000  0.5380170000000  0.4912920000000 1.0
C      1  0.4024110000000  0.5656240000000  0.4877910000000 1.0
C      1  0.5756680000000  0.5324390000000  0.4257360000000 1.0
C      1  0.4194060000000  0.5050660000000  0.4244130000000 1.0
C      1  0.5568810000000  0.4356340000000  0.5923530000000 1.0
C      1  0.4280920000000  0.4739090000000  0.5712630000000 1.0
C      1  0.4806640000000  0.5875830000000  0.4930180000000 1.0
C      1  0.5419380000000  0.5163390000000  0.5935210000000 1.0
C      1  0.4822970000000  0.4411580000000  0.5543730000000 1.0
C      1  0.5420050000000  0.5697800000000  0.4282980000000 1.0
C      1  0.5948690000000  0.4918020000000  0.4429470000000 1.0
C      1  0.4471750000000  0.5468240000000  0.5801160000000 1.0
C      1  0.4718810000000  0.4763370000000  0.5114740000000 1.0
C      1  0.4548810000000  0.4763770000000  0.3912880000000 1.0
C      1  0.5414350000000  0.4872360000000  0.6001990000000 1.0
C      1  0.5511930000000  0.5809650000000  0.5711090000000 1.0
C      1  0.4971660000000  0.5035110000000  0.6144950000000 1.0
C      1  0.3924660000000  0.4950180000000  0.4955260000000 1.0
C      1  0.4003680000000  0.5203060000000  0.5163850000000 1.0
C      1  0.5585640000000  0.4322690000000  0.4437820000000 1.0
C      1  0.5305940000000  0.5668940000000  0.5893580000000 1.0
C      1  0.5342910000000  0.3963370000000  0.4683390000000 1.0
C      1  0.5032620000000  0.4471660000000  0.3919590000000 1.0
C      1  0.4874470000000  0.5201510000000  0.4833710000000 1.0
C      1  0.5162470000000  0.4877730000000  0.6082550000000 1.0
C      1  0.5685540000000  0.4310420000000  0.5637870000000 1.0
C      1  0.4788850000000  0.5684590000000  0.4382540000000 1.0
C      1  0.4632810000000  0.4060140000000  0.4610970000000 1.0
C      1  0.5025220000000  0.5486440000000  0.5264980000000 1.0
C      1  0.5141090000000  0.4808060000000  0.4857760000000 1.0
C      1  0.4581080000000  0.4070060000000  0.5505270000000 1.0
C      1  0.4962380000000  0.4803060000000  0.5258620000000 1.0
C      1  0.5199760000000  0.4917970000000  0.5608530000000 1.0
C      1  0.5569940000000  0.5098340000000  0.4715530000000 1.0
C      1  0.4688770000000  0.4549100000000  0.4881160000000 1.0
C      1  0.5218660000000  0.5381370000000  0.5976380000000 1.0
C      1  0.4852670000000  0.6099770000000  0.5083260000000 1.0
C      1  0.4491320000000  0.4284910000000  0.4495190000000 1.0
C      1  0.4374560000000  0.4857700000000  0.5470230000000 1.0
C      1  0.5485070000000  0.4937510000000  0.4495800000000 1.0
C      1  0.4925880000000  0.4277760000000  0.5784600000000 1.0
C      1  0.4917150000000  0.5955220000000  0.5504790000000 1.0
C      1  0.4228790000000  0.4765320000000  0.4278810000000 1.0
C      1  0.4923230000000  0.4906850000000  0.5517550000000 1.0
C      1  0.5014350000000  0.5677640000000  0.4879880000000 1.0
C      1  0.5373340000000  0.6079530000000  0.4946390000000 1.0
C      1  0.5402980000000  0.5117700000000  0.5645670000000 1.0
C      1  0.5481240000000  0.4466300000000  0.4016890000000 1.0
C      1  0.5958180000000  0.5210670000000  0.4428510000000 1.0
C      1  0.4739080000000  0.5196130000000  0.5490860000000 1.0
C      1  0.5871860000000  0.5230860000000  0.5488270000000 1.0
C      1  0.5218740000000  0.5703190000000  0.5226400000000 1.0
C      1  0.5410030000000  0.5332050000000  0.4765740000000 1.0
C      1  0.5441240000000  0.4551690000000  0.5084380000000 1.0
C      1  0.5175640000000  0.4441020000000  0.5758640000000 1.0
C      1  0.4085010000000  0.5372530000000  0.4944350000000 1.0
C      1  0.5040580000000  0.5758740000000  0.5941200000000 1.0
C      1  0.4730730000000  0.4637630000000  0.5933650000000 1.0
C      1  0.5255780000000  0.4648580000000  0.5556600000000 1.0
C      1  0.4275250000000  0.4444320000000  0.4629180000000 1.0
C      1  0.5138840000000  0.6131460000000  0.5118030000000 1.0
C      1  0.4940780000000  0.4338740000000  0.4185110000000 1.0
C      1  0.4598920000000  0.3976760000000  0.4908040000000 1.0
C      1  0.5772460000000  0.4363460000000  0.4653460000000 1.0
C      1  0.5602010000000  0.4651870000000  0.5869550000000 1.0
C      1  0.5995090000000  0.5420940000000  0.4636540000000 1.0
C      1  0.5808000000000  0.5639700000000  0.4641980000000 1.0
C      1  0.5946720000000  0.5568540000000  0.5096130000000 1.0
C      1  0.4881110000000  0.3968920000000  0.4478340000000 1.0
C      1  0.4544570000000  0.5715730000000  0.5677320000000 1.0
C      1  0.5783890000000  0.5747100000000  0.4921810000000 1.0
C      1  0.5360530000000  0.4123240000000  0.4437170000000 1.0
C      1  0.4381890000000  0.4973530000000  0.4791300000000 1.0
C      1  0.4850280000000  0.4335590000000  0.5007590000000 1.0
C      1  0.4584010000000  0.4938160000000  0.4596020000000 1.0
C      1  0.4751070000000  0.4886180000000  0.6121750000000 1.0
C      1  0.4710490000000  0.6035040000000  0.5341690000000 1.0
C      1  0.4737760000000  0.5050260000000  0.5031280000000 1.0
C      1  0.5167490000000  0.5327110000000  0.4313830000000 1.0
C      1  0.6146950000000  0.5109500000000  0.5219640000000 1.0
C      1  0.4289330000000  0.4770220000000  0.4987800000000 1.0
C      1  0.5051780000000  0.3940450000000  0.4712800000000 1.0
C      1  0.5789190000000  0.4319470000000  0.4945370000000 1.0
C      1  0.5122730000000  0.3925940000000  0.5118640000000 1.0
C      1  0.5375650000000  0.5209370000000  0.3987300000000 1.0
C      1  0.5088660000000  0.4100540000000  0.4313090000000 1.0
C      1  0.4007710000000  0.5136500000000  0.4465950000000 1.0
C      1  0.5171050000000  0.5992300000000  0.5370820000000 1.0
C      1  0.4256730000000  0.5521870000000  0.5300190000000 1.0
C      1  0.4462650000000  0.5113600000000  0.5532060000000 1.0
C      1  0.4779080000000  0.5497080000000  0.4156850000000 1.0
C      1  0.4747980000000  0.4692200000000  0.4579970000000 1.0
C      1  0.5964150000000  0.4500150000000  0.5091120000000 1.0
C      1  0.5629610000000  0.4527630000000  0.4232640000000 1.0
C      1  0.4823420000000  0.3893610000000  0.5099230000000 1.0
C      1  0.5732400000000  0.4592010000000  0.5616550000000 1.0
C      1  0.4852880000000  0.5715130000000  0.5665490000000 1.0
C      1  0.5360320000000  0.4023190000000  0.4969300000000 1.0
C      1  0.4984110000000  0.6022250000000  0.4493930000000 1.0
C      1  0.4389280000000  0.4520460000000  0.4877430000000 1.0
C      1  0.4296560000000  0.5820880000000  0.4538470000000 1.0
C      1  0.4535850000000  0.5060150000000  0.6025890000000 1.0
C      1  0.4657020000000  0.4470580000000  0.4331680000000 1.0
C      1  0.4298740000000  0.4985910000000  0.5870020000000 1.0
C      1  0.4723500000000  0.5204430000000  0.4567330000000 1.0
C      1  0.5141950000000  0.4732360000000  0.4244670000000 1.0
C      1  0.4477780000000  0.5884650000000  0.5443470000000 1.0
C      1  0.4394100000000  0.5207570000000  0.4103310000000 1.0
C      1  0.5200760000000  0.4929630000000  0.4435400000000 1.0
C      1  0.6106170000000  0.4577540000000  0.4854460000000 1.0
C      1  0.5618990000000  0.5116280000000  0.4114510000000 1.0
C      1  0.5264090000000  0.5935750000000  0.4435150000000 1.0
END
