TITL C-4164242-3624-176 176.218876576215 125000 -28204.9045584648 0 0 191 (C1) n - 1
REM
REM in /home/nfs/bkarasulu/CARBON/AIRSS/Generating-Clusters/ReaxFF-fromJPCA2015/Units_Real/with-SteepDescent/Only-C1/SD-CG/Try1-3A/FIRE-CG
REM
REM
REM
REM
REM
REM ./C.cell (11c1c37f851c82e70ff6c80c92926a4b)
REM
REM compiler GCC version 9.2.1 20190827 (Red Hat 9.2.1-1)
REM options -cpp -mtune=generic -march=x86-64 -g -O0 -fpre-include=/usr/include/finclude/math-vector-fortran.h
REM seed -447974743 -1545051386 -2086361769 51835424 -1350317919 1261918612 -1490256420 -245676174 -2006138099 -1441616138 -1267746475 544340571 -203425792 220027852 214498190 878282276 9220890 1322931072 1732258818 1368652726 -388089126 942724709 530179715 -1139313005 340303078 1502361448 285080767 -84587752 154899712 -1656251554 748077375 1685131310 314232530
REM
CELL 1.54180   50.00000   50.00000   50.00000   90.00000   90.00000   90.00000
LATT -1
SFAC C  
C      1  0.5371280000000  0.5339300000000  0.3974180000000 1.0
C      1  0.6163800000000  0.5168710000000  0.4554590000000 1.0
C      1  0.4307660000000  0.5192060000000  0.5097590000000 1.0
C      1  0.5274220000000  0.4870140000000  0.3853500000000 1.0
C      1  0.5266680000000  0.4488610000000  0.4656810000000 1.0
C      1  0.3912360000000  0.4900650000000  0.5197720000000 1.0
C      1  0.5477190000000  0.5670900000000  0.4391400000000 1.0
C      1  0.4085200000000  0.5359970000000  0.4645900000000 1.0
C      1  0.5883690000000  0.4950040000000  0.4217670000000 1.0
C      1  0.5073120000000  0.4401590000000  0.5941220000000 1.0
C      1  0.4144970000000  0.5520600000000  0.5567840000000 1.0
C      1  0.5735370000000  0.5855970000000  0.4958690000000 1.0
C      1  0.4482610000000  0.5329990000000  0.4044190000000 1.0
C      1  0.5171920000000  0.4926590000000  0.5103450000000 1.0
C      1  0.5333680000000  0.4666690000000  0.5378010000000 1.0
C      1  0.4240570000000  0.5447410000000  0.4423170000000 1.0
C      1  0.4685530000000  0.5145110000000  0.3993010000000 1.0
C      1  0.4539280000000  0.4536730000000  0.4134400000000 1.0
C      1  0.4604540000000  0.5570860000000  0.4117150000000 1.0
C      1  0.4945550000000  0.5898460000000  0.4084060000000 1.0
C      1  0.5376870000000  0.5374030000000  0.6071210000000 1.0
C      1  0.5816300000000  0.5379160000000  0.4437190000000 1.0
C      1  0.4175630000000  0.4667120000000  0.6195270000000 1.0
C      1  0.4421280000000  0.4704530000000  0.5234400000000 1.0
C      1  0.5269030000000  0.5603690000000  0.5179220000000 1.0
C      1  0.5335240000000  0.4198740000000  0.4560270000000 1.0
C      1  0.5939980000000  0.5660230000000  0.4873210000000 1.0
C      1  0.4458990000000  0.5657450000000  0.4346890000000 1.0
C      1  0.5525300000000  0.5492500000000  0.4885530000000 1.0
C      1  0.5452800000000  0.5407430000000  0.4256100000000 1.0
C      1  0.5444890000000  0.4612800000000  0.5645400000000 1.0
C      1  0.5694110000000  0.5835050000000  0.4499780000000 1.0
C      1  0.4181170000000  0.5187500000000  0.5897430000000 1.0
C      1  0.4584700000000  0.5876780000000  0.4480440000000 1.0
C      1  0.5606160000000  0.4614610000000  0.4411860000000 1.0
C      1  0.5350140000000  0.6054370000000  0.4832000000000 1.0
C      1  0.5907780000000  0.5675410000000  0.5294040000000 1.0
C      1  0.5481070000000  0.5070040000000  0.3902860000000 1.0
C      1  0.5339220000000  0.4313260000000  0.5918080000000 1.0
C      1  0.4595930000000  0.3974360000000  0.4593730000000 1.0
C      1  0.5026670000000  0.4534290000000  0.4546340000000 1.0
C      1  0.5989880000000  0.5178060000000  0.5197990000000 1.0
C      1  0.5078640000000  0.3910510000000  0.4946430000000 1.0
C      1  0.4735040000000  0.5506810000000  0.5036340000000 1.0
C      1  0.5785230000000  0.4947130000000  0.4709040000000 1.0
C      1  0.4582180000000  0.5931660000000  0.4778890000000 1.0
C      1  0.4601280000000  0.5436920000000  0.5811550000000 1.0
C      1  0.5889040000000  0.5633110000000  0.4577720000000 1.0
C      1  0.4224010000000  0.4916120000000  0.5107400000000 1.0
C      1  0.5901260000000  0.4566460000000  0.5547680000000 1.0
C      1  0.4559560000000  0.3963330000000  0.5147700000000 1.0
C      1  0.4999020000000  0.6086010000000  0.5149510000000 1.0
C      1  0.4079390000000  0.4840440000000  0.4445500000000 1.0
C      1  0.4119920000000  0.5585450000000  0.4812630000000 1.0
C      1  0.6223990000000  0.4983020000000  0.4757910000000 1.0
C      1  0.4887480000000  0.5616870000000  0.4017530000000 1.0
C      1  0.5301110000000  0.3941750000000  0.5141550000000 1.0
C      1  0.4874380000000  0.5083520000000  0.6127510000000 1.0
C      1  0.4762290000000  0.5297460000000  0.4585050000000 1.0
C      1  0.6075380000000  0.4696680000000  0.4995500000000 1.0
C      1  0.5925090000000  0.4461630000000  0.5039100000000 1.0
C      1  0.5006570000000  0.4914150000000  0.3745750000000 1.0
C      1  0.5515390000000  0.4077280000000  0.5527750000000 1.0
C      1  0.4952270000000  0.5019880000000  0.5616380000000 1.0
C      1  0.4688950000000  0.5612790000000  0.5572570000000 1.0
C      1  0.5706960000000  0.5823390000000  0.5437910000000 1.0
C      1  0.5688670000000  0.4477630000000  0.5738480000000 1.0
C      1  0.5316610000000  0.5120840000000  0.4704160000000 1.0
C      1  0.4850460000000  0.5939470000000  0.4371940000000 1.0
C      1  0.4943420000000  0.4510390000000  0.5694380000000 1.0
C      1  0.5311740000000  0.5362040000000  0.5015950000000 1.0
C      1  0.3972600000000  0.4772250000000  0.5448610000000 1.0
C      1  0.4280520000000  0.4437180000000  0.5187020000000 1.0
C      1  0.4713020000000  0.5900510000000  0.5519770000000 1.0
C      1  0.5199560000000  0.5283190000000  0.4352450000000 1.0
C      1  0.4231620000000  0.4478790000000  0.5616930000000 1.0
C      1  0.4978490000000  0.5436840000000  0.4469800000000 1.0
C      1  0.5620510000000  0.6001940000000  0.4735150000000 1.0
C      1  0.5009060000000  0.5745110000000  0.4522790000000 1.0
C      1  0.5713980000000  0.3918290000000  0.4818690000000 1.0
C      1  0.5304140000000  0.6093590000000  0.5118480000000 1.0
C      1  0.5106690000000  0.4019340000000  0.4683340000000 1.0
C      1  0.4421580000000  0.5711200000000  0.5172000000000 1.0
C      1  0.5042210000000  0.4778970000000  0.5755910000000 1.0
C      1  0.4178460000000  0.5668990000000  0.5313120000000 1.0
C      1  0.4473260000000  0.4802690000000  0.4154600000000 1.0
C      1  0.4637660000000  0.4550040000000  0.6051830000000 1.0
C      1  0.5679510000000  0.5291260000000  0.5603440000000 1.0
C      1  0.4107590000000  0.5031850000000  0.5625000000000 1.0
C      1  0.5636000000000  0.4878990000000  0.4946540000000 1.0
C      1  0.4291390000000  0.4451580000000  0.4707070000000 1.0
C      1  0.5084960000000  0.4449900000000  0.4221640000000 1.0
C      1  0.4661880000000  0.4518970000000  0.5765190000000 1.0
C      1  0.4054190000000  0.4503720000000  0.5394160000000 1.0
C      1  0.5405320000000  0.4798290000000  0.4305280000000 1.0
C      1  0.5123400000000  0.5281160000000  0.4837800000000 1.0
C      1  0.4052190000000  0.5300450000000  0.5185530000000 1.0
C      1  0.4801010000000  0.3834240000000  0.5035160000000 1.0
C      1  0.4905350000000  0.4685830000000  0.3878150000000 1.0
C      1  0.5632070000000  0.4169520000000  0.4687800000000 1.0
C      1  0.4292820000000  0.5441730000000  0.5809330000000 1.0
C      1  0.5587020000000  0.4608640000000  0.3996820000000 1.0
C      1  0.5826630000000  0.4799250000000  0.4466330000000 1.0
C      1  0.4457590000000  0.5231310000000  0.4848350000000 1.0
C      1  0.4524500000000  0.4225370000000  0.5298830000000 1.0
C      1  0.5716230000000  0.5056930000000  0.5164220000000 1.0
C      1  0.5259620000000  0.3992890000000  0.5419640000000 1.0
C      1  0.4350740000000  0.6103480000000  0.5129920000000 1.0
C      1  0.4025360000000  0.5574060000000  0.5084560000000 1.0
C      1  0.4906840000000  0.4556500000000  0.6154580000000 1.0
C      1  0.5296880000000  0.4960220000000  0.5371550000000 1.0
C      1  0.5118920000000  0.5276180000000  0.5570460000000 1.0
C      1  0.4496350000000  0.5947700000000  0.5322680000000 1.0
C      1  0.5450610000000  0.5003890000000  0.5942050000000 1.0
C      1  0.5305730000000  0.4675150000000  0.4069880000000 1.0
C      1  0.4822770000000  0.4485850000000  0.4048850000000 1.0
C      1  0.4022420000000  0.5276870000000  0.5477620000000 1.0
C      1  0.5574840000000  0.4402370000000  0.4205100000000 1.0
C      1  0.5142370000000  0.5504520000000  0.5757990000000 1.0
C      1  0.4601640000000  0.4805810000000  0.4646470000000 1.0
C      1  0.4242650000000  0.4954480000000  0.4238450000000 1.0
C      1  0.4345630000000  0.5830860000000  0.4924540000000 1.0
C      1  0.5549840000000  0.5666860000000  0.5103620000000 1.0
C      1  0.5952020000000  0.5126800000000  0.5503200000000 1.0
C      1  0.6167930000000  0.4954040000000  0.5032040000000 1.0
C      1  0.5375370000000  0.5610980000000  0.4661550000000 1.0
C      1  0.3815370000000  0.4870150000000  0.4916870000000 1.0
C      1  0.4396760000000  0.4230150000000  0.5574820000000 1.0
C      1  0.5608000000000  0.5595810000000  0.5595600000000 1.0
C      1  0.5348920000000  0.5697490000000  0.5670130000000 1.0
C      1  0.4835620000000  0.5335510000000  0.6052050000000 1.0
C      1  0.4886090000000  0.5249290000000  0.4970570000000 1.0
C      1  0.4902250000000  0.4833760000000  0.6186290000000 1.0
C      1  0.3987260000000  0.5028100000000  0.4675010000000 1.0
C      1  0.4609610000000  0.5462210000000  0.4768250000000 1.0
C      1  0.4918090000000  0.5191450000000  0.3823950000000 1.0
C      1  0.5547080000000  0.5123100000000  0.5386320000000 1.0
C      1  0.4277920000000  0.5242800000000  0.4217870000000 1.0
C      1  0.5372980000000  0.4938730000000  0.4910360000000 1.0
C      1  0.5458830000000  0.6004940000000  0.5349900000000 1.0
C      1  0.4709860000000  0.4797730000000  0.5182200000000 1.0
C      1  0.4805260000000  0.6027250000000  0.4941660000000 1.0
C      1  0.5709300000000  0.4141740000000  0.5318790000000 1.0
C      1  0.5420970000000  0.4539110000000  0.4903500000000 1.0
C      1  0.4576680000000  0.4535590000000  0.4733500000000 1.0
C      1  0.4780680000000  0.4970750000000  0.4495180000000 1.0
C      1  0.4966360000000  0.4413160000000  0.5093440000000 1.0
C      1  0.6004570000000  0.5490340000000  0.5107840000000 1.0
C      1  0.5071280000000  0.5449580000000  0.5341660000000 1.0
C      1  0.5247570000000  0.5945300000000  0.5530870000000 1.0
C      1  0.3904980000000  0.4606090000000  0.4919990000000 1.0
C      1  0.5026110000000  0.4806060000000  0.4558430000000 1.0
C      1  0.5879800000000  0.4378810000000  0.5317530000000 1.0
C      1  0.5692680000000  0.4889990000000  0.4001210000000 1.0
C      1  0.4819060000000  0.4879290000000  0.5421760000000 1.0
C      1  0.6012360000000  0.5201570000000  0.4292450000000 1.0
C      1  0.4111160000000  0.4413170000000  0.4937050000000 1.0
C      1  0.5569740000000  0.4210890000000  0.5791380000000 1.0
C      1  0.5105190000000  0.5465710000000  0.6053350000000 1.0
C      1  0.4411360000000  0.4984990000000  0.5607170000000 1.0
C      1  0.4442040000000  0.4693530000000  0.5562050000000 1.0
C      1  0.4409410000000  0.5055920000000  0.6023850000000 1.0
C      1  0.4586780000000  0.5129250000000  0.5798420000000 1.0
C      1  0.4777130000000  0.4074720000000  0.5662090000000 1.0
C      1  0.4404920000000  0.4756360000000  0.6125750000000 1.0
C      1  0.4166450000000  0.4563800000000  0.4467920000000 1.0
C      1  0.4973880000000  0.4096350000000  0.5475440000000 1.0
C      1  0.5932870000000  0.4852020000000  0.5529050000000 1.0
C      1  0.5239250000000  0.4980570000000  0.4444620000000 1.0
C      1  0.5585410000000  0.4001740000000  0.5087420000000 1.0
C      1  0.4577830000000  0.4217440000000  0.5802760000000 1.0
C      1  0.5579930000000  0.5242690000000  0.5912530000000 1.0
C      1  0.4971680000000  0.6003580000000  0.5430430000000 1.0
C      1  0.4833880000000  0.4327130000000  0.5334990000000 1.0
C      1  0.4196620000000  0.4887150000000  0.4821050000000 1.0
C      1  0.4776710000000  0.5480560000000  0.5326500000000 1.0
C      1  0.4831580000000  0.4394200000000  0.4787760000000 1.0
C      1  0.4892890000000  0.4969990000000  0.5023410000000 1.0
C      1  0.5888850000000  0.5222310000000  0.4685720000000 1.0
C      1  0.4559180000000  0.3859740000000  0.4877860000000 1.0
C      1  0.4702840000000  0.4949250000000  0.4205220000000 1.0
C      1  0.5316320000000  0.4276740000000  0.4262150000000 1.0
C      1  0.4847150000000  0.4134090000000  0.4628460000000 1.0
C      1  0.4411390000000  0.4990760000000  0.4697610000000 1.0
C      1  0.4465260000000  0.4162720000000  0.4438830000000 1.0
C      1  0.5676370000000  0.4393960000000  0.4870150000000 1.0
C      1  0.5085670000000  0.5406180000000  0.3912850000000 1.0
C      1  0.5317100000000  0.4773390000000  0.5870330000000 1.0
C      1  0.5235550000000  0.4504330000000  0.5141790000000 1.0
C      1  0.5186560000000  0.5824980000000  0.4735510000000 1.0
C      1  0.4349500000000  0.4381910000000  0.4295020000000 1.0
END
