TITL C-4164246-3563-240 8.57702050361819 125000 -24366.2333412887 0 0 164 (C1) n - 1
REM
REM in /home/nfs/bkarasulu/CARBON/AIRSS/Generating-Clusters/ReaxFF-fromJPCA2015/Units_Real/with-SteepDescent/Only-C1/SD-CG/Try1-3A/FIRE-CG
REM
REM
REM
REM
REM
REM ./C.cell (11c1c37f851c82e70ff6c80c92926a4b)
REM
REM compiler GCC version 9.2.1 20190827 (Red Hat 9.2.1-1)
REM options -cpp -mtune=generic -march=x86-64 -g -O0 -fpre-include=/usr/include/finclude/math-vector-fortran.h
REM seed 1419510967 447104551 -2036280787 1994954834 125591917 1884993877 669899819 -916838207 -1808519044 -2055591170 -509437148 1945043326 225009240 1825849298 204807353 1907422078 1066527448 -1218094880 -1763423844 64103230 1994191326 -344997908 -1998580390 1268392025 1929116712 773811481 778280144 1579127336 -501567223 -722055176 -1429878801 989252638 1400670741
REM
CELL 1.54180   50.00000   50.00000   50.00000   90.00000   90.00000   90.00000
LATT -1
SFAC C  
C      1  0.4284280000000  0.4412920000000  0.5354040000000 1.0
C      1  0.4048060000000  0.4964650000000  0.4606540000000 1.0
C      1  0.4066760000000  0.4416690000000  0.5163650000000 1.0
C      1  0.4645780000000  0.4677750000000  0.5529790000000 1.0
C      1  0.4645110000000  0.4765780000000  0.5012300000000 1.0
C      1  0.5783880000000  0.4864110000000  0.4589810000000 1.0
C      1  0.5511960000000  0.5704770000000  0.4622520000000 1.0
C      1  0.5129290000000  0.5970220000000  0.4382620000000 1.0
C      1  0.4646720000000  0.5529470000000  0.4034460000000 1.0
C      1  0.4574830000000  0.5132290000000  0.4556640000000 1.0
C      1  0.4802330000000  0.5464670000000  0.5958020000000 1.0
C      1  0.4673870000000  0.4635530000000  0.4545940000000 1.0
C      1  0.3959270000000  0.5182820000000  0.4735110000000 1.0
C      1  0.4360100000000  0.4710240000000  0.5358880000000 1.0
C      1  0.4768330000000  0.5155850000000  0.5570320000000 1.0
C      1  0.5497510000000  0.4092780000000  0.5241750000000 1.0
C      1  0.5102970000000  0.5372500000000  0.4974190000000 1.0
C      1  0.4641790000000  0.5872290000000  0.4966620000000 1.0
C      1  0.5241770000000  0.4958750000000  0.4240200000000 1.0
C      1  0.4149200000000  0.4736140000000  0.4529270000000 1.0
C      1  0.5083680000000  0.6179700000000  0.4847230000000 1.0
C      1  0.5231760000000  0.4185640000000  0.4463950000000 1.0
C      1  0.5629090000000  0.5616560000000  0.5270850000000 1.0
C      1  0.5579540000000  0.5419160000000  0.5046190000000 1.0
C      1  0.5353870000000  0.4563660000000  0.6142540000000 1.0
C      1  0.5829660000000  0.4903110000000  0.5560790000000 1.0
C      1  0.5952320000000  0.5353420000000  0.5502570000000 1.0
C      1  0.4785060000000  0.4913600000000  0.5744520000000 1.0
C      1  0.5986950000000  0.4448710000000  0.5417850000000 1.0
C      1  0.5460440000000  0.5521220000000  0.5554330000000 1.0
C      1  0.5786060000000  0.4567610000000  0.4680340000000 1.0
C      1  0.5068640000000  0.4126780000000  0.5449590000000 1.0
C      1  0.5010960000000  0.5963170000000  0.5326220000000 1.0
C      1  0.5233950000000  0.4467290000000  0.5065410000000 1.0
C      1  0.5349410000000  0.5411970000000  0.6004300000000 1.0
C      1  0.4142640000000  0.4880850000000  0.5474070000000 1.0
C      1  0.6031690000000  0.5077320000000  0.5443680000000 1.0
C      1  0.5043790000000  0.4892180000000  0.4436400000000 1.0
C      1  0.4508990000000  0.4734370000000  0.4098560000000 1.0
C      1  0.5534740000000  0.5023030000000  0.4603250000000 1.0
C      1  0.3988480000000  0.5462660000000  0.5161600000000 1.0
C      1  0.4487990000000  0.5715330000000  0.5666520000000 1.0
C      1  0.4762690000000  0.5625140000000  0.5730340000000 1.0
C      1  0.4753540000000  0.5803320000000  0.5251340000000 1.0
C      1  0.3966990000000  0.4932150000000  0.5245300000000 1.0
C      1  0.4574010000000  0.5272320000000  0.5956680000000 1.0
C      1  0.5382650000000  0.4726210000000  0.4144960000000 1.0
C      1  0.4812910000000  0.3983840000000  0.4440200000000 1.0
C      1  0.5026020000000  0.4370950000000  0.4621210000000 1.0
C      1  0.5983510000000  0.4418000000000  0.5121830000000 1.0
C      1  0.4272780000000  0.5515340000000  0.5629860000000 1.0
C      1  0.5079650000000  0.4349770000000  0.5883080000000 1.0
C      1  0.5596170000000  0.5084970000000  0.5503570000000 1.0
C      1  0.5654370000000  0.4433300000000  0.4473680000000 1.0
C      1  0.5197480000000  0.4818250000000  0.4699470000000 1.0
C      1  0.5416110000000  0.5942780000000  0.4758320000000 1.0
C      1  0.4911010000000  0.5564080000000  0.4160820000000 1.0
C      1  0.5274740000000  0.5694370000000  0.5713060000000 1.0
C      1  0.4231630000000  0.4990840000000  0.5733180000000 1.0
C      1  0.4955300000000  0.4432020000000  0.4156970000000 1.0
C      1  0.4741540000000  0.4799140000000  0.4768020000000 1.0
C      1  0.5329160000000  0.5104100000000  0.5631250000000 1.0
C      1  0.4758770000000  0.5502600000000  0.5270690000000 1.0
C      1  0.5235590000000  0.4883950000000  0.3782530000000 1.0
C      1  0.5838670000000  0.4608920000000  0.5616330000000 1.0
C      1  0.4165730000000  0.4679990000000  0.4872590000000 1.0
C      1  0.5399960000000  0.4966400000000  0.4828980000000 1.0
C      1  0.4356490000000  0.5937600000000  0.5000860000000 1.0
C      1  0.5404120000000  0.5666010000000  0.4354030000000 1.0
C      1  0.5215740000000  0.6125110000000  0.4602120000000 1.0
C      1  0.5230120000000  0.5243390000000  0.5175970000000 1.0
C      1  0.4859330000000  0.4093090000000  0.4744150000000 1.0
C      1  0.4918700000000  0.5552900000000  0.4670240000000 1.0
C      1  0.4902970000000  0.4220290000000  0.5702110000000 1.0
C      1  0.4615240000000  0.4274220000000  0.5672290000000 1.0
C      1  0.4169110000000  0.4390030000000  0.4892680000000 1.0
C      1  0.4575320000000  0.5165690000000  0.5400900000000 1.0
C      1  0.4488990000000  0.4211990000000  0.5411560000000 1.0
C      1  0.5406230000000  0.6014560000000  0.5044520000000 1.0
C      1  0.4636780000000  0.4077050000000  0.5184200000000 1.0
C      1  0.5057710000000  0.4593480000000  0.6040220000000 1.0
C      1  0.4131970000000  0.5426070000000  0.4651790000000 1.0
C      1  0.4922980000000  0.5319750000000  0.4829340000000 1.0
C      1  0.4920150000000  0.4571940000000  0.4428300000000 1.0
C      1  0.5309120000000  0.5332070000000  0.4016280000000 1.0
C      1  0.5509560000000  0.4554860000000  0.5126540000000 1.0
C      1  0.5931810000000  0.5497920000000  0.5253040000000 1.0
C      1  0.5098380000000  0.4774260000000  0.5287200000000 1.0
C      1  0.5600820000000  0.4440860000000  0.5685560000000 1.0
C      1  0.4462240000000  0.4435640000000  0.4513680000000 1.0
C      1  0.5514760000000  0.4816290000000  0.3899540000000 1.0
C      1  0.5447640000000  0.4297820000000  0.4298020000000 1.0
C      1  0.6028980000000  0.4672830000000  0.5007010000000 1.0
C      1  0.4714230000000  0.4538850000000  0.5064920000000 1.0
C      1  0.5126420000000  0.6136030000000  0.5119960000000 1.0
C      1  0.5693620000000  0.5357090000000  0.5664470000000 1.0
C      1  0.4794860000000  0.4486300000000  0.5330660000000 1.0
C      1  0.5712420000000  0.4953160000000  0.4050180000000 1.0
C      1  0.4537320000000  0.4548440000000  0.5765200000000 1.0
C      1  0.5611770000000  0.5327700000000  0.5984080000000 1.0
C      1  0.4499210000000  0.5880200000000  0.5432530000000 1.0
C      1  0.4839010000000  0.4138300000000  0.4214890000000 1.0
C      1  0.4521060000000  0.4984380000000  0.4014940000000 1.0
C      1  0.5405760000000  0.4396720000000  0.5905550000000 1.0
C      1  0.5887410000000  0.5081500000000  0.4247460000000 1.0
C      1  0.6014480000000  0.5330700000000  0.5024240000000 1.0
C      1  0.4912990000000  0.3986660000000  0.5202630000000 1.0
C      1  0.4329330000000  0.4619070000000  0.4328400000000 1.0
C      1  0.4539660000000  0.5255850000000  0.3923790000000 1.0
C      1  0.4701920000000  0.5748010000000  0.4718450000000 1.0
C      1  0.5206680000000  0.5331470000000  0.5490760000000 1.0
C      1  0.5245050000000  0.4682100000000  0.5511210000000 1.0
C      1  0.4847600000000  0.4896100000000  0.5204880000000 1.0
C      1  0.3990960000000  0.5575210000000  0.4899440000000 1.0
C      1  0.5413170000000  0.5142140000000  0.4365480000000 1.0
C      1  0.5377930000000  0.4165260000000  0.5474800000000 1.0
C      1  0.5095870000000  0.5001480000000  0.5147850000000 1.0
C      1  0.4425500000000  0.5546380000000  0.4200230000000 1.0
C      1  0.4299670000000  0.5886090000000  0.4731440000000 1.0
C      1  0.4529800000000  0.5329760000000  0.5210400000000 1.0
C      1  0.4600490000000  0.4128600000000  0.4897270000000 1.0
C      1  0.5144830000000  0.4557670000000  0.4804290000000 1.0
C      1  0.3955940000000  0.4684500000000  0.5094030000000 1.0
C      1  0.4373920000000  0.5263450000000  0.4731330000000 1.0
C      1  0.4392160000000  0.4270440000000  0.4755200000000 1.0
C      1  0.5446260000000  0.4472920000000  0.5455200000000 1.0
C      1  0.5946690000000  0.5103020000000  0.4545480000000 1.0
C      1  0.5345160000000  0.3942940000000  0.4885360000000 1.0
C      1  0.4388560000000  0.4785020000000  0.5877730000000 1.0
C      1  0.4585330000000  0.4978390000000  0.5972600000000 1.0
C      1  0.5877480000000  0.4898810000000  0.5012400000000 1.0
C      1  0.4741270000000  0.5078890000000  0.4788080000000 1.0
C      1  0.5668740000000  0.5489260000000  0.4775460000000 1.0
C      1  0.5400520000000  0.4060310000000  0.4641580000000 1.0
C      1  0.5715550000000  0.4398610000000  0.4963020000000 1.0
C      1  0.5180940000000  0.5143850000000  0.3886430000000 1.0
C      1  0.4333530000000  0.5270830000000  0.5780150000000 1.0
C      1  0.4021950000000  0.5168460000000  0.5058590000000 1.0
C      1  0.4895330000000  0.5418840000000  0.5512580000000 1.0
C      1  0.5564230000000  0.4880690000000  0.5041310000000 1.0
C      1  0.5239860000000  0.4865370000000  0.5722320000000 1.0
C      1  0.5138450000000  0.5759710000000  0.4218380000000 1.0
C      1  0.4360490000000  0.4834590000000  0.5048150000000 1.0
C      1  0.4826030000000  0.5131390000000  0.4398450000000 1.0
C      1  0.4336470000000  0.5148750000000  0.5004960000000 1.0
C      1  0.4985330000000  0.4787320000000  0.3872010000000 1.0
C      1  0.5121720000000  0.5537740000000  0.5921920000000 1.0
C      1  0.5237520000000  0.5872290000000  0.5477370000000 1.0
C      1  0.4914380000000  0.5409060000000  0.4404520000000 1.0
C      1  0.4272420000000  0.5621600000000  0.4413370000000 1.0
C      1  0.4778880000000  0.4642120000000  0.3991820000000 1.0
C      1  0.4471510000000  0.5812680000000  0.4522930000000 1.0
C      1  0.5041300000000  0.3969870000000  0.4950450000000 1.0
C      1  0.5027350000000  0.4840500000000  0.5885930000000 1.0
C      1  0.5467170000000  0.5868820000000  0.5282260000000 1.0
C      1  0.5463110000000  0.5404770000000  0.4232490000000 1.0
C      1  0.5260200000000  0.4458050000000  0.4141480000000 1.0
C      1  0.5596800000000  0.4086900000000  0.4989640000000 1.0
C      1  0.5914870000000  0.5331420000000  0.4741790000000 1.0
C      1  0.6073390000000  0.5066890000000  0.5146470000000 1.0
C      1  0.5047590000000  0.4370680000000  0.5272800000000 1.0
C      1  0.4259300000000  0.5852390000000  0.5284740000000 1.0
C      1  0.5523310000000  0.5145440000000  0.5166640000000 1.0
C      1  0.4140190000000  0.5605160000000  0.5382330000000 1.0
END
