TITL C-4164242-3624-771 18.0833142129985 125000 -19001.0486975541 0 0 128 (C1) n - 1
REM
REM in /home/nfs/bkarasulu/CARBON/AIRSS/Generating-Clusters/ReaxFF-fromJPCA2015/Units_Real/with-SteepDescent/Only-C1/SD-CG/Try1-3A/FIRE-CG
REM
REM
REM
REM
REM
REM ./C.cell (11c1c37f851c82e70ff6c80c92926a4b)
REM
REM compiler GCC version 9.2.1 20190827 (Red Hat 9.2.1-1)
REM options -cpp -mtune=generic -march=x86-64 -g -O0 -fpre-include=/usr/include/finclude/math-vector-fortran.h
REM seed 1751451152 -2135565259 -638973926 -1745035714 480527244 -2086850093 1133251521 -2031643437 -908612832 578009066 1033141228 1823392985 2091597893 848766075 1634104799 -1197430154 -1433197731 -1600330987 -283856350 -1802232046 594498972 -739108588 1492444821 -239851112 -820669005 -76324177 523292201 -1928396467 -2126802574 710145344 384924349 -1728941789 -102754002
REM
CELL 1.54180   50.00000   50.00000   50.00000   90.00000   90.00000   90.00000
LATT -1
SFAC C  
C      1  0.4311100000000  0.4778970000000  0.5645430000000 1.0
C      1  0.4358670000000  0.5810990000000  0.5296730000000 1.0
C      1  0.4824030000000  0.4509100000000  0.5657630000000 1.0
C      1  0.5548940000000  0.4536160000000  0.5756820000000 1.0
C      1  0.4968520000000  0.4125620000000  0.4536940000000 1.0
C      1  0.5175180000000  0.4808070000000  0.4578990000000 1.0
C      1  0.5012610000000  0.5368350000000  0.4182960000000 1.0
C      1  0.5344390000000  0.4503780000000  0.4326840000000 1.0
C      1  0.5267660000000  0.5215650000000  0.5205040000000 1.0
C      1  0.5358070000000  0.5425220000000  0.5372650000000 1.0
C      1  0.6003260000000  0.5128000000000  0.5168890000000 1.0
C      1  0.4654780000000  0.5375340000000  0.4560570000000 1.0
C      1  0.5134780000000  0.5130230000000  0.4109000000000 1.0
C      1  0.5104600000000  0.5071190000000  0.6011240000000 1.0
C      1  0.5014030000000  0.4148180000000  0.5342060000000 1.0
C      1  0.4746220000000  0.5102670000000  0.4561280000000 1.0
C      1  0.4235490000000  0.4428070000000  0.4665790000000 1.0
C      1  0.5875350000000  0.5003740000000  0.4673400000000 1.0
C      1  0.5213030000000  0.4785250000000  0.5030040000000 1.0
C      1  0.5826540000000  0.4559670000000  0.5158990000000 1.0
C      1  0.5561620000000  0.5181930000000  0.4127410000000 1.0
C      1  0.4711990000000  0.4230700000000  0.4954020000000 1.0
C      1  0.4515250000000  0.5037160000000  0.4140950000000 1.0
C      1  0.5555390000000  0.5410920000000  0.4824560000000 1.0
C      1  0.4620460000000  0.4611580000000  0.5296140000000 1.0
C      1  0.4829280000000  0.4669480000000  0.4745470000000 1.0
C      1  0.5730760000000  0.4787850000000  0.4995250000000 1.0
C      1  0.5501820000000  0.5835290000000  0.5056210000000 1.0
C      1  0.4832250000000  0.5915400000000  0.5121900000000 1.0
C      1  0.5225110000000  0.5530510000000  0.5589300000000 1.0
C      1  0.4104670000000  0.5486420000000  0.4940000000000 1.0
C      1  0.4497250000000  0.5733670000000  0.4832190000000 1.0
C      1  0.5740050000000  0.5377190000000  0.4278490000000 1.0
C      1  0.5712890000000  0.5181200000000  0.5577840000000 1.0
C      1  0.5611520000000  0.5439780000000  0.5467490000000 1.0
C      1  0.4654670000000  0.5238730000000  0.3980750000000 1.0
C      1  0.4922650000000  0.4708280000000  0.5010550000000 1.0
C      1  0.4558910000000  0.5659700000000  0.5809810000000 1.0
C      1  0.4278240000000  0.5581120000000  0.4723130000000 1.0
C      1  0.4699060000000  0.5411650000000  0.5515730000000 1.0
C      1  0.4790350000000  0.4228600000000  0.5496450000000 1.0
C      1  0.4630520000000  0.4772140000000  0.4187500000000 1.0
C      1  0.4435720000000  0.5787590000000  0.5590910000000 1.0
C      1  0.4180680000000  0.5349430000000  0.5325440000000 1.0
C      1  0.5257690000000  0.4264090000000  0.5438980000000 1.0
C      1  0.5080780000000  0.4552800000000  0.4674640000000 1.0
C      1  0.4842010000000  0.4701290000000  0.5428190000000 1.0
C      1  0.5699260000000  0.4815300000000  0.4529290000000 1.0
C      1  0.4171080000000  0.4486320000000  0.4959160000000 1.0
C      1  0.4406950000000  0.5068220000000  0.5664330000000 1.0
C      1  0.5576250000000  0.4538770000000  0.4518020000000 1.0
C      1  0.4433820000000  0.5296930000000  0.5479110000000 1.0
C      1  0.4833690000000  0.5422540000000  0.5051480000000 1.0
C      1  0.4968470000000  0.5335930000000  0.5971910000000 1.0
C      1  0.4681190000000  0.4967330000000  0.5684280000000 1.0
C      1  0.4459920000000  0.4604460000000  0.4353040000000 1.0
C      1  0.4540570000000  0.5883370000000  0.5078710000000 1.0
C      1  0.4084980000000  0.4899650000000  0.4694580000000 1.0
C      1  0.5314790000000  0.4748080000000  0.5297660000000 1.0
C      1  0.4735070000000  0.5495250000000  0.5919580000000 1.0
C      1  0.5602320000000  0.5623040000000  0.5018570000000 1.0
C      1  0.4782900000000  0.5161590000000  0.5137590000000 1.0
C      1  0.4492760000000  0.4824540000000  0.5132770000000 1.0
C      1  0.5325710000000  0.5994110000000  0.4921990000000 1.0
C      1  0.5205660000000  0.5478440000000  0.4420990000000 1.0
C      1  0.4906550000000  0.4663220000000  0.4127700000000 1.0
C      1  0.4161690000000  0.5614610000000  0.5204020000000 1.0
C      1  0.5024540000000  0.5982620000000  0.4911970000000 1.0
C      1  0.4936700000000  0.5571630000000  0.5494920000000 1.0
C      1  0.4943590000000  0.4405810000000  0.4220240000000 1.0
C      1  0.5185070000000  0.4371620000000  0.4935580000000 1.0
C      1  0.5439950000000  0.4911510000000  0.4623960000000 1.0
C      1  0.5082610000000  0.4548970000000  0.5815470000000 1.0
C      1  0.5967490000000  0.4942580000000  0.4933920000000 1.0
C      1  0.4168110000000  0.5084680000000  0.4514890000000 1.0
C      1  0.4517890000000  0.4163650000000  0.5394620000000 1.0
C      1  0.5210070000000  0.4720970000000  0.4172320000000 1.0
C      1  0.5177930000000  0.5761890000000  0.4524460000000 1.0
C      1  0.4615570000000  0.4876410000000  0.4694470000000 1.0
C      1  0.5149650000000  0.4273160000000  0.4336340000000 1.0
C      1  0.5465890000000  0.5425650000000  0.4232980000000 1.0
C      1  0.5581360000000  0.4352710000000  0.4754940000000 1.0
C      1  0.5182690000000  0.4993720000000  0.5378900000000 1.0
C      1  0.5755890000000  0.5563140000000  0.5229560000000 1.0
C      1  0.5221300000000  0.5435780000000  0.5864410000000 1.0
C      1  0.5345060000000  0.4970330000000  0.4075610000000 1.0
C      1  0.4610090000000  0.5015960000000  0.4963930000000 1.0
C      1  0.4398710000000  0.4625520000000  0.4975710000000 1.0
C      1  0.4922400000000  0.5646140000000  0.5208740000000 1.0
C      1  0.4306930000000  0.4709210000000  0.4587900000000 1.0
C      1  0.4383290000000  0.5431830000000  0.4481460000000 1.0
C      1  0.5183710000000  0.4800530000000  0.5923820000000 1.0
C      1  0.5641080000000  0.5730110000000  0.4586010000000 1.0
C      1  0.5362570000000  0.4165670000000  0.4808850000000 1.0
C      1  0.4750400000000  0.5573780000000  0.4769630000000 1.0
C      1  0.5348010000000  0.5203200000000  0.5936130000000 1.0
C      1  0.4583340000000  0.4704880000000  0.5749290000000 1.0
C      1  0.5830930000000  0.5305760000000  0.4776580000000 1.0
C      1  0.5358320000000  0.4443830000000  0.5211470000000 1.0
C      1  0.4510400000000  0.4054640000000  0.5123310000000 1.0
C      1  0.5620490000000  0.4387780000000  0.5049350000000 1.0
C      1  0.5024900000000  0.5055360000000  0.4592490000000 1.0
C      1  0.4958780000000  0.5805570000000  0.4694150000000 1.0
C      1  0.4876290000000  0.4994250000000  0.5415770000000 1.0
C      1  0.4773030000000  0.4490120000000  0.5100200000000 1.0
C      1  0.4484070000000  0.4350880000000  0.4513820000000 1.0
C      1  0.5918090000000  0.5376650000000  0.5064720000000 1.0
C      1  0.4309210000000  0.5193470000000  0.4312200000000 1.0
C      1  0.5466020000000  0.4802220000000  0.5862090000000 1.0
C      1  0.4708360000000  0.4217570000000  0.4635290000000 1.0
C      1  0.4046750000000  0.4938970000000  0.4993010000000 1.0
C      1  0.5817730000000  0.5518460000000  0.4531190000000 1.0
C      1  0.5735720000000  0.4577420000000  0.5558350000000 1.0
C      1  0.4091560000000  0.5215740000000  0.5075580000000 1.0
C      1  0.5120750000000  0.4009140000000  0.4761330000000 1.0
C      1  0.5897630000000  0.5027130000000  0.5422300000000 1.0
C      1  0.5416140000000  0.5899210000000  0.4647860000000 1.0
C      1  0.5902140000000  0.4721910000000  0.5410780000000 1.0
C      1  0.4179840000000  0.4625040000000  0.5415910000000 1.0
C      1  0.5318640000000  0.5266190000000  0.4916880000000 1.0
C      1  0.5562510000000  0.5066770000000  0.5801490000000 1.0
C      1  0.5462150000000  0.4836310000000  0.4895980000000 1.0
C      1  0.5177500000000  0.5289040000000  0.4666040000000 1.0
C      1  0.4389840000000  0.4427630000000  0.5433800000000 1.0
C      1  0.5004770000000  0.4137640000000  0.5014790000000 1.0
C      1  0.4041450000000  0.4692040000000  0.5155930000000 1.0
C      1  0.5289840000000  0.4387950000000  0.5702350000000 1.0
C      1  0.4801820000000  0.5501200000000  0.4008600000000 1.0
END
