TITL C-4164232-771-227 38.3745224220046 125000 -22002.7191361923 0 0 149 (C1) n - 1
REM
REM in /home/nfs/bkarasulu/CARBON/AIRSS/Generating-Clusters/ReaxFF-fromJPCA2015/Units_Real/with-SteepDescent/Only-C1/SD-CG/Try1-3A/FIRE-CG
REM
REM
REM
REM
REM
REM ./C.cell (11c1c37f851c82e70ff6c80c92926a4b)
REM
REM compiler GCC version 9.2.1 20190827 (Red Hat 9.2.1-1)
REM options -cpp -mtune=generic -march=x86-64 -g -O0 -fpre-include=/usr/include/finclude/math-vector-fortran.h
REM seed -1331309919 -1152490769 -605682943 -950089287 1071155844 1597043201 -1647693232 -1103341439 2107017106 353951469 -1750112250 -1296949884 -709727203 -511836015 -1692861052 638178786 -1008385178 -894445372 564103305 1897412487 -1239290284 2139080826 1354412682 11427682 -422475490 -300699080 469261664 -664048100 260724752 -1077424827 -1173348947 -77954376 1667035006
REM
CELL 1.54180   50.00000   50.00000   50.00000   90.00000   90.00000   90.00000
LATT -1
SFAC C  
C      1  0.5565080000000  0.5490770000000  0.4170770000000 1.0
C      1  0.4892590000000  0.5979550000000  0.4466920000000 1.0
C      1  0.5283840000000  0.5556420000000  0.4977530000000 1.0
C      1  0.5901480000000  0.4799050000000  0.5484730000000 1.0
C      1  0.4641480000000  0.4627340000000  0.4538900000000 1.0
C      1  0.4145950000000  0.5408190000000  0.4851010000000 1.0
C      1  0.5560910000000  0.4138710000000  0.4892970000000 1.0
C      1  0.5719600000000  0.4312110000000  0.4704110000000 1.0
C      1  0.4177850000000  0.5286070000000  0.4588540000000 1.0
C      1  0.4737970000000  0.4704600000000  0.5079710000000 1.0
C      1  0.4658250000000  0.5879330000000  0.4433280000000 1.0
C      1  0.4835780000000  0.4855240000000  0.6111350000000 1.0
C      1  0.4200580000000  0.5006280000000  0.5746560000000 1.0
C      1  0.5973530000000  0.4445230000000  0.4758570000000 1.0
C      1  0.4464900000000  0.5528680000000  0.5756830000000 1.0
C      1  0.5623040000000  0.4135900000000  0.5182750000000 1.0
C      1  0.5111070000000  0.5582740000000  0.4202520000000 1.0
C      1  0.4877060000000  0.5307070000000  0.4393650000000 1.0
C      1  0.5796690000000  0.5807080000000  0.4759360000000 1.0
C      1  0.5643990000000  0.5145160000000  0.4468930000000 1.0
C      1  0.5098780000000  0.5098990000000  0.4889890000000 1.0
C      1  0.4158110000000  0.4725250000000  0.4537670000000 1.0
C      1  0.4671130000000  0.5040180000000  0.4633770000000 1.0
C      1  0.5041080000000  0.4696870000000  0.5745810000000 1.0
C      1  0.4483280000000  0.4303180000000  0.5144610000000 1.0
C      1  0.4480760000000  0.5036610000000  0.4158770000000 1.0
C      1  0.6118940000000  0.4662210000000  0.4573160000000 1.0
C      1  0.5429600000000  0.5254030000000  0.4055950000000 1.0
C      1  0.5426670000000  0.5802490000000  0.5152360000000 1.0
C      1  0.5604730000000  0.5183580000000  0.5583250000000 1.0
C      1  0.4989300000000  0.5591900000000  0.5048940000000 1.0
C      1  0.5735760000000  0.4677850000000  0.5676000000000 1.0
C      1  0.5237210000000  0.4461770000000  0.5400680000000 1.0
C      1  0.5020430000000  0.5384340000000  0.6008970000000 1.0
C      1  0.4774330000000  0.4153700000000  0.4433110000000 1.0
C      1  0.4868240000000  0.4755730000000  0.5325460000000 1.0
C      1  0.4742460000000  0.5395710000000  0.4141480000000 1.0
C      1  0.4534050000000  0.4553690000000  0.5852450000000 1.0
C      1  0.5067260000000  0.4998740000000  0.6176830000000 1.0
C      1  0.4337410000000  0.5258980000000  0.5836280000000 1.0
C      1  0.5355800000000  0.4319760000000  0.5634110000000 1.0
C      1  0.6011170000000  0.4528500000000  0.5034810000000 1.0
C      1  0.5141070000000  0.5340050000000  0.4030370000000 1.0
C      1  0.5028490000000  0.5535190000000  0.4495090000000 1.0
C      1  0.5553020000000  0.4542470000000  0.4287970000000 1.0
C      1  0.4358070000000  0.4391090000000  0.4256420000000 1.0
C      1  0.4209680000000  0.4793050000000  0.5546680000000 1.0
C      1  0.5506880000000  0.5662930000000  0.5635350000000 1.0
C      1  0.4963150000000  0.4544850000000  0.5477370000000 1.0
C      1  0.4554050000000  0.4902550000000  0.4446940000000 1.0
C      1  0.5457550000000  0.5275740000000  0.5957170000000 1.0
C      1  0.4209680000000  0.4844860000000  0.5234130000000 1.0
C      1  0.5237780000000  0.5471330000000  0.4684900000000 1.0
C      1  0.4499800000000  0.5041000000000  0.5714840000000 1.0
C      1  0.5225460000000  0.4915650000000  0.5053010000000 1.0
C      1  0.6147950000000  0.4905530000000  0.4713070000000 1.0
C      1  0.5386650000000  0.4768530000000  0.4219390000000 1.0
C      1  0.5229860000000  0.6006850000000  0.5223790000000 1.0
C      1  0.4904960000000  0.5622540000000  0.5326690000000 1.0
C      1  0.5401470000000  0.5262600000000  0.5398070000000 1.0
C      1  0.4839150000000  0.4048700000000  0.5376360000000 1.0
C      1  0.5830270000000  0.5063270000000  0.4932110000000 1.0
C      1  0.5407510000000  0.5878450000000  0.4442030000000 1.0
C      1  0.4999840000000  0.4460870000000  0.5929590000000 1.0
C      1  0.5533020000000  0.5041680000000  0.4217880000000 1.0
C      1  0.4415340000000  0.5734850000000  0.4422700000000 1.0
C      1  0.5628550000000  0.4984530000000  0.4716910000000 1.0
C      1  0.5879530000000  0.5237140000000  0.5184570000000 1.0
C      1  0.4208290000000  0.5315020000000  0.5389480000000 1.0
C      1  0.4741030000000  0.4566180000000  0.6038080000000 1.0
C      1  0.5635550000000  0.5712200000000  0.4575130000000 1.0
C      1  0.5262660000000  0.4683200000000  0.4917260000000 1.0
C      1  0.5611420000000  0.5414210000000  0.5773770000000 1.0
C      1  0.5000660000000  0.5649550000000  0.5882690000000 1.0
C      1  0.4726820000000  0.5626590000000  0.5812120000000 1.0
C      1  0.5768530000000  0.4289680000000  0.5360560000000 1.0
C      1  0.4452250000000  0.5321820000000  0.4172890000000 1.0
C      1  0.4941430000000  0.4291530000000  0.4939340000000 1.0
C      1  0.4685110000000  0.5800400000000  0.5375670000000 1.0
C      1  0.4963770000000  0.6043560000000  0.5052180000000 1.0
C      1  0.4834960000000  0.4958580000000  0.5829800000000 1.0
C      1  0.4440440000000  0.5685930000000  0.5504630000000 1.0
C      1  0.4506670000000  0.4871410000000  0.5088400000000 1.0
C      1  0.4185070000000  0.4560870000000  0.4786320000000 1.0
C      1  0.4978470000000  0.4581390000000  0.4887290000000 1.0
C      1  0.4992340000000  0.4309100000000  0.4545490000000 1.0
C      1  0.3951960000000  0.4956350000000  0.4842940000000 1.0
C      1  0.5154200000000  0.5200100000000  0.5375390000000 1.0
C      1  0.5214590000000  0.5186760000000  0.4641310000000 1.0
C      1  0.4695570000000  0.5915170000000  0.5105580000000 1.0
C      1  0.6091310000000  0.5081680000000  0.4880670000000 1.0
C      1  0.5103620000000  0.4406910000000  0.4087290000000 1.0
C      1  0.4420190000000  0.4585340000000  0.4071050000000 1.0
C      1  0.5681980000000  0.5433570000000  0.4422780000000 1.0
C      1  0.5319500000000  0.4742080000000  0.5398290000000 1.0
C      1  0.5511140000000  0.4561430000000  0.5784620000000 1.0
C      1  0.5834530000000  0.5082340000000  0.5428650000000 1.0
C      1  0.5066030000000  0.4802200000000  0.4342430000000 1.0
C      1  0.5255250000000  0.5213910000000  0.6142690000000 1.0
C      1  0.5475180000000  0.4734450000000  0.4728510000000 1.0
C      1  0.4262890000000  0.5587210000000  0.5293340000000 1.0
C      1  0.5378510000000  0.4503550000000  0.4082310000000 1.0
C      1  0.5604950000000  0.5696890000000  0.5353100000000 1.0
C      1  0.4881740000000  0.5226080000000  0.3949740000000 1.0
C      1  0.4066220000000  0.4727940000000  0.4986500000000 1.0
C      1  0.5095030000000  0.6050810000000  0.4818230000000 1.0
C      1  0.5248410000000  0.5772900000000  0.5715840000000 1.0
C      1  0.4633320000000  0.5129530000000  0.5087570000000 1.0
C      1  0.4685000000000  0.4999580000000  0.3959360000000 1.0
C      1  0.5911050000000  0.4543560000000  0.5312520000000 1.0
C      1  0.5046020000000  0.5082340000000  0.4427020000000 1.0
C      1  0.5168080000000  0.6028890000000  0.4546330000000 1.0
C      1  0.4905790000000  0.4069550000000  0.5656510000000 1.0
C      1  0.4350640000000  0.4546400000000  0.5626540000000 1.0
C      1  0.4801830000000  0.5535020000000  0.4838280000000 1.0
C      1  0.5441760000000  0.5347810000000  0.5142130000000 1.0
C      1  0.5306350000000  0.4019690000000  0.4804870000000 1.0
C      1  0.4305470000000  0.5449710000000  0.4387450000000 1.0
C      1  0.4752540000000  0.4173150000000  0.5127110000000 1.0
C      1  0.4491600000000  0.4069620000000  0.4758420000000 1.0
C      1  0.5113450000000  0.4920250000000  0.5308640000000 1.0
C      1  0.3971560000000  0.5212760000000  0.4987450000000 1.0
C      1  0.4807840000000  0.5200920000000  0.4851900000000 1.0
C      1  0.4313820000000  0.5595080000000  0.5004120000000 1.0
C      1  0.4467780000000  0.5184280000000  0.5459580000000 1.0
C      1  0.5368480000000  0.5722690000000  0.4207840000000 1.0
C      1  0.4946400000000  0.4654040000000  0.4114340000000 1.0
C      1  0.5213620000000  0.5930010000000  0.5492950000000 1.0
C      1  0.4700280000000  0.5245170000000  0.5328920000000 1.0
C      1  0.4581050000000  0.5702640000000  0.4928550000000 1.0
C      1  0.4739150000000  0.4299030000000  0.5526860000000 1.0
C      1  0.4682730000000  0.4706710000000  0.3997630000000 1.0
C      1  0.4933050000000  0.5342820000000  0.5474930000000 1.0
C      1  0.5549600000000  0.4500430000000  0.4560720000000 1.0
C      1  0.4917920000000  0.5236100000000  0.5786690000000 1.0
C      1  0.5705030000000  0.5478610000000  0.5174840000000 1.0
C      1  0.4529340000000  0.4370170000000  0.4480340000000 1.0
C      1  0.5522260000000  0.4173030000000  0.5446190000000 1.0
C      1  0.4757820000000  0.3971270000000  0.4680330000000 1.0
C      1  0.4458980000000  0.4355460000000  0.5425140000000 1.0
C      1  0.4367650000000  0.4329910000000  0.4868170000000 1.0
C      1  0.4063590000000  0.5117300000000  0.5242390000000 1.0
C      1  0.5099940000000  0.4224390000000  0.5802070000000 1.0
C      1  0.4073180000000  0.5001740000000  0.4584220000000 1.0
C      1  0.5329770000000  0.4767920000000  0.5694020000000 1.0
C      1  0.5034830000000  0.4217890000000  0.4291750000000 1.0
C      1  0.4205000000000  0.4623740000000  0.4267490000000 1.0
C      1  0.4938030000000  0.4585940000000  0.4583950000000 1.0
C      1  0.5013130000000  0.4030140000000  0.4834760000000 1.0
END
