TITL C-4164247-2821-631 -2.06756547003462e-08 125000 -4534.9228244994 0 0 32 (C1) n - 1
REM
REM in /home/nfs/bkarasulu/CARBON/AIRSS/Generating-Clusters/ReaxFF-fromJPCA2015/Units_Real/with-SteepDescent/Only-C1/SD-CG/Try1-3A/FIRE-CG
REM
REM
REM
REM
REM
REM ./C.cell (11c1c37f851c82e70ff6c80c92926a4b)
REM
REM compiler GCC version 9.2.1 20190827 (Red Hat 9.2.1-1)
REM options -cpp -mtune=generic -march=x86-64 -g -O0 -fpre-include=/usr/include/finclude/math-vector-fortran.h
REM seed -1911321556 -991643579 1249838375 1181781012 -1852153547 -1073949860 -2104394319 1796053190 1168092162 -121806011 1212018123 -2077392602 -2045308650 -916693674 -2041910616 -955147007 -1127014405 1215600837 -1886027024 -371841429 -1943423798 -1625184338 -1560655071 -1160037097 -1366191436 -1738836390 687210311 1325295852 1238354775 -591477273 -733149658 1520547900 506631363
REM
CELL 1.54180   50.00000   50.00000   50.00000   90.00000   90.00000   90.00000
LATT -1
SFAC C  
C      1  0.5147930000000  0.5015790000000  0.4973510000000 1.0
C      1  0.5402260000000  0.4644730000000  0.4632450000000 1.0
C      1  0.4627660000000  0.5135330000000  0.4742590000000 1.0
C      1  0.4692890000000  0.4967370000000  0.4523410000000 1.0
C      1  0.5185780000000  0.5078990000000  0.5674240000000 1.0
C      1  0.5421970000000  0.4950800000000  0.5532770000000 1.0
C      1  0.4973630000000  0.5565530000000  0.4591020000000 1.0
C      1  0.4496180000000  0.4651540000000  0.4944150000000 1.0
C      1  0.5281000000000  0.4679200000000  0.5467870000000 1.0
C      1  0.5147250000000  0.4510690000000  0.4697500000000 1.0
C      1  0.4899590000000  0.5483730000000  0.5321000000000 1.0
C      1  0.4524370000000  0.5051790000000  0.4994070000000 1.0
C      1  0.4646340000000  0.4817410000000  0.5095210000000 1.0
C      1  0.5400170000000  0.5310850000000  0.5319490000000 1.0
C      1  0.4907940000000  0.4816570000000  0.4415270000000 1.0
C      1  0.4795940000000  0.5371480000000  0.4804400000000 1.0
C      1  0.5440790000000  0.4998280000000  0.5026820000000 1.0
C      1  0.5229940000000  0.5442660000000  0.4640870000000 1.0
C      1  0.4684040000000  0.4530490000000  0.4770260000000 1.0
C      1  0.4724450000000  0.5471620000000  0.5081640000000 1.0
C      1  0.5554150000000  0.4806860000000  0.4824130000000 1.0
C      1  0.5016530000000  0.4768730000000  0.5383110000000 1.0
C      1  0.5144920000000  0.4671110000000  0.4474030000000 1.0
C      1  0.4952030000000  0.4546700000000  0.4890570000000 1.0
C      1  0.4675500000000  0.4690830000000  0.4514340000000 1.0
C      1  0.5077320000000  0.5231880000000  0.4823400000000 1.0
C      1  0.4578320000000  0.5251310000000  0.5196440000000 1.0
C      1  0.4952820000000  0.4774650000000  0.5075060000000 1.0
C      1  0.4932230000000  0.5018040000000  0.5528040000000 1.0
C      1  0.5547810000000  0.5077640000000  0.5295720000000 1.0
C      1  0.5176550000000  0.5428410000000  0.5320640000000 1.0
C      1  0.4761710000000  0.5238970000000  0.5426010000000 1.0
END
