TITL C-4164235-1454-416 3.31712788756608 125000 -19039.5266447579 0 0 128 (C1) n - 1
REM
REM in /home/nfs/bkarasulu/CARBON/AIRSS/Generating-Clusters/ReaxFF-fromJPCA2015/Units_Real/with-SteepDescent/Only-C1/SD-CG/Try1-3A/FIRE-CG
REM
REM
REM
REM
REM
REM ./C.cell (11c1c37f851c82e70ff6c80c92926a4b)
REM
REM compiler GCC version 9.2.1 20190827 (Red Hat 9.2.1-1)
REM options -cpp -mtune=generic -march=x86-64 -g -O0 -fpre-include=/usr/include/finclude/math-vector-fortran.h
REM seed -193563646 -2091981996 -753180767 -1722982117 -519992557 -1611316623 1635917253 -1105766453 -1642083110 1204365817 1827135895 -637552071 1032062612 -1504068433 -2033042902 1780324010 -1574370396 -975448422 -1772247712 2142188930 -492127392 -205168801 -25452275 1160234283 -1616443776 1333902065 297034093 1177770217 891856481 1167440061 -1504332079 1213111345 -1793617946
REM
CELL 1.54180   50.00000   50.00000   50.00000   90.00000   90.00000   90.00000
LATT -1
SFAC C  
C      1  0.5838500000000  0.4500030000000  0.5006770000000 1.0
C      1  0.5211250000000  0.5009440000000  0.5243590000000 1.0
C      1  0.4950020000000  0.4030100000000  0.5218220000000 1.0
C      1  0.5376620000000  0.5316890000000  0.4145200000000 1.0
C      1  0.5180190000000  0.5132650000000  0.4364320000000 1.0
C      1  0.4465890000000  0.4751410000000  0.4288440000000 1.0
C      1  0.5585910000000  0.5132050000000  0.4187170000000 1.0
C      1  0.4467110000000  0.4570250000000  0.5514650000000 1.0
C      1  0.4278210000000  0.5431870000000  0.4588540000000 1.0
C      1  0.4290100000000  0.5165140000000  0.5639230000000 1.0
C      1  0.4213560000000  0.4526760000000  0.5359550000000 1.0
C      1  0.4275920000000  0.4500890000000  0.4608930000000 1.0
C      1  0.4867260000000  0.4310380000000  0.4650480000000 1.0
C      1  0.5312950000000  0.5030020000000  0.6093000000000 1.0
C      1  0.5019630000000  0.4556190000000  0.4715440000000 1.0
C      1  0.4482420000000  0.4476510000000  0.4390810000000 1.0
C      1  0.4379550000000  0.5225160000000  0.4413770000000 1.0
C      1  0.5446450000000  0.4407380000000  0.5729470000000 1.0
C      1  0.5542110000000  0.4389420000000  0.4909270000000 1.0
C      1  0.5764160000000  0.5463360000000  0.5433790000000 1.0
C      1  0.5923430000000  0.4779390000000  0.5075870000000 1.0
C      1  0.5009570000000  0.4054700000000  0.4711630000000 1.0
C      1  0.4711880000000  0.4122470000000  0.5352080000000 1.0
C      1  0.5630960000000  0.4821370000000  0.5424270000000 1.0
C      1  0.4509150000000  0.4197530000000  0.5149130000000 1.0
C      1  0.4934030000000  0.5549130000000  0.5067210000000 1.0
C      1  0.5652370000000  0.4792730000000  0.4714560000000 1.0
C      1  0.4362510000000  0.4692560000000  0.5777850000000 1.0
C      1  0.5507910000000  0.5602710000000  0.5481460000000 1.0
C      1  0.5145790000000  0.5922380000000  0.4770380000000 1.0
C      1  0.4552880000000  0.5034030000000  0.4868890000000 1.0
C      1  0.4424060000000  0.5752590000000  0.5430480000000 1.0
C      1  0.4751060000000  0.5615610000000  0.5600560000000 1.0
C      1  0.5827250000000  0.4977180000000  0.4569080000000 1.0
C      1  0.4335840000000  0.5758770000000  0.5043590000000 1.0
C      1  0.4355130000000  0.5370050000000  0.5198190000000 1.0
C      1  0.4566270000000  0.5265950000000  0.5631720000000 1.0
C      1  0.4258240000000  0.4373270000000  0.4864660000000 1.0
C      1  0.5243690000000  0.5139230000000  0.4665360000000 1.0
C      1  0.4871170000000  0.5832910000000  0.5127330000000 1.0
C      1  0.5384680000000  0.4883380000000  0.4794260000000 1.0
C      1  0.5511960000000  0.5805670000000  0.5025320000000 1.0
C      1  0.4320560000000  0.4875600000000  0.4885980000000 1.0
C      1  0.5164830000000  0.5238980000000  0.3906510000000 1.0
C      1  0.5676270000000  0.5571170000000  0.4972400000000 1.0
C      1  0.4880150000000  0.5960230000000  0.4833190000000 1.0
C      1  0.4582060000000  0.4834270000000  0.5353860000000 1.0
C      1  0.5307420000000  0.5280200000000  0.5170780000000 1.0
C      1  0.5067940000000  0.4639890000000  0.5010950000000 1.0
C      1  0.4505480000000  0.4715590000000  0.5110320000000 1.0
C      1  0.5388560000000  0.4133300000000  0.4859010000000 1.0
C      1  0.4709800000000  0.4881110000000  0.4388200000000 1.0
C      1  0.5456780000000  0.4226690000000  0.5518900000000 1.0
C      1  0.4830270000000  0.4853230000000  0.4121220000000 1.0
C      1  0.5216550000000  0.4724410000000  0.4614380000000 1.0
C      1  0.5904550000000  0.5078290000000  0.5012790000000 1.0
C      1  0.5181080000000  0.5464440000000  0.5007200000000 1.0
C      1  0.5451800000000  0.5100170000000  0.5820230000000 1.0
C      1  0.5350630000000  0.4556080000000  0.5131640000000 1.0
C      1  0.5041900000000  0.4659090000000  0.4141900000000 1.0
C      1  0.5273060000000  0.4105830000000  0.4588130000000 1.0
C      1  0.5264270000000  0.4397960000000  0.5360690000000 1.0
C      1  0.4041000000000  0.5014090000000  0.5210230000000 1.0
C      1  0.5026410000000  0.4924400000000  0.5051980000000 1.0
C      1  0.4592870000000  0.5211420000000  0.5104420000000 1.0
C      1  0.4279300000000  0.4947290000000  0.4405260000000 1.0
C      1  0.5738050000000  0.4192970000000  0.5410290000000 1.0
C      1  0.4879150000000  0.4492280000000  0.5151580000000 1.0
C      1  0.4697360000000  0.5456870000000  0.4654220000000 1.0
C      1  0.5011630000000  0.5007510000000  0.5549130000000 1.0
C      1  0.5229630000000  0.5181170000000  0.5641570000000 1.0
C      1  0.5530110000000  0.4723210000000  0.4237560000000 1.0
C      1  0.5132130000000  0.4023280000000  0.4981000000000 1.0
C      1  0.4993020000000  0.4795950000000  0.5769200000000 1.0
C      1  0.5744750000000  0.5483520000000  0.4706750000000 1.0
C      1  0.4115280000000  0.5328670000000  0.4806200000000 1.0
C      1  0.5511180000000  0.4466600000000  0.4376140000000 1.0
C      1  0.5415350000000  0.5859850000000  0.4752790000000 1.0
C      1  0.5008170000000  0.4392070000000  0.4252190000000 1.0
C      1  0.5099350000000  0.5867080000000  0.5333720000000 1.0
C      1  0.4802450000000  0.5875710000000  0.4434410000000 1.0
C      1  0.5247380000000  0.4816850000000  0.4304150000000 1.0
C      1  0.4915100000000  0.5229660000000  0.4285310000000 1.0
C      1  0.4740030000000  0.4360790000000  0.5556360000000 1.0
C      1  0.4487650000000  0.5566300000000  0.5638360000000 1.0
C      1  0.5895320000000  0.4402630000000  0.5279070000000 1.0
C      1  0.5578930000000  0.5314380000000  0.5093650000000 1.0
C      1  0.5807410000000  0.5223890000000  0.5257050000000 1.0
C      1  0.4078980000000  0.4782780000000  0.5391520000000 1.0
C      1  0.5103220000000  0.5603660000000  0.5776390000000 1.0
C      1  0.4709370000000  0.5091720000000  0.5426470000000 1.0
C      1  0.5437330000000  0.4823940000000  0.5200740000000 1.0
C      1  0.5026150000000  0.5757410000000  0.4361020000000 1.0
C      1  0.5317070000000  0.5462390000000  0.5667530000000 1.0
C      1  0.5628790000000  0.4505350000000  0.4645010000000 1.0
C      1  0.4981580000000  0.4428710000000  0.5392600000000 1.0
C      1  0.5745680000000  0.4928390000000  0.4277860000000 1.0
C      1  0.5157270000000  0.5548560000000  0.4481700000000 1.0
C      1  0.4617140000000  0.4454410000000  0.5048090000000 1.0
C      1  0.4670910000000  0.5293480000000  0.4422090000000 1.0
C      1  0.4201970000000  0.4789110000000  0.4632680000000 1.0
C      1  0.5576220000000  0.4856310000000  0.5711130000000 1.0
C      1  0.4996850000000  0.5803900000000  0.5595940000000 1.0
C      1  0.4921760000000  0.5136840000000  0.4003360000000 1.0
C      1  0.4636010000000  0.5910080000000  0.4653960000000 1.0
C      1  0.4961100000000  0.5084970000000  0.4820080000000 1.0
C      1  0.4859750000000  0.5472150000000  0.5782810000000 1.0
C      1  0.5851700000000  0.5202540000000  0.4746390000000 1.0
C      1  0.4546080000000  0.5863500000000  0.5205760000000 1.0
C      1  0.5254300000000  0.5427840000000  0.4738570000000 1.0
C      1  0.5374450000000  0.5794360000000  0.5286830000000 1.0
C      1  0.4837250000000  0.4542180000000  0.5786100000000 1.0
C      1  0.4741370000000  0.4342720000000  0.4387870000000 1.0
C      1  0.4235870000000  0.4318390000000  0.5144480000000 1.0
C      1  0.4081720000000  0.5059320000000  0.4923630000000 1.0
C      1  0.4170850000000  0.5221830000000  0.5375400000000 1.0
C      1  0.4621640000000  0.4690340000000  0.5880760000000 1.0
C      1  0.5459660000000  0.4640220000000  0.5877860000000 1.0
C      1  0.5267700000000  0.4300910000000  0.4366070000000 1.0
C      1  0.5552670000000  0.5653170000000  0.4555000000000 1.0
C      1  0.5203970000000  0.4780230000000  0.5987330000000 1.0
C      1  0.4176750000000  0.5527020000000  0.5021210000000 1.0
C      1  0.5890990000000  0.4708140000000  0.5357220000000 1.0
C      1  0.4491910000000  0.5653960000000  0.4620020000000 1.0
C      1  0.4741510000000  0.4962460000000  0.4666470000000 1.0
C      1  0.5390780000000  0.5598630000000  0.4317280000000 1.0
C      1  0.4786530000000  0.5359580000000  0.4920820000000 1.0
C      1  0.4184600000000  0.4894020000000  0.5648560000000 1.0
END
