TITL C-4164244-2836-472 -12.1390563408379 125000 -21284.3563379996 0 0 142 (C1) n - 1
REM
REM in /home/nfs/bkarasulu/CARBON/AIRSS/Generating-Clusters/ReaxFF-fromJPCA2015/Units_Real/with-SteepDescent/Only-C1/SD-CG/Try1-3A/FIRE-CG
REM
REM
REM
REM
REM
REM ./C.cell (11c1c37f851c82e70ff6c80c92926a4b)
REM
REM compiler GCC version 9.2.1 20190827 (Red Hat 9.2.1-1)
REM options -cpp -mtune=generic -march=x86-64 -g -O0 -fpre-include=/usr/include/finclude/math-vector-fortran.h
REM seed 1576999014 -908899382 129377279 -362021543 -426360300 2139442694 171037549 1202251431 1428713313 -945326366 1626196142 -1128243851 -1768639613 1752166051 -461322967 -2054413771 1068461610 1131496573 -35419592 -1480645099 -1378658896 1617338834 -219188526 -2144479966 606074828 801887792 -507691950 323957014 -49766637 -1122834156 -1810834950 -1355720536 978554260
REM
CELL 1.54180   50.00000   50.00000   50.00000   90.00000   90.00000   90.00000
LATT -1
SFAC C  
C      1  0.4188770000000  0.5552130000000  0.4439200000000 1.0
C      1  0.5472400000000  0.4615450000000  0.5867670000000 1.0
C      1  0.5193250000000  0.4279230000000  0.4186700000000 1.0
C      1  0.5379570000000  0.4072060000000  0.4986890000000 1.0
C      1  0.5492580000000  0.4166060000000  0.5242590000000 1.0
C      1  0.5353240000000  0.5711810000000  0.5544390000000 1.0
C      1  0.4490220000000  0.4182440000000  0.5168540000000 1.0
C      1  0.5965550000000  0.5204460000000  0.4932300000000 1.0
C      1  0.5383890000000  0.4417140000000  0.4015610000000 1.0
C      1  0.5429060000000  0.5588820000000  0.4235780000000 1.0
C      1  0.4966590000000  0.4701760000000  0.5934450000000 1.0
C      1  0.4172330000000  0.4339180000000  0.4705980000000 1.0
C      1  0.5375790000000  0.5291390000000  0.4255410000000 1.0
C      1  0.5674680000000  0.4579360000000  0.5671620000000 1.0
C      1  0.5544290000000  0.5206190000000  0.4989330000000 1.0
C      1  0.5780400000000  0.5276750000000  0.5597090000000 1.0
C      1  0.4367400000000  0.5416350000000  0.4270520000000 1.0
C      1  0.5008350000000  0.4454830000000  0.4329850000000 1.0
C      1  0.5073630000000  0.4993210000000  0.5112320000000 1.0
C      1  0.4398830000000  0.5234150000000  0.5693170000000 1.0
C      1  0.4399650000000  0.5822940000000  0.5304330000000 1.0
C      1  0.5244700000000  0.5873730000000  0.4831200000000 1.0
C      1  0.4660630000000  0.5047660000000  0.6017600000000 1.0
C      1  0.5464630000000  0.4340710000000  0.4628340000000 1.0
C      1  0.5856870000000  0.4569570000000  0.4873390000000 1.0
C      1  0.5176040000000  0.5126660000000  0.4061490000000 1.0
C      1  0.5567970000000  0.5069270000000  0.5241120000000 1.0
C      1  0.4947700000000  0.4986920000000  0.6031860000000 1.0
C      1  0.4833570000000  0.4087480000000  0.5339340000000 1.0
C      1  0.4848730000000  0.5827410000000  0.5484270000000 1.0
C      1  0.5102310000000  0.5850670000000  0.5103410000000 1.0
C      1  0.5859240000000  0.5025650000000  0.4423730000000 1.0
C      1  0.4615240000000  0.4839140000000  0.5076880000000 1.0
C      1  0.4309890000000  0.4928670000000  0.5715650000000 1.0
C      1  0.5621170000000  0.4710940000000  0.4313000000000 1.0
C      1  0.4231620000000  0.4514820000000  0.5462910000000 1.0
C      1  0.5100020000000  0.4078150000000  0.4898060000000 1.0
C      1  0.4748100000000  0.4985110000000  0.4470870000000 1.0
C      1  0.5171310000000  0.4832470000000  0.4067760000000 1.0
C      1  0.5186230000000  0.5103680000000  0.5555960000000 1.0
C      1  0.5901310000000  0.4519390000000  0.5318420000000 1.0
C      1  0.5528700000000  0.4855700000000  0.4567310000000 1.0
C      1  0.5482610000000  0.5546920000000  0.4651320000000 1.0
C      1  0.4760590000000  0.5282200000000  0.5300480000000 1.0
C      1  0.4591580000000  0.4084570000000  0.4941500000000 1.0
C      1  0.4883460000000  0.4810780000000  0.4964270000000 1.0
C      1  0.5576090000000  0.4161280000000  0.4808060000000 1.0
C      1  0.5319470000000  0.5493480000000  0.5754160000000 1.0
C      1  0.5221790000000  0.5258410000000  0.5058130000000 1.0
C      1  0.4465310000000  0.4246590000000  0.4675550000000 1.0
C      1  0.4642430000000  0.4352510000000  0.5750520000000 1.0
C      1  0.5091280000000  0.5532600000000  0.5128530000000 1.0
C      1  0.5614560000000  0.4720580000000  0.4817240000000 1.0
C      1  0.4783590000000  0.5486480000000  0.4017600000000 1.0
C      1  0.4441050000000  0.4621770000000  0.4980740000000 1.0
C      1  0.5028410000000  0.4983790000000  0.4594100000000 1.0
C      1  0.4325280000000  0.4408780000000  0.5209910000000 1.0
C      1  0.5218380000000  0.4499200000000  0.5108110000000 1.0
C      1  0.4786710000000  0.5497200000000  0.5844440000000 1.0
C      1  0.5830240000000  0.4719850000000  0.5514160000000 1.0
C      1  0.4750010000000  0.5951090000000  0.4775850000000 1.0
C      1  0.4881460000000  0.4515770000000  0.4708780000000 1.0
C      1  0.4672730000000  0.5704240000000  0.5686450000000 1.0
C      1  0.4189070000000  0.5402000000000  0.5255480000000 1.0
C      1  0.4567090000000  0.5847430000000  0.4601800000000 1.0
C      1  0.5875230000000  0.5427390000000  0.4484690000000 1.0
C      1  0.4294930000000  0.4767000000000  0.4472090000000 1.0
C      1  0.5763020000000  0.4274300000000  0.5217380000000 1.0
C      1  0.5148240000000  0.5866660000000  0.5421720000000 1.0
C      1  0.5612690000000  0.5726260000000  0.5379910000000 1.0
C      1  0.4198450000000  0.4808140000000  0.5482010000000 1.0
C      1  0.5247800000000  0.4794380000000  0.4624610000000 1.0
C      1  0.4381640000000  0.5203260000000  0.5142980000000 1.0
C      1  0.4669010000000  0.4750590000000  0.4146540000000 1.0
C      1  0.4618550000000  0.5116550000000  0.5489440000000 1.0
C      1  0.4501690000000  0.4826980000000  0.5908820000000 1.0
C      1  0.4964290000000  0.5641430000000  0.4165570000000 1.0
C      1  0.4309460000000  0.5025110000000  0.4615690000000 1.0
C      1  0.5177850000000  0.5744360000000  0.4314780000000 1.0
C      1  0.4088710000000  0.4596520000000  0.4594560000000 1.0
C      1  0.5503140000000  0.5753990000000  0.4867580000000 1.0
C      1  0.4419560000000  0.5687140000000  0.5554620000000 1.0
C      1  0.5350650000000  0.4567770000000  0.4816400000000 1.0
C      1  0.5429960000000  0.4696950000000  0.4081990000000 1.0
C      1  0.4011620000000  0.5097050000000  0.5040340000000 1.0
C      1  0.4952830000000  0.4583470000000  0.5149610000000 1.0
C      1  0.4056510000000  0.5441400000000  0.4686900000000 1.0
C      1  0.5678900000000  0.5680070000000  0.5091080000000 1.0
C      1  0.5486560000000  0.4239970000000  0.4227760000000 1.0
C      1  0.5085360000000  0.5805970000000  0.4598110000000 1.0
C      1  0.5984970000000  0.5206470000000  0.4621490000000 1.0
C      1  0.5989280000000  0.4703210000000  0.5095670000000 1.0
C      1  0.5073700000000  0.5226810000000  0.5956970000000 1.0
C      1  0.4619920000000  0.4479240000000  0.4794880000000 1.0
C      1  0.4921050000000  0.5523400000000  0.5342970000000 1.0
C      1  0.4853400000000  0.4008030000000  0.5062910000000 1.0
C      1  0.5135910000000  0.4352640000000  0.5603600000000 1.0
C      1  0.5035540000000  0.5258340000000  0.4684460000000 1.0
C      1  0.4951500000000  0.5267090000000  0.3996680000000 1.0
C      1  0.4162860000000  0.5664470000000  0.4846130000000 1.0
C      1  0.5984830000000  0.4993310000000  0.5133700000000 1.0
C      1  0.4276040000000  0.5449970000000  0.5530360000000 1.0
C      1  0.4078010000000  0.5159740000000  0.4765340000000 1.0
C      1  0.5178190000000  0.4540890000000  0.5818280000000 1.0
C      1  0.4568570000000  0.5151980000000  0.4627510000000 1.0
C      1  0.4187930000000  0.4980250000000  0.5227480000000 1.0
C      1  0.4803160000000  0.5691330000000  0.4651360000000 1.0
C      1  0.5755350000000  0.5405160000000  0.4992980000000 1.0
C      1  0.5743470000000  0.5505510000000  0.5461920000000 1.0
C      1  0.4621110000000  0.4851940000000  0.5369170000000 1.0
C      1  0.5300210000000  0.4362560000000  0.5344840000000 1.0
C      1  0.4823220000000  0.5958120000000  0.5046950000000 1.0
C      1  0.5828140000000  0.5030750000000  0.5396480000000 1.0
C      1  0.4868240000000  0.4700060000000  0.5400530000000 1.0
C      1  0.4590680000000  0.5301260000000  0.5910230000000 1.0
C      1  0.5623530000000  0.4428690000000  0.4404350000000 1.0
C      1  0.5332070000000  0.5213010000000  0.5333710000000 1.0
C      1  0.4650880000000  0.5022600000000  0.4200330000000 1.0
C      1  0.4998000000000  0.4249620000000  0.4682060000000 1.0
C      1  0.4874820000000  0.4219290000000  0.5582660000000 1.0
C      1  0.5664920000000  0.5607910000000  0.4415110000000 1.0
C      1  0.4664200000000  0.5929670000000  0.5270550000000 1.0
C      1  0.4746330000000  0.5352140000000  0.4772910000000 1.0
C      1  0.4570160000000  0.4337000000000  0.4403260000000 1.0
C      1  0.4696890000000  0.4606210000000  0.5887820000000 1.0
C      1  0.5645760000000  0.5130140000000  0.4268030000000 1.0
C      1  0.4137370000000  0.4560570000000  0.4881420000000 1.0
C      1  0.5516500000000  0.4893020000000  0.5861220000000 1.0
C      1  0.4227120000000  0.5664060000000  0.5130970000000 1.0
C      1  0.4941600000000  0.4671980000000  0.4150240000000 1.0
C      1  0.4645810000000  0.5255920000000  0.5035870000000 1.0
C      1  0.5075160000000  0.4900430000000  0.5381420000000 1.0
C      1  0.5544440000000  0.5293580000000  0.5782510000000 1.0
C      1  0.4294900000000  0.5775060000000  0.4612070000000 1.0
C      1  0.5275320000000  0.5364580000000  0.4564150000000 1.0
C      1  0.4498730000000  0.4605490000000  0.4330080000000 1.0
C      1  0.5798470000000  0.4284170000000  0.4931380000000 1.0
C      1  0.4542770000000  0.5286380000000  0.4108640000000 1.0
C      1  0.5399510000000  0.5069380000000  0.5758830000000 1.0
C      1  0.5059890000000  0.5395130000000  0.5792420000000 1.0
C      1  0.4844110000000  0.4237590000000  0.4407520000000 1.0
C      1  0.4359120000000  0.4344080000000  0.5678910000000 1.0
END
