TITL C-4164233-775-743 -2.91005325890194 125000 -5387.890194716 0 0 37 (C1) n - 1
REM
REM in /home/nfs/bkarasulu/CARBON/AIRSS/Generating-Clusters/ReaxFF-fromJPCA2015/Units_Real/with-SteepDescent/Only-C1/SD-CG/Try1-3A/FIRE-CG
REM
REM
REM
REM
REM
REM ./C.cell (11c1c37f851c82e70ff6c80c92926a4b)
REM
REM compiler GCC version 9.2.1 20190827 (Red Hat 9.2.1-1)
REM options -cpp -mtune=generic -march=x86-64 -g -O0 -fpre-include=/usr/include/finclude/math-vector-fortran.h
REM seed -1264142210 876249255 25609373 -871950003 523733395 -929249358 -640773248 1450208411 -396899439 259780651 -894470680 1874747084 1240307638 1922965993 2079520417 1683126211 -2086131021 -1964150764 -1993217082 -2127996729 -1300843676 -2020269931 1569597933 1856563990 -802179415 2006508181 -771899457 109704073 -1386165253 -982563984 -415006354 911982778 160952311
REM
CELL 1.54180   50.00000   50.00000   50.00000   90.00000   90.00000   90.00000
LATT -1
SFAC C  
C      1  0.5109480000000  0.5017730000000  0.5448150000000 1.0
C      1  0.5548060000000  0.4920690000000  0.5292210000000 1.0
C      1  0.4828260000000  0.5088980000000  0.5440970000000 1.0
C      1  0.5074630000000  0.4754320000000  0.4887440000000 1.0
C      1  0.5781010000000  0.4928230000000  0.5109520000000 1.0
C      1  0.4397370000000  0.4809810000000  0.4862690000000 1.0
C      1  0.4965020000000  0.5006710000000  0.4510720000000 1.0
C      1  0.4497170000000  0.4874770000000  0.4605250000000 1.0
C      1  0.4913290000000  0.5591180000000  0.4930370000000 1.0
C      1  0.5536930000000  0.4626140000000  0.4790300000000 1.0
C      1  0.4698040000000  0.5560600000000  0.5271390000000 1.0
C      1  0.5548310000000  0.5251210000000  0.4956720000000 1.0
C      1  0.5323670000000  0.5328330000000  0.5090220000000 1.0
C      1  0.5170650000000  0.4726560000000  0.5479360000000 1.0
C      1  0.5325280000000  0.4627430000000  0.4997180000000 1.0
C      1  0.5762610000000  0.5104750000000  0.4864270000000 1.0
C      1  0.4926120000000  0.5460840000000  0.4691310000000 1.0
C      1  0.4693170000000  0.4613330000000  0.5389650000000 1.0
C      1  0.5048790000000  0.5317600000000  0.4929360000000 1.0
C      1  0.4827070000000  0.4571780000000  0.4869490000000 1.0
C      1  0.5145370000000  0.4790050000000  0.4468930000000 1.0
C      1  0.4670590000000  0.5354300000000  0.4609730000000 1.0
C      1  0.4703910000000  0.4548740000000  0.5115880000000 1.0
C      1  0.4747820000000  0.5390800000000  0.5490190000000 1.0
C      1  0.4947890000000  0.4547580000000  0.5548070000000 1.0
C      1  0.4454320000000  0.5213920000000  0.4989380000000 1.0
C      1  0.5763490000000  0.4804440000000  0.4848900000000 1.0
C      1  0.4675650000000  0.5083910000000  0.4510650000000 1.0
C      1  0.4436660000000  0.4970150000000  0.5109560000000 1.0
C      1  0.5389760000000  0.4677590000000  0.5279620000000 1.0
C      1  0.5050050000000  0.5030530000000  0.4788950000000 1.0
C      1  0.4652540000000  0.5635540000000  0.5009420000000 1.0
C      1  0.4492600000000  0.5436610000000  0.4840470000000 1.0
C      1  0.4633030000000  0.4901780000000  0.5341300000000 1.0
C      1  0.5344030000000  0.5136720000000  0.5314580000000 1.0
C      1  0.5351640000000  0.4667520000000  0.4578070000000 1.0
C      1  0.4565720000000  0.4628830000000  0.4739720000000 1.0
END
