TITL C-4164233-775-157 23.4351554725824 125000 -19601.1041161212 0 0 131 (C1) n - 1
REM
REM in /home/nfs/bkarasulu/CARBON/AIRSS/Generating-Clusters/ReaxFF-fromJPCA2015/Units_Real/with-SteepDescent/Only-C1/SD-CG/Try1-3A/FIRE-CG
REM
REM
REM
REM
REM
REM ./C.cell (11c1c37f851c82e70ff6c80c92926a4b)
REM
REM compiler GCC version 9.2.1 20190827 (Red Hat 9.2.1-1)
REM options -cpp -mtune=generic -march=x86-64 -g -O0 -fpre-include=/usr/include/finclude/math-vector-fortran.h
REM seed -589350477 20802383 -520074055 1391362721 -1021733372 -492849864 365630262 336289650 1201488548 -835710175 -673768430 510881896 -1407798145 -889306323 -560052391 669821417 -579350364 -305641276 -893916760 563568333 -138523585 1811173474 -99967235 -2117458550 1670204951 -238691930 -1834827361 275421532 1491486349 -1138786680 -132810387 -15127858 -39212433
REM
CELL 1.54180   50.00000   50.00000   50.00000   90.00000   90.00000   90.00000
LATT -1
SFAC C  
C      1  0.4188950000000  0.4987710000000  0.5510740000000 1.0
C      1  0.5105710000000  0.5580000000000  0.5176040000000 1.0
C      1  0.4720900000000  0.4094570000000  0.5289510000000 1.0
C      1  0.5723700000000  0.4452710000000  0.5831010000000 1.0
C      1  0.5542070000000  0.4547360000000  0.5386970000000 1.0
C      1  0.4259940000000  0.5769760000000  0.5357160000000 1.0
C      1  0.5794700000000  0.4704440000000  0.5439370000000 1.0
C      1  0.5926670000000  0.4718200000000  0.4984220000000 1.0
C      1  0.4653230000000  0.5303680000000  0.5178000000000 1.0
C      1  0.5560220000000  0.5282630000000  0.4248880000000 1.0
C      1  0.5936470000000  0.4861160000000  0.5239510000000 1.0
C      1  0.4103830000000  0.5208260000000  0.4600280000000 1.0
C      1  0.5066790000000  0.4668040000000  0.5407140000000 1.0
C      1  0.5212960000000  0.4258580000000  0.4604210000000 1.0
C      1  0.5438700000000  0.5170110000000  0.5813920000000 1.0
C      1  0.5302890000000  0.5679670000000  0.4454660000000 1.0
C      1  0.5722530000000  0.4732570000000  0.5726220000000 1.0
C      1  0.4930310000000  0.5449500000000  0.4183840000000 1.0
C      1  0.4091330000000  0.5046920000000  0.4851700000000 1.0
C      1  0.4141250000000  0.5236690000000  0.5369750000000 1.0
C      1  0.5858650000000  0.5020720000000  0.4551190000000 1.0
C      1  0.4570870000000  0.5145120000000  0.5858490000000 1.0
C      1  0.4928540000000  0.4679350000000  0.4420920000000 1.0
C      1  0.4553590000000  0.5049150000000  0.4583180000000 1.0
C      1  0.4953990000000  0.4440310000000  0.5643930000000 1.0
C      1  0.5939100000000  0.4776510000000  0.4691820000000 1.0
C      1  0.5528170000000  0.5166220000000  0.5195440000000 1.0
C      1  0.5234570000000  0.5362360000000  0.5878410000000 1.0
C      1  0.4756700000000  0.4609280000000  0.5807850000000 1.0
C      1  0.5388630000000  0.4379530000000  0.4349940000000 1.0
C      1  0.5219250000000  0.4700300000000  0.5911990000000 1.0
C      1  0.4360360000000  0.5666640000000  0.4900200000000 1.0
C      1  0.4152650000000  0.4611100000000  0.5108200000000 1.0
C      1  0.5426600000000  0.5623720000000  0.5293070000000 1.0
C      1  0.5517970000000  0.5583060000000  0.5568430000000 1.0
C      1  0.4677840000000  0.4673230000000  0.4822310000000 1.0
C      1  0.4712190000000  0.5598500000000  0.5550430000000 1.0
C      1  0.4843350000000  0.4174800000000  0.5535960000000 1.0
C      1  0.5785050000000  0.5242240000000  0.4716420000000 1.0
C      1  0.4844410000000  0.5506280000000  0.5293640000000 1.0
C      1  0.4326030000000  0.5686260000000  0.4576070000000 1.0
C      1  0.5100980000000  0.4833960000000  0.4588610000000 1.0
C      1  0.5717270000000  0.5498560000000  0.4632090000000 1.0
C      1  0.4210550000000  0.4572980000000  0.4640920000000 1.0
C      1  0.5461960000000  0.4854560000000  0.4876910000000 1.0
C      1  0.4751960000000  0.4007670000000  0.4883190000000 1.0
C      1  0.5030140000000  0.5666470000000  0.4366520000000 1.0
C      1  0.5906660000000  0.5420620000000  0.5157740000000 1.0
C      1  0.5029070000000  0.5112640000000  0.5209280000000 1.0
C      1  0.5430250000000  0.4865390000000  0.5771730000000 1.0
C      1  0.5324610000000  0.4676150000000  0.4704490000000 1.0
C      1  0.4395960000000  0.4623800000000  0.4419550000000 1.0
C      1  0.4411650000000  0.4631720000000  0.5457600000000 1.0
C      1  0.4690990000000  0.5293250000000  0.4219640000000 1.0
C      1  0.5336320000000  0.4617430000000  0.4191140000000 1.0
C      1  0.4661620000000  0.5008480000000  0.5340610000000 1.0
C      1  0.5144620000000  0.5140850000000  0.4591480000000 1.0
C      1  0.5317940000000  0.5247500000000  0.4798320000000 1.0
C      1  0.4166430000000  0.4722820000000  0.5378100000000 1.0
C      1  0.5974290000000  0.5162930000000  0.5277720000000 1.0
C      1  0.4382070000000  0.4961550000000  0.5728710000000 1.0
C      1  0.5145320000000  0.5469720000000  0.4865410000000 1.0
C      1  0.4613730000000  0.5312610000000  0.4512260000000 1.0
C      1  0.5083610000000  0.4590420000000  0.5095830000000 1.0
C      1  0.5032060000000  0.4057300000000  0.4536870000000 1.0
C      1  0.4570550000000  0.4314250000000  0.5145500000000 1.0
C      1  0.4194870000000  0.5507720000000  0.5467110000000 1.0
C      1  0.5084960000000  0.5224540000000  0.4072730000000 1.0
C      1  0.5827610000000  0.4501750000000  0.4630680000000 1.0
C      1  0.4683260000000  0.4948150000000  0.4803530000000 1.0
C      1  0.4419830000000  0.5653790000000  0.5542890000000 1.0
C      1  0.4573820000000  0.4267170000000  0.4616480000000 1.0
C      1  0.4954980000000  0.5301950000000  0.5941730000000 1.0
C      1  0.5565530000000  0.5143910000000  0.4903160000000 1.0
C      1  0.5707890000000  0.5164810000000  0.5413160000000 1.0
C      1  0.4929940000000  0.4945990000000  0.5408500000000 1.0
C      1  0.4302440000000  0.4359850000000  0.5043110000000 1.0
C      1  0.4945360000000  0.4976960000000  0.4020900000000 1.0
C      1  0.5615740000000  0.5659590000000  0.4833070000000 1.0
C      1  0.4551200000000  0.4755050000000  0.4111010000000 1.0
C      1  0.4325400000000  0.5405620000000  0.4535830000000 1.0
C      1  0.4490870000000  0.4688210000000  0.5717650000000 1.0
C      1  0.5438210000000  0.4100800000000  0.5131130000000 1.0
C      1  0.4673120000000  0.5029500000000  0.4079880000000 1.0
C      1  0.4821200000000  0.5826580000000  0.4510790000000 1.0
C      1  0.5341740000000  0.5736820000000  0.4750600000000 1.0
C      1  0.5010070000000  0.4689580000000  0.4137040000000 1.0
C      1  0.5260740000000  0.4449560000000  0.4891460000000 1.0
C      1  0.4670330000000  0.4540870000000  0.4564950000000 1.0
C      1  0.5268460000000  0.4821650000000  0.5064260000000 1.0
C      1  0.4580450000000  0.5841610000000  0.4959990000000 1.0
C      1  0.4409170000000  0.5386420000000  0.5034680000000 1.0
C      1  0.4791610000000  0.5922200000000  0.4792920000000 1.0
C      1  0.4118090000000  0.4755060000000  0.4859230000000 1.0
C      1  0.5154560000000  0.5788650000000  0.5568000000000 1.0
C      1  0.5702670000000  0.5029290000000  0.4297330000000 1.0
C      1  0.5619420000000  0.4459650000000  0.4447770000000 1.0
C      1  0.4734680000000  0.4556610000000  0.4020010000000 1.0
C      1  0.4756400000000  0.4044180000000  0.4607250000000 1.0
C      1  0.5530190000000  0.4385640000000  0.5078670000000 1.0
C      1  0.5623530000000  0.5314490000000  0.5651270000000 1.0
C      1  0.4729800000000  0.4568310000000  0.5083510000000 1.0
C      1  0.4352150000000  0.4913370000000  0.4418560000000 1.0
C      1  0.5252120000000  0.5959580000000  0.4911470000000 1.0
C      1  0.5298760000000  0.5019450000000  0.5257270000000 1.0
C      1  0.5133250000000  0.5887540000000  0.5167580000000 1.0
C      1  0.5464360000000  0.4871570000000  0.4221260000000 1.0
C      1  0.4918950000000  0.3946440000000  0.5088100000000 1.0
C      1  0.4888990000000  0.5875930000000  0.5589090000000 1.0
C      1  0.5217200000000  0.3959630000000  0.5003490000000 1.0
C      1  0.4174950000000  0.5223130000000  0.5074060000000 1.0
C      1  0.5297420000000  0.5624750000000  0.5755800000000 1.0
C      1  0.4933390000000  0.4780430000000  0.5950510000000 1.0
C      1  0.5486680000000  0.4390040000000  0.5648790000000 1.0
C      1  0.4320010000000  0.4328910000000  0.4749180000000 1.0
C      1  0.4721760000000  0.5387490000000  0.5791670000000 1.0
C      1  0.5340060000000  0.4768760000000  0.5464820000000 1.0
C      1  0.4535040000000  0.5823590000000  0.4418860000000 1.0
C      1  0.5296990000000  0.5140370000000  0.4273200000000 1.0
C      1  0.4073610000000  0.5035290000000  0.4361960000000 1.0
C      1  0.4817540000000  0.5046370000000  0.6004000000000 1.0
C      1  0.5785650000000  0.4467970000000  0.4927840000000 1.0
C      1  0.4583880000000  0.4742140000000  0.5274210000000 1.0
C      1  0.4856450000000  0.5148890000000  0.4957510000000 1.0
C      1  0.4352580000000  0.5879840000000  0.5113770000000 1.0
C      1  0.5659270000000  0.5595900000000  0.5113280000000 1.0
C      1  0.5238040000000  0.3991290000000  0.4710990000000 1.0
C      1  0.4923060000000  0.5326670000000  0.4716550000000 1.0
C      1  0.5233940000000  0.4445120000000  0.5787300000000 1.0
C      1  0.5544510000000  0.5528900000000  0.4404080000000 1.0
C      1  0.4999010000000  0.6027270000000  0.4951230000000 1.0
END
