TITL C-4164235-1454-160 19.85675530449 125000 -19566.9908675733 0 0 134 (C1) n - 1
REM
REM in /home/nfs/bkarasulu/CARBON/AIRSS/Generating-Clusters/ReaxFF-fromJPCA2015/Units_Real/with-SteepDescent/Only-C1/SD-CG/Try1-3A/FIRE-CG
REM
REM
REM
REM
REM
REM ./C.cell (11c1c37f851c82e70ff6c80c92926a4b)
REM
REM compiler GCC version 9.2.1 20190827 (Red Hat 9.2.1-1)
REM options -cpp -mtune=generic -march=x86-64 -g -O0 -fpre-include=/usr/include/finclude/math-vector-fortran.h
REM seed 242096363 -1076146196 -1596794266 -2107157211 51935607 1798295039 897140561 2133884678 -756233374 1169435181 1665498359 -2028857228 474597809 2036963451 -894039183 -2137916374 -821217475 1066949292 -1112697803 1174085861 -2092649446 -707804684 -1858919619 -600014527 -1511324198 1933415664 1119741718 143499431 -659291387 2000699353 -499858596 556138839 -670451429
REM
CELL 1.54180   50.00000   50.00000   50.00000   90.00000   90.00000   90.00000
LATT -1
SFAC C  
C      1  0.5578830000000  0.5594530000000  0.4463720000000 1.0
C      1  0.4243080000000  0.5328010000000  0.4547600000000 1.0
C      1  0.4942740000000  0.5728820000000  0.4334330000000 1.0
C      1  0.5030670000000  0.4465610000000  0.5053950000000 1.0
C      1  0.5535240000000  0.4665000000000  0.5201880000000 1.0
C      1  0.4837760000000  0.4046320000000  0.4903310000000 1.0
C      1  0.5663850000000  0.4682180000000  0.5647180000000 1.0
C      1  0.4401250000000  0.5826530000000  0.4836660000000 1.0
C      1  0.4634950000000  0.5264780000000  0.5849210000000 1.0
C      1  0.4988910000000  0.4915150000000  0.5131870000000 1.0
C      1  0.4992850000000  0.5432860000000  0.4255910000000 1.0
C      1  0.4710050000000  0.5030400000000  0.4567550000000 1.0
C      1  0.4844960000000  0.4333560000000  0.4887570000000 1.0
C      1  0.4974990000000  0.4925960000000  0.5971960000000 1.0
C      1  0.5512420000000  0.5668840000000  0.5192680000000 1.0
C      1  0.4793750000000  0.4272410000000  0.5500040000000 1.0
C      1  0.5391830000000  0.5522310000000  0.4252650000000 1.0
C      1  0.5324790000000  0.5630090000000  0.5654220000000 1.0
C      1  0.4802750000000  0.5293500000000  0.4082560000000 1.0
C      1  0.4310940000000  0.5467900000000  0.5498720000000 1.0
C      1  0.4486180000000  0.4728450000000  0.4887820000000 1.0
C      1  0.4569280000000  0.4082870000000  0.5034170000000 1.0
C      1  0.5125570000000  0.5311980000000  0.6026080000000 1.0
C      1  0.4609540000000  0.4713480000000  0.5770720000000 1.0
C      1  0.5136120000000  0.5032800000000  0.5482880000000 1.0
C      1  0.5259670000000  0.4139170000000  0.5402630000000 1.0
C      1  0.4205340000000  0.4429370000000  0.4783770000000 1.0
C      1  0.5256960000000  0.5877610000000  0.4772280000000 1.0
C      1  0.4731380000000  0.4864090000000  0.5308520000000 1.0
C      1  0.5062740000000  0.4433330000000  0.5776550000000 1.0
C      1  0.5508660000000  0.4469400000000  0.5004500000000 1.0
C      1  0.5300990000000  0.4870480000000  0.4124460000000 1.0
C      1  0.5226110000000  0.5053450000000  0.6062480000000 1.0
C      1  0.5647470000000  0.5058830000000  0.4240570000000 1.0
C      1  0.5283750000000  0.4374370000000  0.4884430000000 1.0
C      1  0.5744070000000  0.4323290000000  0.4580810000000 1.0
C      1  0.4398810000000  0.5819360000000  0.5117710000000 1.0
C      1  0.4552590000000  0.5106640000000  0.5371830000000 1.0
C      1  0.5049460000000  0.4058820000000  0.4677860000000 1.0
C      1  0.5111220000000  0.5987900000000  0.5004200000000 1.0
C      1  0.4570340000000  0.4204530000000  0.5304500000000 1.0
C      1  0.4728220000000  0.4365960000000  0.4445020000000 1.0
C      1  0.4560290000000  0.4672730000000  0.5158560000000 1.0
C      1  0.4856590000000  0.5807590000000  0.5370430000000 1.0
C      1  0.4703710000000  0.4986480000000  0.5918950000000 1.0
C      1  0.5051520000000  0.5611240000000  0.5760150000000 1.0
C      1  0.5589690000000  0.5128320000000  0.5701210000000 1.0
C      1  0.5318090000000  0.5363500000000  0.5358880000000 1.0
C      1  0.5049610000000  0.5298510000000  0.5439930000000 1.0
C      1  0.5052630000000  0.4354560000000  0.5371220000000 1.0
C      1  0.5542390000000  0.4209730000000  0.5459860000000 1.0
C      1  0.4184310000000  0.5102070000000  0.4737110000000 1.0
C      1  0.5176880000000  0.4504390000000  0.4413130000000 1.0
C      1  0.4973110000000  0.5159970000000  0.4980800000000 1.0
C      1  0.4791500000000  0.4983550000000  0.4095410000000 1.0
C      1  0.4210570000000  0.4614750000000  0.4524010000000 1.0
C      1  0.5693680000000  0.5470180000000  0.5296600000000 1.0
C      1  0.4869720000000  0.4680110000000  0.4061100000000 1.0
C      1  0.5830260000000  0.5268690000000  0.5129530000000 1.0
C      1  0.5865290000000  0.4562630000000  0.4554720000000 1.0
C      1  0.5746780000000  0.4952750000000  0.5540170000000 1.0
C      1  0.4074890000000  0.5056940000000  0.5253350000000 1.0
C      1  0.4964080000000  0.4724450000000  0.4943790000000 1.0
C      1  0.4428220000000  0.4696590000000  0.4324190000000 1.0
C      1  0.5859230000000  0.4814200000000  0.4766540000000 1.0
C      1  0.4530920000000  0.4974110000000  0.4299310000000 1.0
C      1  0.5808010000000  0.5443930000000  0.4566000000000 1.0
C      1  0.4671640000000  0.5863400000000  0.5150190000000 1.0
C      1  0.5308350000000  0.4575640000000  0.4672700000000 1.0
C      1  0.4779760000000  0.4414040000000  0.5755600000000 1.0
C      1  0.5106190000000  0.5837610000000  0.4538830000000 1.0
C      1  0.5893540000000  0.5298370000000  0.4830520000000 1.0
C      1  0.4419990000000  0.4455630000000  0.5291590000000 1.0
C      1  0.5194380000000  0.4585720000000  0.5655070000000 1.0
C      1  0.5346930000000  0.5588450000000  0.4954300000000 1.0
C      1  0.5513130000000  0.4981510000000  0.4481340000000 1.0
C      1  0.4883800000000  0.4810410000000  0.4675670000000 1.0
C      1  0.4054520000000  0.4846820000000  0.4591450000000 1.0
C      1  0.4254550000000  0.5622130000000  0.5256880000000 1.0
C      1  0.4106520000000  0.4767480000000  0.5223930000000 1.0
C      1  0.4878300000000  0.5304480000000  0.4499420000000 1.0
C      1  0.5625740000000  0.4497900000000  0.5429120000000 1.0
C      1  0.5528880000000  0.5415160000000  0.5572050000000 1.0
C      1  0.4518390000000  0.5277380000000  0.5153600000000 1.0
C      1  0.4350290000000  0.4784710000000  0.5658830000000 1.0
C      1  0.5323180000000  0.5445690000000  0.4555330000000 1.0
C      1  0.5587210000000  0.4945180000000  0.4758000000000 1.0
C      1  0.5320740000000  0.4838650000000  0.4803770000000 1.0
C      1  0.4657530000000  0.4545090000000  0.4226270000000 1.0
C      1  0.4185060000000  0.4667360000000  0.4950200000000 1.0
C      1  0.5424690000000  0.5241140000000  0.4158040000000 1.0
C      1  0.4532050000000  0.5692210000000  0.4620970000000 1.0
C      1  0.4417810000000  0.4236870000000  0.4828450000000 1.0
C      1  0.5347010000000  0.5785550000000  0.5412010000000 1.0
C      1  0.5291300000000  0.4910690000000  0.5255350000000 1.0
C      1  0.4882590000000  0.5823030000000  0.4943150000000 1.0
C      1  0.4270740000000  0.5568190000000  0.4727070000000 1.0
C      1  0.4170630000000  0.5207140000000  0.5495700000000 1.0
C      1  0.4899910000000  0.5435320000000  0.5939140000000 1.0
C      1  0.4089540000000  0.5197140000000  0.5008380000000 1.0
C      1  0.4387820000000  0.5252430000000  0.4315490000000 1.0
C      1  0.4575900000000  0.5440630000000  0.4199470000000 1.0
C      1  0.5158730000000  0.4622100000000  0.4093310000000 1.0
C      1  0.4620850000000  0.4436880000000  0.4729150000000 1.0
C      1  0.5736330000000  0.4284030000000  0.4987690000000 1.0
C      1  0.5111060000000  0.5915930000000  0.5293540000000 1.0
C      1  0.4787250000000  0.4759030000000  0.5560440000000 1.0
C      1  0.5446800000000  0.4955960000000  0.5882420000000 1.0
C      1  0.5945930000000  0.4465300000000  0.5079730000000 1.0
C      1  0.5853320000000  0.5007880000000  0.5266900000000 1.0
C      1  0.5861760000000  0.5193600000000  0.4420660000000 1.0
C      1  0.5409100000000  0.5280770000000  0.4908840000000 1.0
C      1  0.5040670000000  0.5457880000000  0.4671820000000 1.0
C      1  0.4232700000000  0.4628310000000  0.5445800000000 1.0
C      1  0.4256970000000  0.5425560000000  0.5043470000000 1.0
C      1  0.4651780000000  0.5680820000000  0.4360070000000 1.0
C      1  0.5061150000000  0.4980610000000  0.4250290000000 1.0
C      1  0.4688460000000  0.5211180000000  0.4937010000000 1.0
C      1  0.5323850000000  0.4089030000000  0.4767970000000 1.0
C      1  0.4992070000000  0.4258330000000  0.4471410000000 1.0
C      1  0.5413730000000  0.5167180000000  0.5170750000000 1.0
C      1  0.5982230000000  0.5076450000000  0.4666450000000 1.0
C      1  0.4384460000000  0.5064250000000  0.5607290000000 1.0
C      1  0.5200400000000  0.5108060000000  0.4797230000000 1.0
C      1  0.5035600000000  0.5561810000000  0.4943680000000 1.0
C      1  0.4847630000000  0.5551970000000  0.5530800000000 1.0
C      1  0.5840090000000  0.4756970000000  0.5096430000000 1.0
C      1  0.5038240000000  0.4771870000000  0.4449020000000 1.0
C      1  0.5605930000000  0.4132250000000  0.4727140000000 1.0
C      1  0.4567790000000  0.5454280000000  0.5635960000000 1.0
C      1  0.4518930000000  0.5020900000000  0.4784350000000 1.0
C      1  0.5411120000000  0.4659030000000  0.5805270000000 1.0
C      1  0.5335740000000  0.5185370000000  0.4441030000000 1.0
C      1  0.5027680000000  0.4834370000000  0.5663860000000 1.0
END
