TITL C-4164239-2837-529 4.51364331566009 125000 -18783.719622955 0 0 124 (C1) n - 1
REM
REM in /home/nfs/bkarasulu/CARBON/AIRSS/Generating-Clusters/ReaxFF-fromJPCA2015/Units_Real/with-SteepDescent/Only-C1/SD-CG/Try1-3A/FIRE-CG
REM
REM
REM
REM
REM
REM ./C.cell (11c1c37f851c82e70ff6c80c92926a4b)
REM
REM compiler GCC version 9.2.1 20190827 (Red Hat 9.2.1-1)
REM options -cpp -mtune=generic -march=x86-64 -g -O0 -fpre-include=/usr/include/finclude/math-vector-fortran.h
REM seed 460790279 1926194246 1105046715 746703468 172272178 1115969750 -966985505 1794067088 245642834 -1847102790 -526751844 -776219228 -1260486740 -727743639 144260624 1860054578 1099146723 -550982557 -431088120 94374814 1138614028 -1387084381 -741851435 714193955 255493288 576047110 -779685996 -1453750450 -600888616 1233544675 1089432290 -721860233 162130556
REM
CELL 1.54180   50.00000   50.00000   50.00000   90.00000   90.00000   90.00000
LATT -1
SFAC C  
C      1  0.4934180000000  0.5805990000000  0.4717890000000 1.0
C      1  0.4697750000000  0.5955680000000  0.5435300000000 1.0
C      1  0.5001450000000  0.4840860000000  0.4937760000000 1.0
C      1  0.5067960000000  0.4718370000000  0.4601630000000 1.0
C      1  0.5307180000000  0.5404940000000  0.5657710000000 1.0
C      1  0.4689790000000  0.5701710000000  0.5560430000000 1.0
C      1  0.4101210000000  0.5175560000000  0.4911250000000 1.0
C      1  0.4390130000000  0.4182170000000  0.5010880000000 1.0
C      1  0.5307130000000  0.4546300000000  0.5820590000000 1.0
C      1  0.4681660000000  0.4723170000000  0.6013170000000 1.0
C      1  0.5343110000000  0.5080170000000  0.4658350000000 1.0
C      1  0.4923990000000  0.5189820000000  0.5698790000000 1.0
C      1  0.5671450000000  0.4217380000000  0.5007580000000 1.0
C      1  0.5394510000000  0.4107250000000  0.5018160000000 1.0
C      1  0.5780090000000  0.4345350000000  0.4782490000000 1.0
C      1  0.5191720000000  0.4670750000000  0.5332570000000 1.0
C      1  0.4581050000000  0.4782050000000  0.4690500000000 1.0
C      1  0.4556590000000  0.5626640000000  0.4263170000000 1.0
C      1  0.4623740000000  0.5994370000000  0.5170480000000 1.0
C      1  0.4567990000000  0.5073750000000  0.4611740000000 1.0
C      1  0.5095230000000  0.5769780000000  0.4481980000000 1.0
C      1  0.5072960000000  0.4959710000000  0.5739420000000 1.0
C      1  0.4446650000000  0.4146760000000  0.4729200000000 1.0
C      1  0.4802700000000  0.5364090000000  0.5884370000000 1.0
C      1  0.4802620000000  0.4601930000000  0.4615550000000 1.0
C      1  0.5348590000000  0.4274540000000  0.5500980000000 1.0
C      1  0.5513570000000  0.5014410000000  0.5414940000000 1.0
C      1  0.5923340000000  0.4745400000000  0.4809350000000 1.0
C      1  0.5630500000000  0.5465220000000  0.4905340000000 1.0
C      1  0.3994710000000  0.4960370000000  0.4723990000000 1.0
C      1  0.4532710000000  0.4833360000000  0.5576020000000 1.0
C      1  0.4743960000000  0.5591070000000  0.4068870000000 1.0
C      1  0.4653030000000  0.4615100000000  0.5741080000000 1.0
C      1  0.5210350000000  0.4082300000000  0.4799870000000 1.0
C      1  0.4644640000000  0.5803450000000  0.4725120000000 1.0
C      1  0.4943520000000  0.4049540000000  0.4933150000000 1.0
C      1  0.4711780000000  0.5349380000000  0.4996920000000 1.0
C      1  0.5774190000000  0.5065110000000  0.5534430000000 1.0
C      1  0.5153620000000  0.5641190000000  0.5644630000000 1.0
C      1  0.5828340000000  0.4545770000000  0.4600520000000 1.0
C      1  0.4503230000000  0.5816770000000  0.4975320000000 1.0
C      1  0.4284920000000  0.5038790000000  0.5098520000000 1.0
C      1  0.4647890000000  0.5456900000000  0.5399090000000 1.0
C      1  0.4958300000000  0.4121650000000  0.5230920000000 1.0
C      1  0.5851520000000  0.5018420000000  0.4756890000000 1.0
C      1  0.5410290000000  0.5623410000000  0.4820770000000 1.0
C      1  0.4180450000000  0.5436270000000  0.4802190000000 1.0
C      1  0.4522440000000  0.4465560000000  0.4297950000000 1.0
C      1  0.4425670000000  0.5099640000000  0.5643580000000 1.0
C      1  0.4574010000000  0.5092230000000  0.5074690000000 1.0
C      1  0.4964350000000  0.5467710000000  0.5084610000000 1.0
C      1  0.5570510000000  0.5675180000000  0.5386780000000 1.0
C      1  0.4236770000000  0.5420320000000  0.5220070000000 1.0
C      1  0.4716820000000  0.5309840000000  0.4706880000000 1.0
C      1  0.5087730000000  0.5126820000000  0.4530360000000 1.0
C      1  0.4836860000000  0.4399460000000  0.5625710000000 1.0
C      1  0.5540060000000  0.5064640000000  0.4215220000000 1.0
C      1  0.5044040000000  0.4935310000000  0.4316680000000 1.0
C      1  0.4332800000000  0.4530740000000  0.5215320000000 1.0
C      1  0.5002090000000  0.4665340000000  0.3992810000000 1.0
C      1  0.5209330000000  0.4682880000000  0.5049320000000 1.0
C      1  0.5706450000000  0.4959220000000  0.5801500000000 1.0
C      1  0.4540810000000  0.5225660000000  0.5881220000000 1.0
C      1  0.5558860000000  0.4635310000000  0.4463140000000 1.0
C      1  0.5533810000000  0.5424880000000  0.5815530000000 1.0
C      1  0.4816830000000  0.4832080000000  0.4148170000000 1.0
C      1  0.5116170000000  0.5695140000000  0.4956510000000 1.0
C      1  0.5511360000000  0.4776440000000  0.4185790000000 1.0
C      1  0.5689860000000  0.5484570000000  0.5192570000000 1.0
C      1  0.4288200000000  0.5451920000000  0.4525940000000 1.0
C      1  0.4942550000000  0.5376210000000  0.4531420000000 1.0
C      1  0.5479140000000  0.5491540000000  0.4341050000000 1.0
C      1  0.5540000000000  0.5156340000000  0.5928500000000 1.0
C      1  0.5244310000000  0.4126440000000  0.5271990000000 1.0
C      1  0.5371110000000  0.5682370000000  0.4545790000000 1.0
C      1  0.4338420000000  0.4614460000000  0.4688330000000 1.0
C      1  0.5124520000000  0.4414770000000  0.4080780000000 1.0
C      1  0.5495560000000  0.4738550000000  0.5905560000000 1.0
C      1  0.4898310000000  0.6030460000000  0.5254190000000 1.0
C      1  0.4739060000000  0.4799040000000  0.5369060000000 1.0
C      1  0.5323950000000  0.5235790000000  0.5433870000000 1.0
C      1  0.4774520000000  0.4376060000000  0.4425550000000 1.0
C      1  0.5290200000000  0.5772830000000  0.5421230000000 1.0
C      1  0.5569980000000  0.4462360000000  0.5436850000000 1.0
C      1  0.5276230000000  0.4515740000000  0.4562580000000 1.0
C      1  0.4764080000000  0.4259810000000  0.5392150000000 1.0
C      1  0.4311650000000  0.4941040000000  0.4274750000000 1.0
C      1  0.4104220000000  0.4914400000000  0.4466620000000 1.0
C      1  0.5456260000000  0.4729390000000  0.5449360000000 1.0
C      1  0.4735520000000  0.4851300000000  0.5078800000000 1.0
C      1  0.4381320000000  0.5328270000000  0.5450450000000 1.0
C      1  0.5305380000000  0.4959980000000  0.5925320000000 1.0
C      1  0.4712280000000  0.4078980000000  0.4788920000000 1.0
C      1  0.5252890000000  0.5399780000000  0.4178470000000 1.0
C      1  0.5653480000000  0.5274140000000  0.4406670000000 1.0
C      1  0.5224300000000  0.4230710000000  0.4543340000000 1.0
C      1  0.4856870000000  0.5260070000000  0.5441890000000 1.0
C      1  0.4652620000000  0.5020670000000  0.6067010000000 1.0
C      1  0.4364940000000  0.4376110000000  0.4526830000000 1.0
C      1  0.5473440000000  0.4798380000000  0.4954100000000 1.0
C      1  0.5260410000000  0.5113270000000  0.4153100000000 1.0
C      1  0.5006590000000  0.5549010000000  0.4281980000000 1.0
C      1  0.5382650000000  0.5105790000000  0.4943820000000 1.0
C      1  0.5757690000000  0.5268910000000  0.4687020000000 1.0
C      1  0.4402080000000  0.5195640000000  0.4407620000000 1.0
C      1  0.5137980000000  0.5879800000000  0.5200870000000 1.0
C      1  0.5821240000000  0.5338380000000  0.5424280000000 1.0
C      1  0.5755090000000  0.4698150000000  0.5046770000000 1.0
C      1  0.4094620000000  0.4704980000000  0.4830490000000 1.0
C      1  0.4190620000000  0.4745030000000  0.5110380000000 1.0
C      1  0.5710520000000  0.5536770000000  0.5608250000000 1.0
C      1  0.5000620000000  0.4800180000000  0.5506740000000 1.0
C      1  0.5082540000000  0.5258900000000  0.5256360000000 1.0
C      1  0.4457010000000  0.5689940000000  0.4505580000000 1.0
C      1  0.5107880000000  0.5095770000000  0.5014890000000 1.0
C      1  0.4885820000000  0.5617590000000  0.5754010000000 1.0
C      1  0.4470280000000  0.4292210000000  0.5262600000000 1.0
C      1  0.4279470000000  0.5615990000000  0.5018010000000 1.0
C      1  0.5029800000000  0.4268590000000  0.4320040000000 1.0
C      1  0.4542180000000  0.4747390000000  0.4212660000000 1.0
C      1  0.5495200000000  0.4845450000000  0.4658560000000 1.0
C      1  0.5135670000000  0.4367210000000  0.5692210000000 1.0
C      1  0.5734720000000  0.4446870000000  0.5193440000000 1.0
C      1  0.5300070000000  0.4648350000000  0.4028650000000 1.0
END
