TITL C-4164242-3624-262 32.7924890073688 125000 -20755.2973959006 0 0 140 (C1) n - 1
REM
REM in /home/nfs/bkarasulu/CARBON/AIRSS/Generating-Clusters/ReaxFF-fromJPCA2015/Units_Real/with-SteepDescent/Only-C1/SD-CG/Try1-3A/FIRE-CG
REM
REM
REM
REM
REM
REM ./C.cell (11c1c37f851c82e70ff6c80c92926a4b)
REM
REM compiler GCC version 9.2.1 20190827 (Red Hat 9.2.1-1)
REM options -cpp -mtune=generic -march=x86-64 -g -O0 -fpre-include=/usr/include/finclude/math-vector-fortran.h
REM seed -978270763 -419068615 998004369 -231040489 620848957 -84335996 -1633106597 1254312507 -2723886 -21164142 -1055838735 569708402 676632966 241551590 930980874 -856496620 531184330 1772887927 -43255865 -1323328445 1087810714 -1649991224 -278411073 394448390 -1812846756 119899207 -464990350 790704514 2030648184 1632860670 2101508141 -1936785024 -352703586
REM
CELL 1.54180   50.00000   50.00000   50.00000   90.00000   90.00000   90.00000
LATT -1
SFAC C  
C      1  0.4916300000000  0.4655500000000  0.4043850000000 1.0
C      1  0.5560170000000  0.4292800000000  0.4772850000000 1.0
C      1  0.5739710000000  0.5391120000000  0.4504170000000 1.0
C      1  0.4143790000000  0.5417110000000  0.4943330000000 1.0
C      1  0.4891440000000  0.4668500000000  0.5126340000000 1.0
C      1  0.5569770000000  0.4964240000000  0.5753650000000 1.0
C      1  0.4577690000000  0.5112330000000  0.4482260000000 1.0
C      1  0.4921230000000  0.4949790000000  0.5158120000000 1.0
C      1  0.4897830000000  0.5851900000000  0.4790750000000 1.0
C      1  0.4636150000000  0.5262880000000  0.4933140000000 1.0
C      1  0.5095360000000  0.5145840000000  0.5961740000000 1.0
C      1  0.5441170000000  0.4964210000000  0.5038250000000 1.0
C      1  0.4998210000000  0.4726550000000  0.4572410000000 1.0
C      1  0.4251580000000  0.4527130000000  0.4765660000000 1.0
C      1  0.4054120000000  0.4304600000000  0.5129840000000 1.0
C      1  0.4140670000000  0.4533060000000  0.5285340000000 1.0
C      1  0.5668630000000  0.5314810000000  0.5012870000000 1.0
C      1  0.5160310000000  0.4576910000000  0.4752810000000 1.0
C      1  0.4319480000000  0.5638510000000  0.4900980000000 1.0
C      1  0.4038240000000  0.4899910000000  0.5008100000000 1.0
C      1  0.4126630000000  0.4833330000000  0.4493660000000 1.0
C      1  0.4874070000000  0.5337110000000  0.5904650000000 1.0
C      1  0.5547550000000  0.5811400000000  0.4619950000000 1.0
C      1  0.5103360000000  0.5252800000000  0.5379540000000 1.0
C      1  0.4823530000000  0.4034730000000  0.4954780000000 1.0
C      1  0.6017590000000  0.5380570000000  0.5546960000000 1.0
C      1  0.4248550000000  0.5242580000000  0.5834450000000 1.0
C      1  0.4298040000000  0.5465040000000  0.5669560000000 1.0
C      1  0.5892040000000  0.5663240000000  0.4791620000000 1.0
C      1  0.5217920000000  0.4798980000000  0.4014440000000 1.0
C      1  0.4717580000000  0.4917300000000  0.5571610000000 1.0
C      1  0.4116650000000  0.5127700000000  0.4459940000000 1.0
C      1  0.5379220000000  0.5309470000000  0.5414560000000 1.0
C      1  0.4760610000000  0.5490450000000  0.5056240000000 1.0
C      1  0.4543340000000  0.4454790000000  0.4356060000000 1.0
C      1  0.5773100000000  0.4951810000000  0.4366140000000 1.0
C      1  0.4682250000000  0.5141660000000  0.6025660000000 1.0
C      1  0.5005180000000  0.5082780000000  0.4912260000000 1.0
C      1  0.5965000000000  0.5399250000000  0.4708430000000 1.0
C      1  0.5566720000000  0.5603500000000  0.4405080000000 1.0
C      1  0.4713280000000  0.5098850000000  0.5347220000000 1.0
C      1  0.5698210000000  0.5851850000000  0.4870410000000 1.0
C      1  0.4429640000000  0.5679130000000  0.4610030000000 1.0
C      1  0.4222820000000  0.4257520000000  0.4874280000000 1.0
C      1  0.5147820000000  0.4680180000000  0.5787420000000 1.0
C      1  0.5477970000000  0.4716210000000  0.4080730000000 1.0
C      1  0.5042360000000  0.5460810000000  0.5156660000000 1.0
C      1  0.5335520000000  0.4754820000000  0.5205360000000 1.0
C      1  0.5890940000000  0.5156160000000  0.5590690000000 1.0
C      1  0.4513430000000  0.4161440000000  0.4863000000000 1.0
C      1  0.5460810000000  0.4964020000000  0.4749650000000 1.0
C      1  0.5891360000000  0.5507270000000  0.5370440000000 1.0
C      1  0.5154710000000  0.5067210000000  0.4094960000000 1.0
C      1  0.4526790000000  0.4225090000000  0.5141080000000 1.0
C      1  0.5497810000000  0.4465100000000  0.4253930000000 1.0
C      1  0.4850170000000  0.5872990000000  0.5341900000000 1.0
C      1  0.5491960000000  0.4238440000000  0.5652830000000 1.0
C      1  0.4743070000000  0.5071560000000  0.3950580000000 1.0
C      1  0.4873070000000  0.5083840000000  0.4215190000000 1.0
C      1  0.4575360000000  0.5780880000000  0.5369200000000 1.0
C      1  0.5087510000000  0.5699970000000  0.4632470000000 1.0
C      1  0.4687550000000  0.5819000000000  0.4586220000000 1.0
C      1  0.4548240000000  0.5599630000000  0.5600390000000 1.0
C      1  0.4990990000000  0.4822170000000  0.5598670000000 1.0
C      1  0.4911620000000  0.4807370000000  0.4311150000000 1.0
C      1  0.5504990000000  0.5792640000000  0.5158330000000 1.0
C      1  0.5059010000000  0.5584080000000  0.4375980000000 1.0
C      1  0.4506780000000  0.4921830000000  0.3893430000000 1.0
C      1  0.5909040000000  0.5165660000000  0.4872770000000 1.0
C      1  0.5613040000000  0.4515910000000  0.4546950000000 1.0
C      1  0.4500340000000  0.4558020000000  0.5761650000000 1.0
C      1  0.4352160000000  0.5198290000000  0.4299330000000 1.0
C      1  0.5147370000000  0.5321030000000  0.4910940000000 1.0
C      1  0.5260950000000  0.4346000000000  0.4256730000000 1.0
C      1  0.5217240000000  0.5741510000000  0.5117650000000 1.0
C      1  0.4092680000000  0.5086580000000  0.5371310000000 1.0
C      1  0.5277570000000  0.5815360000000  0.5614340000000 1.0
C      1  0.5272550000000  0.4156000000000  0.5474000000000 1.0
C      1  0.5444670000000  0.5857010000000  0.5403480000000 1.0
C      1  0.5939500000000  0.4624990000000  0.4955520000000 1.0
C      1  0.5610780000000  0.5125690000000  0.4542030000000 1.0
C      1  0.4617640000000  0.4628760000000  0.5079240000000 1.0
C      1  0.5775880000000  0.4367430000000  0.4948350000000 1.0
C      1  0.5511550000000  0.5448550000000  0.5628040000000 1.0
C      1  0.5547490000000  0.5147760000000  0.5232540000000 1.0
C      1  0.4900700000000  0.4967360000000  0.4680250000000 1.0
C      1  0.5497860000000  0.5388930000000  0.5890220000000 1.0
C      1  0.4774760000000  0.4412210000000  0.4189170000000 1.0
C      1  0.5443920000000  0.4722900000000  0.5817730000000 1.0
C      1  0.5327180000000  0.5487020000000  0.4279740000000 1.0
C      1  0.4539440000000  0.4372640000000  0.5529320000000 1.0
C      1  0.4432440000000  0.5036760000000  0.5908840000000 1.0
C      1  0.5420950000000  0.5647090000000  0.5812750000000 1.0
C      1  0.5349160000000  0.5630160000000  0.4748160000000 1.0
C      1  0.4195610000000  0.5314220000000  0.4675750000000 1.0
C      1  0.4351790000000  0.4916320000000  0.4141710000000 1.0
C      1  0.4627650000000  0.4275000000000  0.4563250000000 1.0
C      1  0.5392140000000  0.5123000000000  0.5915930000000 1.0
C      1  0.5001190000000  0.4238670000000  0.4264470000000 1.0
C      1  0.4505960000000  0.5174590000000  0.5171550000000 1.0
C      1  0.4499680000000  0.5512850000000  0.4380070000000 1.0
C      1  0.4758070000000  0.4815170000000  0.3863360000000 1.0
C      1  0.4814440000000  0.5564320000000  0.5717050000000 1.0
C      1  0.4544850000000  0.5672080000000  0.5095310000000 1.0
C      1  0.4210640000000  0.5177890000000  0.5128420000000 1.0
C      1  0.5314060000000  0.4166660000000  0.4867900000000 1.0
C      1  0.5382190000000  0.5225160000000  0.4156940000000 1.0
C      1  0.5835260000000  0.4739470000000  0.4554490000000 1.0
C      1  0.5715240000000  0.5577120000000  0.5168430000000 1.0
C      1  0.5134860000000  0.4951280000000  0.5370690000000 1.0
C      1  0.4965860000000  0.4095630000000  0.5196330000000 1.0
C      1  0.4784900000000  0.4273000000000  0.5651660000000 1.0
C      1  0.5570330000000  0.4529910000000  0.5636670000000 1.0
C      1  0.5922170000000  0.4878240000000  0.4797180000000 1.0
C      1  0.4903320000000  0.4949110000000  0.6068610000000 1.0
C      1  0.4625620000000  0.4878610000000  0.4648960000000 1.0
C      1  0.4048350000000  0.4740340000000  0.4768810000000 1.0
C      1  0.4886660000000  0.4159640000000  0.4530770000000 1.0
C      1  0.4501050000000  0.4686010000000  0.4826610000000 1.0
C      1  0.4029160000000  0.4811200000000  0.5276480000000 1.0
C      1  0.5398710000000  0.4694890000000  0.4655320000000 1.0
C      1  0.5608320000000  0.4661010000000  0.5371610000000 1.0
C      1  0.5039270000000  0.4073330000000  0.4767440000000 1.0
C      1  0.4747690000000  0.4457780000000  0.5881380000000 1.0
C      1  0.5808780000000  0.4529620000000  0.5194670000000 1.0
C      1  0.5220850000000  0.4243920000000  0.5136530000000 1.0
C      1  0.5141230000000  0.4558650000000  0.5044630000000 1.0
C      1  0.4762130000000  0.5637690000000  0.4352110000000 1.0
C      1  0.4115360000000  0.5254520000000  0.5594700000000 1.0
C      1  0.5418130000000  0.5369360000000  0.4834080000000 1.0
C      1  0.5579030000000  0.4988720000000  0.4144700000000 1.0
C      1  0.4482190000000  0.5264930000000  0.4695350000000 1.0
C      1  0.5693250000000  0.4978320000000  0.5487110000000 1.0
C      1  0.4331670000000  0.4696100000000  0.4322490000000 1.0
C      1  0.4934730000000  0.4662860000000  0.5982810000000 1.0
C      1  0.4458990000000  0.4456370000000  0.5260830000000 1.0
C      1  0.4985290000000  0.5756070000000  0.5574100000000 1.0
C      1  0.4498300000000  0.4837090000000  0.5721180000000 1.0
C      1  0.4985210000000  0.4127190000000  0.5494690000000 1.0
C      1  0.4978410000000  0.5900230000000  0.5071560000000 1.0
END
