TITL C-4164233-775-193 -3.76779712018444 125000 -9434.02086354934 0 0 64 (C1) n - 1
REM
REM in /home/nfs/bkarasulu/CARBON/AIRSS/Generating-Clusters/ReaxFF-fromJPCA2015/Units_Real/with-SteepDescent/Only-C1/SD-CG/Try1-3A/FIRE-CG
REM
REM
REM
REM
REM
REM ./C.cell (11c1c37f851c82e70ff6c80c92926a4b)
REM
REM compiler GCC version 9.2.1 20190827 (Red Hat 9.2.1-1)
REM options -cpp -mtune=generic -march=x86-64 -g -O0 -fpre-include=/usr/include/finclude/math-vector-fortran.h
REM seed -819594090 1652712736 -246089193 1508989321 -1850645374 1717295109 -1715907614 -742388619 942587993 -114496396 -1362379995 1561032259 42444787 869409093 -153564816 -815718017 -1040731902 150025223 -1533445657 -1137158857 2057526686 -680767493 467215558 -1359708542 1995844458 -11019025 -622791324 1346888807 864142086 -1917066443 -1773794503 -604071982 -1543791230
REM
CELL 1.54180   50.00000   50.00000   50.00000   90.00000   90.00000   90.00000
LATT -1
SFAC C  
C      1  0.5285860000000  0.5314760000000  0.5715290000000 1.0
C      1  0.4772220000000  0.4294760000000  0.4877760000000 1.0
C      1  0.4974510000000  0.4345410000000  0.5248290000000 1.0
C      1  0.5283880000000  0.4812360000000  0.4298470000000 1.0
C      1  0.5389730000000  0.4498630000000  0.5139360000000 1.0
C      1  0.5023070000000  0.5402220000000  0.4348250000000 1.0
C      1  0.5297040000000  0.5357530000000  0.4353330000000 1.0
C      1  0.4732270000000  0.4865820000000  0.5083880000000 1.0
C      1  0.4884870000000  0.4717680000000  0.4312930000000 1.0
C      1  0.5097530000000  0.4600160000000  0.5106580000000 1.0
C      1  0.4590490000000  0.5345560000000  0.5181020000000 1.0
C      1  0.4544900000000  0.4751580000000  0.5263180000000 1.0
C      1  0.5414840000000  0.5075610000000  0.4362010000000 1.0
C      1  0.5514760000000  0.4872730000000  0.5556440000000 1.0
C      1  0.5485280000000  0.4768030000000  0.4697820000000 1.0
C      1  0.5045990000000  0.4924200000000  0.4398860000000 1.0
C      1  0.4783040000000  0.5484590000000  0.4439010000000 1.0
C      1  0.4795270000000  0.5655120000000  0.4915310000000 1.0
C      1  0.5317930000000  0.4605910000000  0.4508760000000 1.0
C      1  0.5311640000000  0.5135070000000  0.4998050000000 1.0
C      1  0.4351800000000  0.5183650000000  0.5209650000000 1.0
C      1  0.4905730000000  0.5668590000000  0.4641370000000 1.0
C      1  0.4805740000000  0.4382160000000  0.4614360000000 1.0
C      1  0.5525310000000  0.4951110000000  0.5081380000000 1.0
C      1  0.4741510000000  0.5179480000000  0.5795710000000 1.0
C      1  0.5049900000000  0.5139470000000  0.4881850000000 1.0
C      1  0.4393620000000  0.4596900000000  0.4842590000000 1.0
C      1  0.4417330000000  0.5351390000000  0.4774660000000 1.0
C      1  0.4999760000000  0.4933900000000  0.4690270000000 1.0
C      1  0.5550090000000  0.5045130000000  0.4612930000000 1.0
C      1  0.4557960000000  0.4540090000000  0.4600140000000 1.0
C      1  0.5030360000000  0.4983120000000  0.5486970000000 1.0
C      1  0.5643310000000  0.5399810000000  0.5139510000000 1.0
C      1  0.4560360000000  0.5506340000000  0.4960240000000 1.0
C      1  0.5179070000000  0.5622190000000  0.4754450000000 1.0
C      1  0.4696870000000  0.4297220000000  0.5147950000000 1.0
C      1  0.5386470000000  0.4601410000000  0.5422540000000 1.0
C      1  0.4943670000000  0.5239170000000  0.5354690000000 1.0
C      1  0.4598310000000  0.4757220000000  0.4398120000000 1.0
C      1  0.4538520000000  0.5295660000000  0.4514000000000 1.0
C      1  0.4502890000000  0.5067970000000  0.5653800000000 1.0
C      1  0.5587480000000  0.5317850000000  0.4742690000000 1.0
C      1  0.4911370000000  0.4747030000000  0.4894760000000 1.0
C      1  0.4557950000000  0.5028420000000  0.4453430000000 1.0
C      1  0.5456070000000  0.5382190000000  0.4974160000000 1.0
C      1  0.4484130000000  0.4506940000000  0.5115850000000 1.0
C      1  0.5159350000000  0.4375540000000  0.5471470000000 1.0
C      1  0.4274650000000  0.5141730000000  0.4925640000000 1.0
C      1  0.5618010000000  0.5326010000000  0.5384730000000 1.0
C      1  0.4391770000000  0.4969680000000  0.5403800000000 1.0
C      1  0.4261300000000  0.4859080000000  0.4841370000000 1.0
C      1  0.4809700000000  0.5151810000000  0.5098280000000 1.0
C      1  0.5631540000000  0.5040890000000  0.5347950000000 1.0
C      1  0.5063740000000  0.5603400000000  0.5029200000000 1.0
C      1  0.5041600000000  0.4523460000000  0.4464390000000 1.0
C      1  0.5367330000000  0.5435790000000  0.5448120000000 1.0
C      1  0.5124350000000  0.5453030000000  0.5278800000000 1.0
C      1  0.4870130000000  0.4777930000000  0.5696860000000 1.0
C      1  0.5170600000000  0.4789370000000  0.5332020000000 1.0
C      1  0.5022090000000  0.5253370000000  0.5811440000000 1.0
C      1  0.5394150000000  0.5492580000000  0.4600140000000 1.0
C      1  0.5543950000000  0.4680560000000  0.4972700000000 1.0
C      1  0.5358780000000  0.5040710000000  0.5717890000000 1.0
C      1  0.4976280000000  0.4532930000000  0.5612510000000 1.0
END
