TITL C-4164244-2836-735 5.64130359712341 125000 -24577.8088474105 0 0 166 (C1) n - 1
REM
REM in /home/nfs/bkarasulu/CARBON/AIRSS/Generating-Clusters/ReaxFF-fromJPCA2015/Units_Real/with-SteepDescent/Only-C1/SD-CG/Try1-3A/FIRE-CG
REM
REM
REM
REM
REM
REM ./C.cell (11c1c37f851c82e70ff6c80c92926a4b)
REM
REM compiler GCC version 9.2.1 20190827 (Red Hat 9.2.1-1)
REM options -cpp -mtune=generic -march=x86-64 -g -O0 -fpre-include=/usr/include/finclude/math-vector-fortran.h
REM seed 1448663388 -1141864278 1094010220 -783221535 -97483461 548778357 1906357307 1204159892 2070523129 -203463974 -962006948 -919004219 -2051062279 -483008989 206513005 -251225788 1920012597 464363862 107522643 -1426019729 1876166847 -1837602551 -926660025 735778262 1057233233 -1212563105 -670703095 1125748006 -176586894 -1414482283 -1942257214 1717101140 -2052982201
REM
CELL 1.54180   50.00000   50.00000   50.00000   90.00000   90.00000   90.00000
LATT -1
SFAC C  
C      1  0.5686730000000  0.4227820000000  0.5120820000000 1.0
C      1  0.4429480000000  0.4775870000000  0.5261330000000 1.0
C      1  0.4846000000000  0.4898580000000  0.6175190000000 1.0
C      1  0.4791190000000  0.5050880000000  0.3895040000000 1.0
C      1  0.5192640000000  0.5061390000000  0.3931190000000 1.0
C      1  0.4985680000000  0.5874190000000  0.5643600000000 1.0
C      1  0.4976460000000  0.4391580000000  0.4113890000000 1.0
C      1  0.5664900000000  0.5762590000000  0.5242890000000 1.0
C      1  0.5416140000000  0.4795550000000  0.4360440000000 1.0
C      1  0.4673110000000  0.5652440000000  0.4236410000000 1.0
C      1  0.5093650000000  0.6001240000000  0.4540380000000 1.0
C      1  0.5128120000000  0.5421270000000  0.4124520000000 1.0
C      1  0.4763210000000  0.4002340000000  0.5547770000000 1.0
C      1  0.4135500000000  0.4146750000000  0.5126250000000 1.0
C      1  0.4425270000000  0.4172770000000  0.5093230000000 1.0
C      1  0.5113260000000  0.5390520000000  0.5954360000000 1.0
C      1  0.5371650000000  0.5216840000000  0.5948520000000 1.0
C      1  0.5473290000000  0.6019690000000  0.4862250000000 1.0
C      1  0.5060680000000  0.4755390000000  0.4641530000000 1.0
C      1  0.4801560000000  0.5073930000000  0.5185910000000 1.0
C      1  0.5615120000000  0.5163550000000  0.4724210000000 1.0
C      1  0.5172320000000  0.5026480000000  0.4920260000000 1.0
C      1  0.4764690000000  0.5724930000000  0.4721040000000 1.0
C      1  0.5016960000000  0.3900200000000  0.4656400000000 1.0
C      1  0.5796360000000  0.5500840000000  0.5162780000000 1.0
C      1  0.4725350000000  0.4333750000000  0.5815170000000 1.0
C      1  0.5860400000000  0.4454490000000  0.5232420000000 1.0
C      1  0.5147820000000  0.5437050000000  0.5471690000000 1.0
C      1  0.4861470000000  0.4562620000000  0.4742240000000 1.0
C      1  0.5803130000000  0.4638330000000  0.5450170000000 1.0
C      1  0.4761580000000  0.4346530000000  0.4295640000000 1.0
C      1  0.5129960000000  0.4795940000000  0.6151670000000 1.0
C      1  0.4811790000000  0.3877510000000  0.4870440000000 1.0
C      1  0.4098100000000  0.4342370000000  0.5334720000000 1.0
C      1  0.4051670000000  0.5310850000000  0.4862950000000 1.0
C      1  0.4553710000000  0.4170740000000  0.5636230000000 1.0
C      1  0.5317020000000  0.5086960000000  0.4328990000000 1.0
C      1  0.4569110000000  0.5766430000000  0.4491440000000 1.0
C      1  0.5346120000000  0.5715670000000  0.5924260000000 1.0
C      1  0.4242410000000  0.5114120000000  0.5797280000000 1.0
C      1  0.4907310000000  0.6034730000000  0.5428490000000 1.0
C      1  0.4500570000000  0.5185540000000  0.4844710000000 1.0
C      1  0.4950760000000  0.5009230000000  0.4498250000000 1.0
C      1  0.4741560000000  0.5152680000000  0.5697730000000 1.0
C      1  0.4828220000000  0.4846890000000  0.5030650000000 1.0
C      1  0.5210080000000  0.4271800000000  0.5685690000000 1.0
C      1  0.4300730000000  0.5782860000000  0.4604340000000 1.0
C      1  0.4922950000000  0.5394720000000  0.5704160000000 1.0
C      1  0.4043960000000  0.4995800000000  0.5615110000000 1.0
C      1  0.5267710000000  0.6054550000000  0.5062710000000 1.0
C      1  0.5999270000000  0.5058180000000  0.5223960000000 1.0
C      1  0.4215930000000  0.4390140000000  0.4698980000000 1.0
C      1  0.5485440000000  0.4601190000000  0.5009120000000 1.0
C      1  0.4459990000000  0.5212540000000  0.5593680000000 1.0
C      1  0.5177220000000  0.4768150000000  0.3923360000000 1.0
C      1  0.4894960000000  0.5991230000000  0.4754450000000 1.0
C      1  0.4924290000000  0.4627680000000  0.3953630000000 1.0
C      1  0.4762470000000  0.6106500000000  0.5218800000000 1.0
C      1  0.4198860000000  0.5141700000000  0.4426490000000 1.0
C      1  0.5359260000000  0.5183110000000  0.5498090000000 1.0
C      1  0.4998800000000  0.5544940000000  0.4675460000000 1.0
C      1  0.5370940000000  0.4513500000000  0.5293660000000 1.0
C      1  0.4079730000000  0.4716120000000  0.5577950000000 1.0
C      1  0.5468280000000  0.4605670000000  0.5902860000000 1.0
C      1  0.5268790000000  0.4553930000000  0.4626430000000 1.0
C      1  0.5976830000000  0.4646620000000  0.5023460000000 1.0
C      1  0.5554520000000  0.5235470000000  0.5715700000000 1.0
C      1  0.4980200000000  0.6103880000000  0.5012510000000 1.0
C      1  0.5369930000000  0.5429830000000  0.4919250000000 1.0
C      1  0.6008870000000  0.5282280000000  0.4521260000000 1.0
C      1  0.5930750000000  0.5326410000000  0.5353160000000 1.0
C      1  0.4961670000000  0.5646990000000  0.4203310000000 1.0
C      1  0.4699790000000  0.4077090000000  0.5049300000000 1.0
C      1  0.5686860000000  0.4575440000000  0.5727060000000 1.0
C      1  0.5289920000000  0.4429190000000  0.4889360000000 1.0
C      1  0.5698060000000  0.5855120000000  0.4950240000000 1.0
C      1  0.5105110000000  0.5725150000000  0.4448330000000 1.0
C      1  0.4677410000000  0.4902930000000  0.4500020000000 1.0
C      1  0.5656650000000  0.4883050000000  0.4208520000000 1.0
C      1  0.5774810000000  0.5396350000000  0.5600240000000 1.0
C      1  0.4629330000000  0.4583220000000  0.5706660000000 1.0
C      1  0.5355120000000  0.4283690000000  0.4445170000000 1.0
C      1  0.5792350000000  0.4560390000000  0.4565040000000 1.0
C      1  0.5530210000000  0.5829260000000  0.4374890000000 1.0
C      1  0.5463670000000  0.4099150000000  0.5261950000000 1.0
C      1  0.4984680000000  0.3866970000000  0.5441690000000 1.0
C      1  0.5786150000000  0.4922910000000  0.5371490000000 1.0
C      1  0.5710660000000  0.5674460000000  0.5540340000000 1.0
C      1  0.4817270000000  0.4596570000000  0.5017130000000 1.0
C      1  0.4434190000000  0.4727430000000  0.4981270000000 1.0
C      1  0.4057040000000  0.5107540000000  0.5332190000000 1.0
C      1  0.4960830000000  0.5186860000000  0.4083290000000 1.0
C      1  0.3984460000000  0.4852760000000  0.4862260000000 1.0
C      1  0.5582040000000  0.5554840000000  0.4286170000000 1.0
C      1  0.4393490000000  0.5068420000000  0.5315520000000 1.0
C      1  0.4661900000000  0.5033290000000  0.5996470000000 1.0
C      1  0.5358940000000  0.4137280000000  0.4847290000000 1.0
C      1  0.5819960000000  0.4828700000000  0.4444940000000 1.0
C      1  0.5246990000000  0.4051950000000  0.4595640000000 1.0
C      1  0.5335330000000  0.5383750000000  0.4329080000000 1.0
C      1  0.5542670000000  0.5066730000000  0.5254900000000 1.0
C      1  0.5065780000000  0.5441250000000  0.5189820000000 1.0
C      1  0.4722780000000  0.4352960000000  0.4589150000000 1.0
C      1  0.5459060000000  0.5074890000000  0.4065780000000 1.0
C      1  0.4702820000000  0.4803800000000  0.3994870000000 1.0
C      1  0.4498360000000  0.4477070000000  0.4274650000000 1.0
C      1  0.4533220000000  0.4773760000000  0.4239420000000 1.0
C      1  0.5899310000000  0.5034930000000  0.4664930000000 1.0
C      1  0.4593940000000  0.5359160000000  0.4641930000000 1.0
C      1  0.4531270000000  0.5901110000000  0.5288360000000 1.0
C      1  0.5156380000000  0.4004420000000  0.5194320000000 1.0
C      1  0.5408380000000  0.4264970000000  0.5489030000000 1.0
C      1  0.4071810000000  0.5517630000000  0.5038650000000 1.0
C      1  0.4526260000000  0.4917130000000  0.4752340000000 1.0
C      1  0.4012460000000  0.4608420000000  0.4688900000000 1.0
C      1  0.5532160000000  0.5448750000000  0.4681720000000 1.0
C      1  0.5482100000000  0.5774430000000  0.5688750000000 1.0
C      1  0.5212850000000  0.4544440000000  0.6004220000000 1.0
C      1  0.5332670000000  0.4633230000000  0.4128730000000 1.0
C      1  0.5025910000000  0.4329230000000  0.5873440000000 1.0
C      1  0.5326750000000  0.5806630000000  0.5219520000000 1.0
C      1  0.4877720000000  0.5283310000000  0.4600030000000 1.0
C      1  0.5083680000000  0.5669940000000  0.5971930000000 1.0
C      1  0.5589660000000  0.5301480000000  0.5066940000000 1.0
C      1  0.5653330000000  0.4170570000000  0.4827670000000 1.0
C      1  0.5275820000000  0.4722980000000  0.5416770000000 1.0
C      1  0.4540360000000  0.5210970000000  0.5117580000000 1.0
C      1  0.4876800000000  0.4951000000000  0.5508450000000 1.0
C      1  0.5869860000000  0.5459590000000  0.4342430000000 1.0
C      1  0.3978200000000  0.4621360000000  0.5325140000000 1.0
C      1  0.4365360000000  0.5834910000000  0.5087740000000 1.0
C      1  0.5387390000000  0.4983550000000  0.4747300000000 1.0
C      1  0.4887920000000  0.4478790000000  0.5275820000000 1.0
C      1  0.4440850000000  0.4397480000000  0.4541150000000 1.0
C      1  0.5747340000000  0.5651560000000  0.4744430000000 1.0
C      1  0.5980150000000  0.5565860000000  0.4593150000000 1.0
C      1  0.4779010000000  0.5665430000000  0.5689770000000 1.0
C      1  0.6003530000000  0.4929830000000  0.4963300000000 1.0
C      1  0.4820210000000  0.4655080000000  0.5502130000000 1.0
C      1  0.4371690000000  0.4603000000000  0.5531290000000 1.0
C      1  0.5094060000000  0.3843540000000  0.4937440000000 1.0
C      1  0.4423730000000  0.5323090000000  0.4402890000000 1.0
C      1  0.4922690000000  0.4201080000000  0.5193570000000 1.0
C      1  0.4550830000000  0.5689170000000  0.5506130000000 1.0
C      1  0.5240730000000  0.5726080000000  0.5500930000000 1.0
C      1  0.4673270000000  0.5282260000000  0.3969330000000 1.0
C      1  0.4132500000000  0.5404690000000  0.5306890000000 1.0
C      1  0.5750810000000  0.4576450000000  0.4855780000000 1.0
C      1  0.3974250000000  0.4858300000000  0.5147740000000 1.0
C      1  0.5390030000000  0.6005720000000  0.4566960000000 1.0
C      1  0.4201350000000  0.5769480000000  0.4889420000000 1.0
C      1  0.4386490000000  0.5018340000000  0.6011340000000 1.0
C      1  0.4059420000000  0.4753140000000  0.4451510000000 1.0
C      1  0.5326350000000  0.4949770000000  0.6022380000000 1.0
C      1  0.4235280000000  0.4893130000000  0.4283580000000 1.0
C      1  0.4534150000000  0.5421420000000  0.4157910000000 1.0
C      1  0.5652650000000  0.4303150000000  0.4566220000000 1.0
C      1  0.4354340000000  0.5477880000000  0.5481550000000 1.0
C      1  0.5394070000000  0.4887180000000  0.5040280000000 1.0
C      1  0.4239320000000  0.4184270000000  0.4878650000000 1.0
C      1  0.5188590000000  0.5626210000000  0.5015760000000 1.0
C      1  0.5004890000000  0.5207690000000  0.5045010000000 1.0
C      1  0.4032110000000  0.5109600000000  0.4692150000000 1.0
C      1  0.5252700000000  0.4368150000000  0.4186410000000 1.0
C      1  0.5180170000000  0.4933600000000  0.5540540000000 1.0
C      1  0.4351680000000  0.4325430000000  0.5468680000000 1.0
END
