TITL C-4164236-1577-650 5.50951540619039 125000 -19511.0151904495 0 0 130 (C1) n - 1
REM
REM in /home/nfs/bkarasulu/CARBON/AIRSS/Generating-Clusters/ReaxFF-fromJPCA2015/Units_Real/with-SteepDescent/Only-C1/SD-CG/Try1-3A/FIRE-CG
REM
REM
REM
REM
REM
REM ./C.cell (11c1c37f851c82e70ff6c80c92926a4b)
REM
REM compiler GCC version 9.2.1 20190827 (Red Hat 9.2.1-1)
REM options -cpp -mtune=generic -march=x86-64 -g -O0 -fpre-include=/usr/include/finclude/math-vector-fortran.h
REM seed 870573678 1583693866 1795128253 -1826614552 -58962442 -1075357459 -1272868594 -735564093 1531388770 1788479188 572541984 255498625 -1499629733 -2132409842 -2091580738 -1665154317 158231259 -2051976193 -1447753114 1979092262 -1673459906 924046603 -190143082 777914476 1609971719 -266202263 1140405865 1847563133 102609838 1147901053 208332718 -600624168 1572220718
REM
CELL 1.54180   50.00000   50.00000   50.00000   90.00000   90.00000   90.00000
LATT -1
SFAC C  
C      1  0.5055200000000  0.4851290000000  0.4372160000000 1.0
C      1  0.4632020000000  0.4782110000000  0.5285120000000 1.0
C      1  0.4005390000000  0.4832310000000  0.5370260000000 1.0
C      1  0.5492010000000  0.5734900000000  0.5281510000000 1.0
C      1  0.5581990000000  0.5515490000000  0.4862350000000 1.0
C      1  0.4700560000000  0.5020180000000  0.5449550000000 1.0
C      1  0.5533290000000  0.4268010000000  0.5188970000000 1.0
C      1  0.5081210000000  0.4701390000000  0.5356640000000 1.0
C      1  0.4840840000000  0.4236360000000  0.4781550000000 1.0
C      1  0.4053310000000  0.5084140000000  0.5515230000000 1.0
C      1  0.5390800000000  0.4440480000000  0.4382260000000 1.0
C      1  0.4892750000000  0.5076900000000  0.4397480000000 1.0
C      1  0.4817720000000  0.5594640000000  0.5691010000000 1.0
C      1  0.5185450000000  0.5022870000000  0.4957880000000 1.0
C      1  0.4616500000000  0.5206640000000  0.4798080000000 1.0
C      1  0.5287760000000  0.4064130000000  0.4754950000000 1.0
C      1  0.4833190000000  0.5460340000000  0.4187870000000 1.0
C      1  0.5487350000000  0.5271310000000  0.4728000000000 1.0
C      1  0.5625580000000  0.4335590000000  0.4920640000000 1.0
C      1  0.5495220000000  0.5133350000000  0.5569980000000 1.0
C      1  0.5126270000000  0.5310640000000  0.5846600000000 1.0
C      1  0.4776380000000  0.4346220000000  0.5054980000000 1.0
C      1  0.5125130000000  0.5791810000000  0.4616190000000 1.0
C      1  0.4733800000000  0.4323220000000  0.4528990000000 1.0
C      1  0.5031320000000  0.4999730000000  0.5430470000000 1.0
C      1  0.5352540000000  0.4709610000000  0.5274590000000 1.0
C      1  0.5550540000000  0.4761690000000  0.5964510000000 1.0
C      1  0.4075090000000  0.5114480000000  0.4462970000000 1.0
C      1  0.5970760000000  0.5180690000000  0.4567730000000 1.0
C      1  0.5288200000000  0.4992650000000  0.4010450000000 1.0
C      1  0.5732860000000  0.5553830000000  0.5333390000000 1.0
C      1  0.4834590000000  0.5331970000000  0.5821780000000 1.0
C      1  0.5868260000000  0.4609060000000  0.5205340000000 1.0
C      1  0.5029290000000  0.4016350000000  0.4790360000000 1.0
C      1  0.3901440000000  0.5570970000000  0.5319510000000 1.0
C      1  0.4524310000000  0.4200580000000  0.5056820000000 1.0
C      1  0.5819800000000  0.4884690000000  0.5262460000000 1.0
C      1  0.5534860000000  0.4865400000000  0.4092410000000 1.0
C      1  0.5834110000000  0.4531610000000  0.4921760000000 1.0
C      1  0.5485150000000  0.4314720000000  0.5820280000000 1.0
C      1  0.4852120000000  0.4339370000000  0.5656210000000 1.0
C      1  0.4775210000000  0.5898050000000  0.5124270000000 1.0
C      1  0.4546690000000  0.4452590000000  0.5683260000000 1.0
C      1  0.5673700000000  0.5371550000000  0.5558910000000 1.0
C      1  0.4702260000000  0.5079110000000  0.5744290000000 1.0
C      1  0.4826260000000  0.5389160000000  0.4730190000000 1.0
C      1  0.5569790000000  0.5337430000000  0.4181360000000 1.0
C      1  0.5586360000000  0.5233800000000  0.4983170000000 1.0
C      1  0.5577180000000  0.4649280000000  0.4289970000000 1.0
C      1  0.4263770000000  0.5187930000000  0.5682620000000 1.0
C      1  0.5907220000000  0.5443580000000  0.5118550000000 1.0
C      1  0.4403790000000  0.5415250000000  0.5557850000000 1.0
C      1  0.5904410000000  0.4999760000000  0.4342380000000 1.0
C      1  0.4245640000000  0.4961510000000  0.4944660000000 1.0
C      1  0.5239670000000  0.5168290000000  0.4709340000000 1.0
C      1  0.4286320000000  0.4954440000000  0.4310270000000 1.0
C      1  0.5086560000000  0.5147110000000  0.5186270000000 1.0
C      1  0.4567000000000  0.5845230000000  0.5323780000000 1.0
C      1  0.5865980000000  0.5453600000000  0.4586240000000 1.0
C      1  0.4684580000000  0.5613770000000  0.4383390000000 1.0
C      1  0.4487150000000  0.4716000000000  0.5756360000000 1.0
C      1  0.5446990000000  0.5746830000000  0.5002350000000 1.0
C      1  0.5095140000000  0.4546520000000  0.6073760000000 1.0
C      1  0.4840070000000  0.4588290000000  0.5227200000000 1.0
C      1  0.4517870000000  0.5298340000000  0.5332020000000 1.0
C      1  0.4930780000000  0.4452820000000  0.5867830000000 1.0
C      1  0.4247740000000  0.5375760000000  0.5138190000000 1.0
C      1  0.5029210000000  0.5280380000000  0.4539460000000 1.0
C      1  0.5729210000000  0.4397400000000  0.5364070000000 1.0
C      1  0.5718590000000  0.5089750000000  0.4139700000000 1.0
C      1  0.4130430000000  0.4494050000000  0.5062060000000 1.0
C      1  0.5322890000000  0.4762560000000  0.4989230000000 1.0
C      1  0.4730640000000  0.5149910000000  0.4160760000000 1.0
C      1  0.5963890000000  0.5003530000000  0.4795710000000 1.0
C      1  0.5350830000000  0.5662150000000  0.4484410000000 1.0
C      1  0.4652930000000  0.4640460000000  0.4176870000000 1.0
C      1  0.4001320000000  0.5288550000000  0.5300370000000 1.0
C      1  0.4309430000000  0.4383540000000  0.5508590000000 1.0
C      1  0.4550990000000  0.4576720000000  0.4591990000000 1.0
C      1  0.4433330000000  0.4985770000000  0.5827550000000 1.0
C      1  0.4327850000000  0.5246670000000  0.4851650000000 1.0
C      1  0.4413740000000  0.4688010000000  0.4334520000000 1.0
C      1  0.4778920000000  0.4743170000000  0.4737110000000 1.0
C      1  0.4264620000000  0.4314340000000  0.4897070000000 1.0
C      1  0.4419280000000  0.5873500000000  0.4919800000000 1.0
C      1  0.4844250000000  0.4407340000000  0.4280450000000 1.0
C      1  0.4782350000000  0.4859130000000  0.4046210000000 1.0
C      1  0.5216570000000  0.5864700000000  0.4890730000000 1.0
C      1  0.5894400000000  0.5558080000000  0.4853230000000 1.0
C      1  0.4290600000000  0.4508470000000  0.4700670000000 1.0
C      1  0.5260700000000  0.4586510000000  0.4766630000000 1.0
C      1  0.5227750000000  0.5790690000000  0.5386480000000 1.0
C      1  0.4462450000000  0.4256020000000  0.5320670000000 1.0
C      1  0.4220110000000  0.5352140000000  0.4571520000000 1.0
C      1  0.4427780000000  0.5448210000000  0.4385970000000 1.0
C      1  0.5219650000000  0.5125280000000  0.5646170000000 1.0
C      1  0.4115570000000  0.4559740000000  0.5337400000000 1.0
C      1  0.4728760000000  0.5419730000000  0.5239890000000 1.0
C      1  0.5410660000000  0.4532210000000  0.6014530000000 1.0
C      1  0.4311480000000  0.5884790000000  0.5176810000000 1.0
C      1  0.5125810000000  0.4419860000000  0.4308470000000 1.0
C      1  0.5893310000000  0.4736350000000  0.4716520000000 1.0
C      1  0.5037090000000  0.4697930000000  0.4618480000000 1.0
C      1  0.5698550000000  0.4428640000000  0.5651050000000 1.0
C      1  0.5853220000000  0.5114880000000  0.5060340000000 1.0
C      1  0.4494510000000  0.4827720000000  0.5026180000000 1.0
C      1  0.5600350000000  0.5509000000000  0.4425730000000 1.0
C      1  0.5084370000000  0.4179740000000  0.5484990000000 1.0
C      1  0.4123840000000  0.5653940000000  0.5128090000000 1.0
C      1  0.4821910000000  0.5779470000000  0.4583390000000 1.0
C      1  0.5064380000000  0.5856490000000  0.5145940000000 1.0
C      1  0.5672400000000  0.4709500000000  0.5721160000000 1.0
C      1  0.5065510000000  0.4815050000000  0.4074750000000 1.0
C      1  0.5258320000000  0.4237660000000  0.5674450000000 1.0
C      1  0.4969730000000  0.5404690000000  0.5179340000000 1.0
C      1  0.5109900000000  0.5436530000000  0.4245340000000 1.0
C      1  0.5818870000000  0.4736030000000  0.4431090000000 1.0
C      1  0.5584170000000  0.4862990000000  0.5440460000000 1.0
C      1  0.5197880000000  0.3985850000000  0.5015440000000 1.0
C      1  0.4570790000000  0.5661000000000  0.5563580000000 1.0
C      1  0.4949340000000  0.5515710000000  0.4944030000000 1.0
C      1  0.5262900000000  0.4152600000000  0.5246740000000 1.0
C      1  0.5415200000000  0.4324860000000  0.4697920000000 1.0
C      1  0.3982720000000  0.4884770000000  0.5065110000000 1.0
C      1  0.4679680000000  0.5881900000000  0.4825900000000 1.0
C      1  0.5302070000000  0.5282020000000  0.4088320000000 1.0
C      1  0.5259600000000  0.5589990000000  0.5853540000000 1.0
C      1  0.4435780000000  0.5199480000000  0.4237470000000 1.0
C      1  0.5098260000000  0.5720910000000  0.5644600000000 1.0
C      1  0.4695300000000  0.4953210000000  0.4875480000000 1.0
END
