TITL C-4164242-3624-594 6.87717469218391 125000 -17773.6113113151 0 0 118 (C1) n - 1
REM
REM in /home/nfs/bkarasulu/CARBON/AIRSS/Generating-Clusters/ReaxFF-fromJPCA2015/Units_Real/with-SteepDescent/Only-C1/SD-CG/Try1-3A/FIRE-CG
REM
REM
REM
REM
REM
REM ./C.cell (11c1c37f851c82e70ff6c80c92926a4b)
REM
REM compiler GCC version 9.2.1 20190827 (Red Hat 9.2.1-1)
REM options -cpp -mtune=generic -march=x86-64 -g -O0 -fpre-include=/usr/include/finclude/math-vector-fortran.h
REM seed 423806347 885966683 561742695 -1178063013 -131307300 -933972475 1938892837 -875702228 559185893 439790064 -904714700 31527511 745128905 -1659606342 -862656262 -1086270208 -775175013 689456701 -722965434 -109851304 -1028055570 1403519248 121522600 1660425701 -301059798 -761510210 463821289 2002802598 -1802090352 671074240 -597854390 -694617730 -1327260230
REM
CELL 1.54180   50.00000   50.00000   50.00000   90.00000   90.00000   90.00000
LATT -1
SFAC C  
C      1  0.5372120000000  0.5512280000000  0.5207800000000 1.0
C      1  0.4644360000000  0.5507160000000  0.5368500000000 1.0
C      1  0.4586280000000  0.4993610000000  0.5309030000000 1.0
C      1  0.4490170000000  0.5497860000000  0.4765500000000 1.0
C      1  0.4522780000000  0.5817410000000  0.5114440000000 1.0
C      1  0.4986570000000  0.4091640000000  0.4991160000000 1.0
C      1  0.5361250000000  0.5871260000000  0.4708200000000 1.0
C      1  0.5028820000000  0.5474800000000  0.5681890000000 1.0
C      1  0.4994950000000  0.4930820000000  0.5619790000000 1.0
C      1  0.5259730000000  0.4393810000000  0.4364450000000 1.0
C      1  0.4624510000000  0.4382630000000  0.4596490000000 1.0
C      1  0.4992820000000  0.5923200000000  0.5000810000000 1.0
C      1  0.4334610000000  0.5689500000000  0.4963040000000 1.0
C      1  0.4370120000000  0.5277740000000  0.4382170000000 1.0
C      1  0.4241940000000  0.4314450000000  0.4915910000000 1.0
C      1  0.4297780000000  0.5261170000000  0.4687170000000 1.0
C      1  0.4779140000000  0.4385180000000  0.4354500000000 1.0
C      1  0.4797810000000  0.4914690000000  0.4356240000000 1.0
C      1  0.5091300000000  0.4553090000000  0.4805950000000 1.0
C      1  0.4106680000000  0.4553070000000  0.5066390000000 1.0
C      1  0.4879200000000  0.4917550000000  0.4897070000000 1.0
C      1  0.4886480000000  0.5359230000000  0.5454950000000 1.0
C      1  0.5925210000000  0.5225320000000  0.4853280000000 1.0
C      1  0.5318400000000  0.5241430000000  0.4470370000000 1.0
C      1  0.5457910000000  0.4283890000000  0.5068110000000 1.0
C      1  0.4607620000000  0.4667910000000  0.5272590000000 1.0
C      1  0.4243450000000  0.4676110000000  0.4580010000000 1.0
C      1  0.5063660000000  0.5944670000000  0.4735710000000 1.0
C      1  0.5218950000000  0.5199280000000  0.3962710000000 1.0
C      1  0.5574400000000  0.5024940000000  0.4741380000000 1.0
C      1  0.5463290000000  0.4840020000000  0.4235350000000 1.0
C      1  0.5006560000000  0.5880360000000  0.5258010000000 1.0
C      1  0.5226540000000  0.4474900000000  0.5830730000000 1.0
C      1  0.5489880000000  0.5879340000000  0.4957120000000 1.0
C      1  0.4966360000000  0.5064580000000  0.5902770000000 1.0
C      1  0.5034490000000  0.4707510000000  0.4044100000000 1.0
C      1  0.4798590000000  0.4507110000000  0.4804300000000 1.0
C      1  0.4698860000000  0.4217600000000  0.5436080000000 1.0
C      1  0.5737820000000  0.5257530000000  0.4645590000000 1.0
C      1  0.5198480000000  0.4180110000000  0.5454560000000 1.0
C      1  0.4941670000000  0.4196900000000  0.5594910000000 1.0
C      1  0.4925790000000  0.5002230000000  0.4601890000000 1.0
C      1  0.4047480000000  0.5085560000000  0.5112400000000 1.0
C      1  0.4583690000000  0.4480180000000  0.5496610000000 1.0
C      1  0.4812550000000  0.5094670000000  0.4124580000000 1.0
C      1  0.4336610000000  0.4924810000000  0.4768450000000 1.0
C      1  0.4842180000000  0.5833920000000  0.4564070000000 1.0
C      1  0.5018470000000  0.4235030000000  0.4439940000000 1.0
C      1  0.4469900000000  0.4790840000000  0.4131330000000 1.0
C      1  0.5377290000000  0.4337690000000  0.5623460000000 1.0
C      1  0.5916900000000  0.5107830000000  0.5244900000000 1.0
C      1  0.5300390000000  0.5556390000000  0.5605670000000 1.0
C      1  0.4410650000000  0.4112940000000  0.5032480000000 1.0
C      1  0.5418600000000  0.4965870000000  0.4498970000000 1.0
C      1  0.4577400000000  0.4801710000000  0.5807800000000 1.0
C      1  0.4328110000000  0.4403140000000  0.4639580000000 1.0
C      1  0.4842010000000  0.5340700000000  0.5866960000000 1.0
C      1  0.4123880000000  0.4826850000000  0.4993070000000 1.0
C      1  0.4305710000000  0.4657340000000  0.4316250000000 1.0
C      1  0.4688310000000  0.4552890000000  0.5777080000000 1.0
C      1  0.4585130000000  0.5469250000000  0.4305210000000 1.0
C      1  0.4811330000000  0.5384490000000  0.4142950000000 1.0
C      1  0.5254470000000  0.5633660000000  0.4253990000000 1.0
C      1  0.4685790000000  0.4491330000000  0.5077960000000 1.0
C      1  0.5515450000000  0.5945730000000  0.5233070000000 1.0
C      1  0.5700990000000  0.4966070000000  0.5389620000000 1.0
C      1  0.5096390000000  0.5453790000000  0.4086140000000 1.0
C      1  0.5020670000000  0.5374370000000  0.4869760000000 1.0
C      1  0.5537470000000  0.5432640000000  0.4499350000000 1.0
C      1  0.4609040000000  0.4907800000000  0.4852850000000 1.0
C      1  0.4199620000000  0.5424880000000  0.5406180000000 1.0
C      1  0.5722310000000  0.4725830000000  0.5594280000000 1.0
C      1  0.5275110000000  0.4614120000000  0.4172220000000 1.0
C      1  0.5057020000000  0.5264990000000  0.4601890000000 1.0
C      1  0.5324050000000  0.4459020000000  0.4642200000000 1.0
C      1  0.5602490000000  0.4471690000000  0.5228670000000 1.0
C      1  0.5075850000000  0.4724130000000  0.5031800000000 1.0
C      1  0.5983710000000  0.4695780000000  0.4921790000000 1.0
C      1  0.5319040000000  0.4761670000000  0.5850330000000 1.0
C      1  0.5549180000000  0.4358170000000  0.4802560000000 1.0
C      1  0.4719810000000  0.5834600000000  0.5298210000000 1.0
C      1  0.5472400000000  0.5062170000000  0.4032550000000 1.0
C      1  0.6003370000000  0.4989250000000  0.4994170000000 1.0
C      1  0.5166510000000  0.4950730000000  0.6066220000000 1.0
C      1  0.4557050000000  0.5326380000000  0.5792890000000 1.0
C      1  0.5860200000000  0.4500920000000  0.5090330000000 1.0
C      1  0.5275020000000  0.5730870000000  0.5360190000000 1.0
C      1  0.4133300000000  0.5142950000000  0.5392980000000 1.0
C      1  0.5285560000000  0.4728560000000  0.5249070000000 1.0
C      1  0.5005140000000  0.4133840000000  0.4719150000000 1.0
C      1  0.5425180000000  0.5091810000000  0.4987640000000 1.0
C      1  0.4729440000000  0.5369070000000  0.4930850000000 1.0
C      1  0.5652850000000  0.5569120000000  0.5168450000000 1.0
C      1  0.4846690000000  0.5078570000000  0.5420670000000 1.0
C      1  0.5440670000000  0.5708400000000  0.4472490000000 1.0
C      1  0.4440250000000  0.5044350000000  0.5786190000000 1.0
C      1  0.5596700000000  0.4878300000000  0.5803170000000 1.0
C      1  0.5560880000000  0.5411120000000  0.5638060000000 1.0
C      1  0.4159010000000  0.5507400000000  0.5117390000000 1.0
C      1  0.5629420000000  0.5129520000000  0.5662860000000 1.0
C      1  0.5228920000000  0.4818660000000  0.5523740000000 1.0
C      1  0.5883870000000  0.5388940000000  0.5223640000000 1.0
C      1  0.5257510000000  0.5324060000000  0.5033300000000 1.0
C      1  0.4106950000000  0.5300160000000  0.4921120000000 1.0
C      1  0.5216740000000  0.4156580000000  0.5163990000000 1.0
C      1  0.5464470000000  0.4936770000000  0.5214450000000 1.0
C      1  0.4619310000000  0.5658600000000  0.4524940000000 1.0
C      1  0.5814410000000  0.4484810000000  0.4804510000000 1.0
C      1  0.4396440000000  0.5044760000000  0.4232320000000 1.0
C      1  0.4778120000000  0.4648930000000  0.4199010000000 1.0
C      1  0.4949720000000  0.4399620000000  0.5805760000000 1.0
C      1  0.4591930000000  0.5278750000000  0.5161860000000 1.0
C      1  0.5019610000000  0.4981590000000  0.3951830000000 1.0
C      1  0.5752940000000  0.5519860000000  0.5444600000000 1.0
C      1  0.5609810000000  0.4472750000000  0.5512450000000 1.0
C      1  0.4351540000000  0.4990180000000  0.5510120000000 1.0
C      1  0.4697780000000  0.4167480000000  0.5139370000000 1.0
C      1  0.4427930000000  0.5477950000000  0.5581970000000 1.0
END
