TITL C-4164236-1577-412 1.00762655456529 125000 -9348.33109150797 0 0 63 (C1) n - 1
REM
REM in /home/nfs/bkarasulu/CARBON/AIRSS/Generating-Clusters/ReaxFF-fromJPCA2015/Units_Real/with-SteepDescent/Only-C1/SD-CG/Try1-3A/FIRE-CG
REM
REM
REM
REM
REM
REM ./C.cell (11c1c37f851c82e70ff6c80c92926a4b)
REM
REM compiler GCC version 9.2.1 20190827 (Red Hat 9.2.1-1)
REM options -cpp -mtune=generic -march=x86-64 -g -O0 -fpre-include=/usr/include/finclude/math-vector-fortran.h
REM seed -1285306103 -492049170 -561917869 2097343433 -1290702813 1057009949 -1339293236 -1485472 1163090675 194489284 154089474 -842161090 256459065 -1327793724 1079467301 -488447208 -63855167 1851695093 909868427 975568102 1838896057 -638642803 681675465 -790038131 689134503 94755861 -1569573976 1756323342 281339730 1326556739 -721157369 -1710863086 1247607208
REM
CELL 1.54180   50.00000   50.00000   50.00000   90.00000   90.00000   90.00000
LATT -1
SFAC C  
C      1  0.5065410000000  0.4542890000000  0.5192260000000 1.0
C      1  0.5209390000000  0.5253120000000  0.4752230000000 1.0
C      1  0.5569920000000  0.4678110000000  0.4674890000000 1.0
C      1  0.4647680000000  0.5234060000000  0.4535610000000 1.0
C      1  0.5744180000000  0.4788810000000  0.5090110000000 1.0
C      1  0.4463000000000  0.5452700000000  0.5233590000000 1.0
C      1  0.4851510000000  0.4512830000000  0.4542100000000 1.0
C      1  0.5613070000000  0.5217190000000  0.5395720000000 1.0
C      1  0.5292780000000  0.4664670000000  0.5625020000000 1.0
C      1  0.4287040000000  0.4985020000000  0.4723500000000 1.0
C      1  0.4738600000000  0.5368750000000  0.5296700000000 1.0
C      1  0.4687320000000  0.4916900000000  0.5333810000000 1.0
C      1  0.5004180000000  0.4690270000000  0.4699470000000 1.0
C      1  0.4838860000000  0.4789380000000  0.5757320000000 1.0
C      1  0.5388520000000  0.5441470000000  0.4608880000000 1.0
C      1  0.5123910000000  0.4243320000000  0.5134380000000 1.0
C      1  0.5109850000000  0.5154560000000  0.5577690000000 1.0
C      1  0.4818510000000  0.4496400000000  0.5696670000000 1.0
C      1  0.4120960000000  0.4791800000000  0.5131780000000 1.0
C      1  0.5113990000000  0.4891130000000  0.5710970000000 1.0
C      1  0.4830160000000  0.5246840000000  0.5036360000000 1.0
C      1  0.4612840000000  0.4693950000000  0.4567110000000 1.0
C      1  0.4826260000000  0.5242920000000  0.5544710000000 1.0
C      1  0.4938340000000  0.5576510000000  0.4410500000000 1.0
C      1  0.5322310000000  0.5280340000000  0.5427850000000 1.0
C      1  0.4826770000000  0.5321260000000  0.4339370000000 1.0
C      1  0.5205960000000  0.5467760000000  0.4363190000000 1.0
C      1  0.5185300000000  0.5045230000000  0.4533050000000 1.0
C      1  0.4977290000000  0.4889640000000  0.4533460000000 1.0
C      1  0.4517190000000  0.4975820000000  0.4551000000000 1.0
C      1  0.4665950000000  0.5406600000000  0.4777140000000 1.0
C      1  0.5311000000000  0.4633140000000  0.5329420000000 1.0
C      1  0.4882790000000  0.4316120000000  0.4758970000000 1.0
C      1  0.5373170000000  0.5691410000000  0.4805640000000 1.0
C      1  0.4093900000000  0.5098340000000  0.5138690000000 1.0
C      1  0.4475440000000  0.4554220000000  0.4783040000000 1.0
C      1  0.5099010000000  0.4478330000000  0.5715840000000 1.0
C      1  0.5711510000000  0.5267170000000  0.4928060000000 1.0
C      1  0.4211840000000  0.5218890000000  0.4884350000000 1.0
C      1  0.5607790000000  0.5201270000000  0.4660660000000 1.0
C      1  0.5408440000000  0.4510300000000  0.4862800000000 1.0
C      1  0.5105700000000  0.5282210000000  0.5003230000000 1.0
C      1  0.5233490000000  0.5436710000000  0.5195260000000 1.0
C      1  0.5083790000000  0.5207670000000  0.4302420000000 1.0
C      1  0.5176470000000  0.4307460000000  0.4851490000000 1.0
C      1  0.4689460000000  0.4392200000000  0.5436920000000 1.0
C      1  0.4640380000000  0.4355480000000  0.4919580000000 1.0
C      1  0.4861290000000  0.5650890000000  0.4687990000000 1.0
C      1  0.5098390000000  0.5712530000000  0.4812090000000 1.0
C      1  0.4250400000000  0.4730110000000  0.4873610000000 1.0
C      1  0.5717520000000  0.5079410000000  0.5149940000000 1.0
C      1  0.5506900000000  0.4606730000000  0.5117710000000 1.0
C      1  0.4674660000000  0.4984670000000  0.5601840000000 1.0
C      1  0.5760740000000  0.5473040000000  0.5336580000000 1.0
C      1  0.5392580000000  0.5642330000000  0.5081260000000 1.0
C      1  0.5670430000000  0.5536920000000  0.5053700000000 1.0
C      1  0.4413640000000  0.5424510000000  0.4939580000000 1.0
C      1  0.4642160000000  0.4352830000000  0.5219950000000 1.0
C      1  0.4954250000000  0.4720890000000  0.4985190000000 1.0
C      1  0.5503910000000  0.4946080000000  0.4587510000000 1.0
C      1  0.4774280000000  0.4928390000000  0.5073230000000 1.0
C      1  0.5838630000000  0.4712570000000  0.4818680000000 1.0
C      1  0.4238960000000  0.5286960000000  0.5288330000000 1.0
END
