TITL C-4164241-3639-61 172.00601949915 125000 -27554.9943471717 0 0 188 (C1) n - 1
REM
REM in /home/nfs/bkarasulu/CARBON/AIRSS/Generating-Clusters/ReaxFF-fromJPCA2015/Units_Real/with-SteepDescent/Only-C1/SD-CG/Try1-3A/FIRE-CG
REM
REM
REM
REM
REM
REM ./C.cell (11c1c37f851c82e70ff6c80c92926a4b)
REM
REM compiler GCC version 9.2.1 20190827 (Red Hat 9.2.1-1)
REM options -cpp -mtune=generic -march=x86-64 -g -O0 -fpre-include=/usr/include/finclude/math-vector-fortran.h
REM seed 2008759460 1743828315 1150468557 -753689816 -723519376 1975651761 51535489 1889407068 605850988 -40654165 -1440469074 -1531587822 -1379511772 -1546984090 -1141822415 -1273123396 -1252670213 282068626 -197063130 1362133036 -336641598 -796473166 -86017118 -2069245795 1835746123 1510177576 -774608885 -281148020 -519480328 1747091063 971972080 343066729 -1130714867
REM
CELL 1.54180   50.00000   50.00000   50.00000   90.00000   90.00000   90.00000
LATT -1
SFAC C  
C      1  0.4225750000000  0.4879880000000  0.4386640000000 1.0
C      1  0.4871160000000  0.4004920000000  0.5292680000000 1.0
C      1  0.5234440000000  0.4702300000000  0.4823710000000 1.0
C      1  0.5000560000000  0.4533650000000  0.4438240000000 1.0
C      1  0.5103250000000  0.5719610000000  0.4153270000000 1.0
C      1  0.5459960000000  0.4224370000000  0.5746990000000 1.0
C      1  0.5019610000000  0.4272330000000  0.5997270000000 1.0
C      1  0.5643520000000  0.4985520000000  0.4327080000000 1.0
C      1  0.5973280000000  0.4278670000000  0.4425760000000 1.0
C      1  0.4459700000000  0.5081770000000  0.5949320000000 1.0
C      1  0.4088340000000  0.4463330000000  0.4901280000000 1.0
C      1  0.5427580000000  0.4252360000000  0.4499300000000 1.0
C      1  0.4196550000000  0.5728480000000  0.5355990000000 1.0
C      1  0.4839500000000  0.5027430000000  0.5233410000000 1.0
C      1  0.4987000000000  0.5262600000000  0.5142880000000 1.0
C      1  0.4484380000000  0.4835590000000  0.4492020000000 1.0
C      1  0.4593080000000  0.4200160000000  0.5734900000000 1.0
C      1  0.5599810000000  0.4488450000000  0.5795030000000 1.0
C      1  0.4536260000000  0.4147900000000  0.4261130000000 1.0
C      1  0.4845540000000  0.5443260000000  0.5480920000000 1.0
C      1  0.6078670000000  0.5215690000000  0.5218050000000 1.0
C      1  0.5524510000000  0.4725080000000  0.4424830000000 1.0
C      1  0.3909570000000  0.4899310000000  0.5072460000000 1.0
C      1  0.4378620000000  0.4431610000000  0.4932860000000 1.0
C      1  0.5498820000000  0.5304650000000  0.4709220000000 1.0
C      1  0.4569660000000  0.5999350000000  0.5255390000000 1.0
C      1  0.6107060000000  0.4835810000000  0.4671320000000 1.0
C      1  0.5549820000000  0.5895450000000  0.5467690000000 1.0
C      1  0.5786870000000  0.4209890000000  0.4884640000000 1.0
C      1  0.4412070000000  0.5557860000000  0.4223660000000 1.0
C      1  0.5364370000000  0.5970960000000  0.5248370000000 1.0
C      1  0.5716630000000  0.4234330000000  0.4599750000000 1.0
C      1  0.4796240000000  0.5190530000000  0.4307250000000 1.0
C      1  0.4703700000000  0.5199380000000  0.5417530000000 1.0
C      1  0.5008720000000  0.4014900000000  0.5559210000000 1.0
C      1  0.4341920000000  0.4188650000000  0.5574130000000 1.0
C      1  0.5496670000000  0.5085320000000  0.4092180000000 1.0
C      1  0.4113420000000  0.5227550000000  0.5701120000000 1.0
C      1  0.4408430000000  0.4739610000000  0.5587600000000 1.0
C      1  0.4854410000000  0.5354250000000  0.4516370000000 1.0
C      1  0.5992700000000  0.5392210000000  0.5476020000000 1.0
C      1  0.5385430000000  0.5366140000000  0.4051310000000 1.0
C      1  0.4049570000000  0.4533450000000  0.4617420000000 1.0
C      1  0.4457900000000  0.5835280000000  0.5031610000000 1.0
C      1  0.4712750000000  0.5057850000000  0.3909380000000 1.0
C      1  0.4851080000000  0.6033770000000  0.5199470000000 1.0
C      1  0.5411360000000  0.6092510000000  0.4983320000000 1.0
C      1  0.5198490000000  0.5069000000000  0.6054220000000 1.0
C      1  0.3952480000000  0.5278830000000  0.5468420000000 1.0
C      1  0.5408990000000  0.5264370000000  0.5999820000000 1.0
C      1  0.5667870000000  0.5039400000000  0.5251910000000 1.0
C      1  0.4852030000000  0.4579740000000  0.5558990000000 1.0
C      1  0.5128840000000  0.5079150000000  0.5536730000000 1.0
C      1  0.5581300000000  0.4502040000000  0.5087530000000 1.0
C      1  0.5519750000000  0.4715760000000  0.5960650000000 1.0
C      1  0.5443620000000  0.4528570000000  0.5330700000000 1.0
C      1  0.4899240000000  0.4838380000000  0.3926380000000 1.0
C      1  0.4817900000000  0.5323150000000  0.4032530000000 1.0
C      1  0.5119060000000  0.5467880000000  0.4007860000000 1.0
C      1  0.4009110000000  0.4818110000000  0.4581980000000 1.0
C      1  0.4206650000000  0.5336550000000  0.4205560000000 1.0
C      1  0.6070010000000  0.4663860000000  0.5208110000000 1.0
C      1  0.5028710000000  0.4566460000000  0.6049450000000 1.0
C      1  0.4168170000000  0.5509530000000  0.4867050000000 1.0
C      1  0.5434660000000  0.4472770000000  0.3902360000000 1.0
C      1  0.4319470000000  0.5425890000000  0.5671590000000 1.0
C      1  0.4828100000000  0.4369650000000  0.4631500000000 1.0
C      1  0.4466020000000  0.5810060000000  0.5447590000000 1.0
C      1  0.5214540000000  0.5480280000000  0.5965130000000 1.0
C      1  0.5814670000000  0.5239070000000  0.5129370000000 1.0
C      1  0.5155690000000  0.5756140000000  0.5184710000000 1.0
C      1  0.5637050000000  0.5667080000000  0.4866190000000 1.0
C      1  0.4548950000000  0.5525730000000  0.5818090000000 1.0
C      1  0.4559900000000  0.5144440000000  0.4809310000000 1.0
C      1  0.5252620000000  0.4646910000000  0.3875360000000 1.0
C      1  0.4261100000000  0.4474570000000  0.5544000000000 1.0
C      1  0.5870620000000  0.4515080000000  0.5033970000000 1.0
C      1  0.4718680000000  0.4916110000000  0.4345170000000 1.0
C      1  0.5244710000000  0.4776030000000  0.6028740000000 1.0
C      1  0.4990480000000  0.5275250000000  0.5974340000000 1.0
C      1  0.5692570000000  0.5508670000000  0.5108880000000 1.0
C      1  0.4358100000000  0.5128310000000  0.5223300000000 1.0
C      1  0.4645320000000  0.5298660000000  0.5966380000000 1.0
C      1  0.4000210000000  0.4847050000000  0.5549640000000 1.0
C      1  0.4806380000000  0.3839240000000  0.5051060000000 1.0
C      1  0.4452050000000  0.4686900000000  0.5053280000000 1.0
C      1  0.3981980000000  0.5540560000000  0.5357900000000 1.0
C      1  0.6060860000000  0.5683460000000  0.5434010000000 1.0
C      1  0.5513470000000  0.5576320000000  0.5562140000000 1.0
C      1  0.6032110000000  0.4790430000000  0.5466740000000 1.0
C      1  0.3950110000000  0.5004360000000  0.4801220000000 1.0
C      1  0.5746250000000  0.4925630000000  0.5919630000000 1.0
C      1  0.4906420000000  0.6082940000000  0.4909520000000 1.0
C      1  0.4743940000000  0.5617920000000  0.4559820000000 1.0
C      1  0.4702840000000  0.6064060000000  0.4685200000000 1.0
C      1  0.4467830000000  0.5661120000000  0.4481100000000 1.0
C      1  0.4813570000000  0.4689230000000  0.4174100000000 1.0
C      1  0.4398920000000  0.4854160000000  0.5280970000000 1.0
C      1  0.5876730000000  0.4677470000000  0.4776940000000 1.0
C      1  0.4802300000000  0.4827370000000  0.4832200000000 1.0
C      1  0.4682480000000  0.4380790000000  0.5520320000000 1.0
C      1  0.4281380000000  0.5719430000000  0.4675190000000 1.0
C      1  0.5861240000000  0.5658580000000  0.4305200000000 1.0
C      1  0.5276150000000  0.5285190000000  0.5168640000000 1.0
C      1  0.4918270000000  0.3869270000000  0.4793370000000 1.0
C      1  0.4385080000000  0.4420890000000  0.4178340000000 1.0
C      1  0.5456690000000  0.5483600000000  0.5276940000000 1.0
C      1  0.5225880000000  0.4212160000000  0.5563250000000 1.0
C      1  0.5662580000000  0.5214740000000  0.5855220000000 1.0
C      1  0.5637900000000  0.4362780000000  0.4011510000000 1.0
C      1  0.4910300000000  0.4320980000000  0.4884600000000 1.0
C      1  0.5817180000000  0.5853090000000  0.5432490000000 1.0
C      1  0.5008210000000  0.4741510000000  0.4649590000000 1.0
C      1  0.3971460000000  0.4620960000000  0.5120300000000 1.0
C      1  0.5756840000000  0.5388220000000  0.5649530000000 1.0
C      1  0.4658230000000  0.5580160000000  0.4089110000000 1.0
C      1  0.5248720000000  0.4990570000000  0.4211920000000 1.0
C      1  0.6003100000000  0.4839600000000  0.5841960000000 1.0
C      1  0.4007620000000  0.5282630000000  0.4710920000000 1.0
C      1  0.5172540000000  0.4627020000000  0.5331230000000 1.0
C      1  0.4382570000000  0.4176290000000  0.4515990000000 1.0
C      1  0.4026840000000  0.4587900000000  0.5415380000000 1.0
C      1  0.5751970000000  0.4867710000000  0.5455260000000 1.0
C      1  0.4361430000000  0.4006440000000  0.5336750000000 1.0
C      1  0.4790800000000  0.4471950000000  0.5084510000000 1.0
C      1  0.4200940000000  0.4381010000000  0.4408660000000 1.0
C      1  0.5620770000000  0.4788250000000  0.4692570000000 1.0
C      1  0.5912290000000  0.5480790000000  0.4476780000000 1.0
C      1  0.4870340000000  0.4764500000000  0.5110910000000 1.0
C      1  0.5172120000000  0.4249470000000  0.4953370000000 1.0
C      1  0.5349880000000  0.4468590000000  0.4912680000000 1.0
C      1  0.4433490000000  0.5286540000000  0.5446630000000 1.0
C      1  0.4067130000000  0.5635950000000  0.5115510000000 1.0
C      1  0.6003330000000  0.5119470000000  0.4684020000000 1.0
C      1  0.4248500000000  0.5047340000000  0.4144880000000 1.0
C      1  0.4858790000000  0.4102240000000  0.5795080000000 1.0
C      1  0.5337660000000  0.5941810000000  0.4593280000000 1.0
C      1  0.5289640000000  0.5743350000000  0.4378830000000 1.0
C      1  0.5607350000000  0.4637500000000  0.5545450000000 1.0
C      1  0.5016050000000  0.5280040000000  0.5659360000000 1.0
C      1  0.5808550000000  0.4308530000000  0.4187810000000 1.0
C      1  0.6105170000000  0.5535660000000  0.4731850000000 1.0
C      1  0.4976830000000  0.5844760000000  0.5380540000000 1.0
C      1  0.4689520000000  0.5669580000000  0.5591400000000 1.0
C      1  0.4604400000000  0.5577110000000  0.5014270000000 1.0
C      1  0.4754000000000  0.4670450000000  0.5998990000000 1.0
C      1  0.5262930000000  0.4021400000000  0.4593720000000 1.0
C      1  0.4531560000000  0.4644950000000  0.4074600000000 1.0
C      1  0.4197470000000  0.4951320000000  0.5752140000000 1.0
C      1  0.5308790000000  0.3998000000000  0.4884950000000 1.0
C      1  0.5252440000000  0.5201200000000  0.4406200000000 1.0
C      1  0.5028340000000  0.5236280000000  0.4850680000000 1.0
C      1  0.5176740000000  0.6097290000000  0.4802500000000 1.0
C      1  0.4814300000000  0.5807290000000  0.4200790000000 1.0
C      1  0.4744530000000  0.4266880000000  0.5271880000000 1.0
C      1  0.5383970000000  0.5459740000000  0.4330890000000 1.0
C      1  0.4833530000000  0.5636990000000  0.4843200000000 1.0
C      1  0.4504110000000  0.3868470000000  0.5129090000000 1.0
C      1  0.5113210000000  0.4492410000000  0.5561840000000 1.0
C      1  0.6152060000000  0.4932210000000  0.5255750000000 1.0
C      1  0.4430030000000  0.5951040000000  0.4762700000000 1.0
C      1  0.5734980000000  0.5208860000000  0.4539570000000 1.0
C      1  0.4633800000000  0.4910440000000  0.6079260000000 1.0
C      1  0.4432270000000  0.5324990000000  0.4990520000000 1.0
C      1  0.5120180000000  0.5651970000000  0.4915560000000 1.0
C      1  0.4766060000000  0.6022940000000  0.4404830000000 1.0
C      1  0.4518560000000  0.4872240000000  0.4782150000000 1.0
C      1  0.5398420000000  0.4916490000000  0.4847530000000 1.0
C      1  0.4985540000000  0.3929920000000  0.4519080000000 1.0
C      1  0.5566800000000  0.5941280000000  0.4782100000000 1.0
C      1  0.4550230000000  0.4323360000000  0.4713040000000 1.0
C      1  0.5407200000000  0.5022920000000  0.5151900000000 1.0
C      1  0.5315760000000  0.4504500000000  0.4417470000000 1.0
C      1  0.5165530000000  0.4902480000000  0.3942990000000 1.0
C      1  0.4776730000000  0.4043190000000  0.4349030000000 1.0
C      1  0.4682040000000  0.4728270000000  0.5719060000000 1.0
C      1  0.5233200000000  0.4906100000000  0.5370450000000 1.0
C      1  0.5377840000000  0.5555470000000  0.4788360000000 1.0
C      1  0.5274980000000  0.5139830000000  0.4697960000000 1.0
C      1  0.5274870000000  0.5660690000000  0.5736630000000 1.0
C      1  0.4096440000000  0.5295130000000  0.4453760000000 1.0
C      1  0.5299520000000  0.4259180000000  0.5973200000000 1.0
C      1  0.3897730000000  0.5023370000000  0.5345350000000 1.0
C      1  0.5163810000000  0.5855380000000  0.5575740000000 1.0
C      1  0.4468690000000  0.4925430000000  0.3987800000000 1.0
C      1  0.5596360000000  0.4016930000000  0.4989630000000 1.0
C      1  0.4800600000000  0.5193950000000  0.4695470000000 1.0
C      1  0.6133920000000  0.5300150000000  0.4890910000000 1.0
END
