TITL C-4164242-3624-640 -1.50341092183289 125000 -27047.4553295496 0 0 180 (C1) n - 1
REM
REM in /home/nfs/bkarasulu/CARBON/AIRSS/Generating-Clusters/ReaxFF-fromJPCA2015/Units_Real/with-SteepDescent/Only-C1/SD-CG/Try1-3A/FIRE-CG
REM
REM
REM
REM
REM
REM ./C.cell (11c1c37f851c82e70ff6c80c92926a4b)
REM
REM compiler GCC version 9.2.1 20190827 (Red Hat 9.2.1-1)
REM options -cpp -mtune=generic -march=x86-64 -g -O0 -fpre-include=/usr/include/finclude/math-vector-fortran.h
REM seed -477977408 -1658620968 -1852728684 778448609 -1229710271 -836662527 -36475794 1378345106 1766253678 -1780400298 -1925435858 1956446499 977308890 2116225984 1678655822 4843586 665037267 726507983 -2115387939 -602783843 -170985744 600613151 -1066434944 -861906222 -80228303 -989227518 -1663613374 -1149656439 -1230448587 -1884906071 -1398076292 452393783 1609704002
REM
CELL 1.54180   50.00000   50.00000   50.00000   90.00000   90.00000   90.00000
LATT -1
SFAC C  
C      1  0.5206180000000  0.5446120000000  0.3965600000000 1.0
C      1  0.4998530000000  0.5323050000000  0.3820870000000 1.0
C      1  0.4019930000000  0.5440500000000  0.4914750000000 1.0
C      1  0.5586030000000  0.5080140000000  0.4905920000000 1.0
C      1  0.5976210000000  0.4736230000000  0.4599400000000 1.0
C      1  0.4708060000000  0.4216960000000  0.4341970000000 1.0
C      1  0.4862980000000  0.4835630000000  0.3871040000000 1.0
C      1  0.4588390000000  0.5544370000000  0.4984420000000 1.0
C      1  0.5768690000000  0.5669410000000  0.5052440000000 1.0
C      1  0.4254870000000  0.5385380000000  0.4479280000000 1.0
C      1  0.5336110000000  0.4728180000000  0.4671090000000 1.0
C      1  0.3923570000000  0.4994610000000  0.4943990000000 1.0
C      1  0.5123810000000  0.5533960000000  0.5909240000000 1.0
C      1  0.5171570000000  0.4550530000000  0.5526360000000 1.0
C      1  0.4854740000000  0.4449290000000  0.4464840000000 1.0
C      1  0.5874270000000  0.5234740000000  0.5581010000000 1.0
C      1  0.4546060000000  0.5088800000000  0.6032840000000 1.0
C      1  0.5497980000000  0.4550880000000  0.5107360000000 1.0
C      1  0.5841380000000  0.5679530000000  0.5346600000000 1.0
C      1  0.5975450000000  0.5419120000000  0.5373700000000 1.0
C      1  0.4817270000000  0.5634470000000  0.5114200000000 1.0
C      1  0.5402140000000  0.4183630000000  0.4416190000000 1.0
C      1  0.4049400000000  0.4888460000000  0.5390250000000 1.0
C      1  0.4448720000000  0.5992380000000  0.4827720000000 1.0
C      1  0.5495080000000  0.4530520000000  0.4814540000000 1.0
C      1  0.5605340000000  0.4283010000000  0.5227530000000 1.0
C      1  0.4544830000000  0.5028760000000  0.4355210000000 1.0
C      1  0.4635460000000  0.4059130000000  0.4971530000000 1.0
C      1  0.5513830000000  0.5668450000000  0.4627740000000 1.0
C      1  0.4539690000000  0.4811760000000  0.6021140000000 1.0
C      1  0.5216750000000  0.5280950000000  0.6021430000000 1.0
C      1  0.4158690000000  0.4918240000000  0.5667150000000 1.0
C      1  0.5326320000000  0.5187070000000  0.4458910000000 1.0
C      1  0.4371440000000  0.5746210000000  0.4978950000000 1.0
C      1  0.5004420000000  0.5510310000000  0.4670480000000 1.0
C      1  0.4336320000000  0.5974470000000  0.4543740000000 1.0
C      1  0.5130220000000  0.5206180000000  0.5046590000000 1.0
C      1  0.5144810000000  0.4663660000000  0.5267070000000 1.0
C      1  0.5143550000000  0.4093660000000  0.4469290000000 1.0
C      1  0.4549050000000  0.5012290000000  0.5035690000000 1.0
C      1  0.4742250000000  0.4228580000000  0.5155110000000 1.0
C      1  0.5482110000000  0.5499380000000  0.5480470000000 1.0
C      1  0.5176380000000  0.4009020000000  0.5011960000000 1.0
C      1  0.5044460000000  0.5056380000000  0.3917470000000 1.0
C      1  0.4850620000000  0.4136310000000  0.5387210000000 1.0
C      1  0.4385140000000  0.4525920000000  0.5632550000000 1.0
C      1  0.5026030000000  0.4940730000000  0.4339400000000 1.0
C      1  0.4369790000000  0.5388120000000  0.5647450000000 1.0
C      1  0.4403570000000  0.4301540000000  0.4725430000000 1.0
C      1  0.4178220000000  0.4248550000000  0.4905990000000 1.0
C      1  0.5417920000000  0.5136450000000  0.5848860000000 1.0
C      1  0.6050990000000  0.4716030000000  0.5542910000000 1.0
C      1  0.5294470000000  0.4895170000000  0.5223880000000 1.0
C      1  0.4549500000000  0.5452900000000  0.5430120000000 1.0
C      1  0.4580720000000  0.4298470000000  0.5744680000000 1.0
C      1  0.5792700000000  0.5214440000000  0.4204550000000 1.0
C      1  0.4490350000000  0.4687870000000  0.5382040000000 1.0
C      1  0.5019810000000  0.5110640000000  0.6144060000000 1.0
C      1  0.5328010000000  0.4737040000000  0.5984350000000 1.0
C      1  0.4463360000000  0.5517570000000  0.4286390000000 1.0
C      1  0.4838490000000  0.5365560000000  0.5479330000000 1.0
C      1  0.3935510000000  0.4716430000000  0.4839370000000 1.0
C      1  0.6123410000000  0.5011780000000  0.4996600000000 1.0
C      1  0.5239180000000  0.5026330000000  0.4175680000000 1.0
C      1  0.4957380000000  0.4659780000000  0.4290740000000 1.0
C      1  0.4756630000000  0.5476550000000  0.4343960000000 1.0
C      1  0.4070070000000  0.4571220000000  0.5275440000000 1.0
C      1  0.3882430000000  0.5226100000000  0.4767340000000 1.0
C      1  0.5029350000000  0.5636370000000  0.4931390000000 1.0
C      1  0.4430290000000  0.4282810000000  0.4435110000000 1.0
C      1  0.4819280000000  0.5154210000000  0.4408420000000 1.0
C      1  0.5822120000000  0.5391360000000  0.4425410000000 1.0
C      1  0.5271460000000  0.5467370000000  0.4533700000000 1.0
C      1  0.5912170000000  0.4333710000000  0.5198510000000 1.0
C      1  0.4767660000000  0.5852700000000  0.5315490000000 1.0
C      1  0.5562200000000  0.4146290000000  0.5499050000000 1.0
C      1  0.4373890000000  0.5673400000000  0.5735190000000 1.0
C      1  0.4867820000000  0.5269090000000  0.4665930000000 1.0
C      1  0.5398200000000  0.5571240000000  0.4117790000000 1.0
C      1  0.4491210000000  0.4557560000000  0.4033990000000 1.0
C      1  0.4719240000000  0.5071650000000  0.5586720000000 1.0
C      1  0.5476330000000  0.4292210000000  0.5732800000000 1.0
C      1  0.5603510000000  0.5761920000000  0.5513070000000 1.0
C      1  0.5427030000000  0.5008800000000  0.4664860000000 1.0
C      1  0.5072850000000  0.4820910000000  0.6105630000000 1.0
C      1  0.5022310000000  0.5568010000000  0.5638370000000 1.0
C      1  0.5724450000000  0.4940920000000  0.4207090000000 1.0
C      1  0.5462980000000  0.6144470000000  0.5448860000000 1.0
C      1  0.4906240000000  0.4061720000000  0.4812980000000 1.0
C      1  0.5034750000000  0.5245200000000  0.5301010000000 1.0
C      1  0.5737610000000  0.4487840000000  0.4191050000000 1.0
C      1  0.5459710000000  0.4061710000000  0.5027690000000 1.0
C      1  0.5854000000000  0.4713980000000  0.4334850000000 1.0
C      1  0.4864140000000  0.4689730000000  0.5211440000000 1.0
C      1  0.5680360000000  0.4114860000000  0.4843620000000 1.0
C      1  0.5284090000000  0.5726290000000  0.5028320000000 1.0
C      1  0.4282660000000  0.5383260000000  0.4762820000000 1.0
C      1  0.5206720000000  0.5744010000000  0.4322600000000 1.0
C      1  0.5769140000000  0.5697490000000  0.4501600000000 1.0
C      1  0.4868580000000  0.4850070000000  0.4784830000000 1.0
C      1  0.5346250000000  0.5930820000000  0.5495660000000 1.0
C      1  0.5648240000000  0.5443870000000  0.4186220000000 1.0
C      1  0.5409780000000  0.5266500000000  0.5029110000000 1.0
C      1  0.5018370000000  0.5852130000000  0.5559390000000 1.0
C      1  0.4230730000000  0.5648330000000  0.5218140000000 1.0
C      1  0.5503020000000  0.4322400000000  0.4175350000000 1.0
C      1  0.5314660000000  0.3979350000000  0.5508090000000 1.0
C      1  0.4753380000000  0.5230050000000  0.6148460000000 1.0
C      1  0.5120430000000  0.3985000000000  0.5284640000000 1.0
C      1  0.5010560000000  0.4325420000000  0.5640320000000 1.0
C      1  0.3958090000000  0.4721760000000  0.4542040000000 1.0
C      1  0.6115580000000  0.4719630000000  0.5041490000000 1.0
C      1  0.5816240000000  0.5226350000000  0.4743110000000 1.0
C      1  0.4227440000000  0.4703590000000  0.4424270000000 1.0
C      1  0.5395660000000  0.5904670000000  0.4814480000000 1.0
C      1  0.4895250000000  0.4015520000000  0.4518630000000 1.0
C      1  0.4347200000000  0.4612030000000  0.5160530000000 1.0
C      1  0.4769580000000  0.6038470000000  0.5095200000000 1.0
C      1  0.4764290000000  0.5927350000000  0.4341650000000 1.0
C      1  0.4924210000000  0.4585820000000  0.4009020000000 1.0
C      1  0.5188430000000  0.5935940000000  0.4549520000000 1.0
C      1  0.4935200000000  0.4394240000000  0.4740000000000 1.0
C      1  0.4324410000000  0.4740850000000  0.5848090000000 1.0
C      1  0.4463410000000  0.5060070000000  0.4075400000000 1.0
C      1  0.4766420000000  0.4473230000000  0.5039810000000 1.0
C      1  0.4924110000000  0.4926410000000  0.5734900000000 1.0
C      1  0.4499990000000  0.5272170000000  0.4942290000000 1.0
C      1  0.4324840000000  0.4490780000000  0.4263190000000 1.0
C      1  0.5190030000000  0.5011900000000  0.5689710000000 1.0
C      1  0.4582940000000  0.4105030000000  0.5533370000000 1.0
C      1  0.5926400000000  0.5430070000000  0.4931380000000 1.0
C      1  0.4455360000000  0.5729770000000  0.5424420000000 1.0
C      1  0.5468630000000  0.5527930000000  0.5152940000000 1.0
C      1  0.5563160000000  0.4816440000000  0.5221160000000 1.0
C      1  0.4820750000000  0.4702920000000  0.5961910000000 1.0
C      1  0.4919320000000  0.6024870000000  0.4575930000000 1.0
C      1  0.5067970000000  0.4659910000000  0.4762910000000 1.0
C      1  0.6026320000000  0.4546540000000  0.4816880000000 1.0
C      1  0.5599080000000  0.5295200000000  0.5646630000000 1.0
C      1  0.4722020000000  0.4336780000000  0.4019980000000 1.0
C      1  0.5227520000000  0.5086800000000  0.5413480000000 1.0
C      1  0.5499210000000  0.4575370000000  0.4062740000000 1.0
C      1  0.4193120000000  0.4370250000000  0.5461580000000 1.0
C      1  0.5405830000000  0.4598590000000  0.5678470000000 1.0
C      1  0.4566850000000  0.4821880000000  0.3935290000000 1.0
C      1  0.4663530000000  0.4897160000000  0.5292370000000 1.0
C      1  0.6001230000000  0.4978080000000  0.5637970000000 1.0
C      1  0.4938540000000  0.5723800000000  0.6058930000000 1.0
C      1  0.6069400000000  0.5282070000000  0.5123320000000 1.0
C      1  0.3983110000000  0.5255090000000  0.4479260000000 1.0
C      1  0.4546590000000  0.5628830000000  0.5947010000000 1.0
C      1  0.4493720000000  0.5343990000000  0.4004730000000 1.0
C      1  0.4697890000000  0.5413990000000  0.3822320000000 1.0
C      1  0.5919580000000  0.4287320000000  0.4918440000000 1.0
C      1  0.4430110000000  0.4863810000000  0.4531190000000 1.0
C      1  0.4002510000000  0.4475850000000  0.4987780000000 1.0
C      1  0.4930910000000  0.5930230000000  0.5846620000000 1.0
C      1  0.4059470000000  0.5407430000000  0.5198720000000 1.0
C      1  0.5550090000000  0.4290280000000  0.4656330000000 1.0
C      1  0.5593070000000  0.4745900000000  0.5507910000000 1.0
C      1  0.4714960000000  0.5524580000000  0.6134210000000 1.0
C      1  0.4568680000000  0.4825290000000  0.4803550000000 1.0
C      1  0.4734180000000  0.6087480000000  0.4820340000000 1.0
C      1  0.4013310000000  0.5100110000000  0.5202970000000 1.0
C      1  0.4918370000000  0.5697460000000  0.4248840000000 1.0
C      1  0.6054730000000  0.4573650000000  0.5288870000000 1.0
C      1  0.4486570000000  0.5836970000000  0.4335670000000 1.0
C      1  0.5687810000000  0.5932680000000  0.4901490000000 1.0
C      1  0.4965630000000  0.5106210000000  0.4845060000000 1.0
C      1  0.4499200000000  0.4550710000000  0.4916110000000 1.0
C      1  0.4360580000000  0.4083360000000  0.5074520000000 1.0
C      1  0.6021360000000  0.5000330000000  0.4728590000000 1.0
C      1  0.5580430000000  0.4874420000000  0.6001570000000 1.0
C      1  0.3930570000000  0.4981760000000  0.4437040000000 1.0
C      1  0.5234330000000  0.4134970000000  0.5746640000000 1.0
C      1  0.4483370000000  0.5148690000000  0.5763590000000 1.0
C      1  0.4813470000000  0.4419750000000  0.5847510000000 1.0
C      1  0.5811000000000  0.4772750000000  0.5686390000000 1.0
C      1  0.5469010000000  0.4852120000000  0.4115090000000 1.0
C      1  0.4342370000000  0.4142770000000  0.5369620000000 1.0
END
