TITL C-4164236-1577-701 2.22574966269425 125000 -11009.942718927 0 0 74 (C1) n - 1
REM
REM in /home/nfs/bkarasulu/CARBON/AIRSS/Generating-Clusters/ReaxFF-fromJPCA2015/Units_Real/with-SteepDescent/Only-C1/SD-CG/Try1-3A/FIRE-CG
REM
REM
REM
REM
REM
REM ./C.cell (11c1c37f851c82e70ff6c80c92926a4b)
REM
REM compiler GCC version 9.2.1 20190827 (Red Hat 9.2.1-1)
REM options -cpp -mtune=generic -march=x86-64 -g -O0 -fpre-include=/usr/include/finclude/math-vector-fortran.h
REM seed -867858492 1878190669 600615412 -1713276695 549912760 173833587 -469004118 348003495 -1095567705 1214547256 -577605465 -1013331990 771226645 -1899358017 -1847503959 -1654140797 -110470084 820872426 -951841625 1948131903 2143778237 1207680613 -32185068 651973785 1392416945 -199119196 1329940148 -979963905 -523376613 -817690363 625237973 169147018 1666118682
REM
CELL 1.54180   50.00000   50.00000   50.00000   90.00000   90.00000   90.00000
LATT -1
SFAC C  
C      1  0.4988290000000  0.5144640000000  0.4667110000000 1.0
C      1  0.4934200000000  0.5259650000000  0.5565720000000 1.0
C      1  0.5502160000000  0.5344210000000  0.4331780000000 1.0
C      1  0.4905200000000  0.4088580000000  0.5227360000000 1.0
C      1  0.5720360000000  0.4562180000000  0.4836900000000 1.0
C      1  0.4291130000000  0.5152150000000  0.5328100000000 1.0
C      1  0.5616540000000  0.4767760000000  0.5321610000000 1.0
C      1  0.5545390000000  0.4913230000000  0.4474040000000 1.0
C      1  0.4136210000000  0.5808620000000  0.4887470000000 1.0
C      1  0.4634640000000  0.4598000000000  0.4490410000000 1.0
C      1  0.5698750000000  0.5211150000000  0.5198740000000 1.0
C      1  0.5208260000000  0.5658870000000  0.5115830000000 1.0
C      1  0.4713870000000  0.5191340000000  0.4722150000000 1.0
C      1  0.4210190000000  0.5559280000000  0.4960740000000 1.0
C      1  0.5624580000000  0.5435670000000  0.5031160000000 1.0
C      1  0.4814670000000  0.4944450000000  0.5173830000000 1.0
C      1  0.5336020000000  0.5174170000000  0.4144380000000 1.0
C      1  0.5419940000000  0.5449980000000  0.5486630000000 1.0
C      1  0.5004470000000  0.5106940000000  0.5323740000000 1.0
C      1  0.4875290000000  0.4891810000000  0.5833960000000 1.0
C      1  0.5576370000000  0.5391030000000  0.4743670000000 1.0
C      1  0.5040800000000  0.5515670000000  0.5039960000000 1.0
C      1  0.5160180000000  0.5451030000000  0.5632220000000 1.0
C      1  0.5308870000000  0.4408320000000  0.5423340000000 1.0
C      1  0.4624080000000  0.5132720000000  0.5012320000000 1.0
C      1  0.5085800000000  0.5421310000000  0.4569670000000 1.0
C      1  0.4310330000000  0.4517030000000  0.4883430000000 1.0
C      1  0.4786780000000  0.4659160000000  0.5208310000000 1.0
C      1  0.5591870000000  0.4655530000000  0.4611780000000 1.0
C      1  0.5557250000000  0.4493520000000  0.5301170000000 1.0
C      1  0.4922770000000  0.4625700000000  0.5697750000000 1.0
C      1  0.5163460000000  0.5250090000000  0.5123110000000 1.0
C      1  0.5207130000000  0.4575880000000  0.5641400000000 1.0
C      1  0.4392240000000  0.5551200000000  0.4733650000000 1.0
C      1  0.4250810000000  0.4812730000000  0.4882780000000 1.0
C      1  0.4862910000000  0.4973670000000  0.4123760000000 1.0
C      1  0.5048200000000  0.4798070000000  0.4287130000000 1.0
C      1  0.5651870000000  0.4384770000000  0.5044880000000 1.0
C      1  0.4714700000000  0.4577590000000  0.5489620000000 1.0
C      1  0.4825340000000  0.5820440000000  0.5413520000000 1.0
C      1  0.4864300000000  0.5587900000000  0.4493420000000 1.0
C      1  0.5148390000000  0.4927000000000  0.4785980000000 1.0
C      1  0.5064260000000  0.5156980000000  0.4078070000000 1.0
C      1  0.4336830000000  0.5033610000000  0.5066510000000 1.0
C      1  0.4772130000000  0.4239920000000  0.4993940000000 1.0
C      1  0.4921990000000  0.4633210000000  0.4491340000000 1.0
C      1  0.5448730000000  0.4247130000000  0.4845740000000 1.0
C      1  0.5152190000000  0.4923500000000  0.5863720000000 1.0
C      1  0.4330960000000  0.5424550000000  0.5238850000000 1.0
C      1  0.4804220000000  0.5622480000000  0.5151870000000 1.0
C      1  0.4464950000000  0.4423340000000  0.4655690000000 1.0
C      1  0.5553220000000  0.4938340000000  0.5531830000000 1.0
C      1  0.4607370000000  0.5436740000000  0.4600500000000 1.0
C      1  0.4716330000000  0.5116470000000  0.5707060000000 1.0
C      1  0.4252840000000  0.4901270000000  0.4602940000000 1.0
C      1  0.4993610000000  0.5665030000000  0.5571790000000 1.0
C      1  0.5086800000000  0.4627430000000  0.4746640000000 1.0
C      1  0.5121320000000  0.4291370000000  0.5225960000000 1.0
C      1  0.5353610000000  0.4469500000000  0.4674340000000 1.0
C      1  0.5372450000000  0.4809660000000  0.5735820000000 1.0
C      1  0.5579250000000  0.4957650000000  0.5116410000000 1.0
C      1  0.5380790000000  0.5499600000000  0.4550130000000 1.0
C      1  0.5597700000000  0.5223380000000  0.5473940000000 1.0
C      1  0.5649570000000  0.5184300000000  0.4530460000000 1.0
C      1  0.5327540000000  0.4908250000000  0.4278320000000 1.0
C      1  0.4949750000000  0.4482510000000  0.5024050000000 1.0
C      1  0.5318990000000  0.5037000000000  0.4987800000000 1.0
C      1  0.4532340000000  0.4787170000000  0.5532030000000 1.0
C      1  0.4560850000000  0.4996240000000  0.4178470000000 1.0
C      1  0.4607990000000  0.5418390000000  0.5172350000000 1.0
C      1  0.5458820000000  0.5588160000000  0.5226610000000 1.0
C      1  0.4457570000000  0.4826080000000  0.4392820000000 1.0
C      1  0.4494210000000  0.4289050000000  0.4915730000000 1.0
C      1  0.4456240000000  0.5048630000000  0.5573730000000 1.0
END
