TITL C-4164232-771-590 178.266123081622 125000 -15963.619868339 0 0 110 (C1) n - 1
REM
REM in /home/nfs/bkarasulu/CARBON/AIRSS/Generating-Clusters/ReaxFF-fromJPCA2015/Units_Real/with-SteepDescent/Only-C1/SD-CG/Try1-3A/FIRE-CG
REM
REM
REM
REM
REM
REM ./C.cell (11c1c37f851c82e70ff6c80c92926a4b)
REM
REM compiler GCC version 9.2.1 20190827 (Red Hat 9.2.1-1)
REM options -cpp -mtune=generic -march=x86-64 -g -O0 -fpre-include=/usr/include/finclude/math-vector-fortran.h
REM seed -1540335614 -1703207601 -1141688411 -313501892 1179641537 -336906585 662959263 638683307 -845303331 1349793222 220972613 -889733252 -470537098 -129853305 -1118888360 -1216051114 1156545027 1587859777 -1676897908 1558658727 1386116978 -1432985044 1067727968 -522275240 -2024186316 -1751655749 -305804342 -2058309718 -1505159321 -1934340598 -1551010295 -610301907 757706448
REM
CELL 1.54180   50.00000   50.00000   50.00000   90.00000   90.00000   90.00000
LATT -1
SFAC C  
C      1  0.4588760000000  0.4527790000000  0.4890010000000 1.0
C      1  0.4823630000000  0.4494780000000  0.4310000000000 1.0
C      1  0.4814470000000  0.4745190000000  0.5442110000000 1.0
C      1  0.4323570000000  0.4741220000000  0.5284480000000 1.0
C      1  0.4589400000000  0.5124990000000  0.4611670000000 1.0
C      1  0.5277480000000  0.5618060000000  0.5719060000000 1.0
C      1  0.4592780000000  0.5008710000000  0.4875310000000 1.0
C      1  0.4983260000000  0.5557330000000  0.4441380000000 1.0
C      1  0.4349400000000  0.5078430000000  0.4442500000000 1.0
C      1  0.5655040000000  0.5123120000000  0.5631810000000 1.0
C      1  0.4527020000000  0.4885930000000  0.5727390000000 1.0
C      1  0.5472400000000  0.5770450000000  0.5238790000000 1.0
C      1  0.4973430000000  0.5240190000000  0.5026450000000 1.0
C      1  0.5042600000000  0.4764210000000  0.5842050000000 1.0
C      1  0.4711080000000  0.4098190000000  0.5228850000000 1.0
C      1  0.4701780000000  0.4653910000000  0.5682690000000 1.0
C      1  0.4775230000000  0.5851550000000  0.5281880000000 1.0
C      1  0.5492350000000  0.5617990000000  0.5519860000000 1.0
C      1  0.4344610000000  0.5223930000000  0.5474180000000 1.0
C      1  0.4600830000000  0.5806070000000  0.4807450000000 1.0
C      1  0.5591430000000  0.5454210000000  0.4451270000000 1.0
C      1  0.5420490000000  0.5662550000000  0.4571450000000 1.0
C      1  0.5606920000000  0.4446170000000  0.4473170000000 1.0
C      1  0.5856880000000  0.5207680000000  0.4905090000000 1.0
C      1  0.5506590000000  0.4609940000000  0.5627120000000 1.0
C      1  0.5244390000000  0.5783240000000  0.5075190000000 1.0
C      1  0.4899390000000  0.5778040000000  0.4835740000000 1.0
C      1  0.4883730000000  0.5031800000000  0.4863960000000 1.0
C      1  0.5403120000000  0.4775290000000  0.4318950000000 1.0
C      1  0.5442310000000  0.5505960000000  0.4193570000000 1.0
C      1  0.4843050000000  0.4730840000000  0.4125490000000 1.0
C      1  0.5387000000000  0.5070520000000  0.4295320000000 1.0
C      1  0.4658930000000  0.4844780000000  0.4315800000000 1.0
C      1  0.4909690000000  0.4818730000000  0.5242240000000 1.0
C      1  0.5275670000000  0.5578680000000  0.4824960000000 1.0
C      1  0.4990190000000  0.5504710000000  0.4791800000000 1.0
C      1  0.5016640000000  0.4985520000000  0.4616860000000 1.0
C      1  0.5018400000000  0.4065570000000  0.4800700000000 1.0
C      1  0.4983690000000  0.4053650000000  0.5100760000000 1.0
C      1  0.4750030000000  0.5484000000000  0.4247880000000 1.0
C      1  0.5517740000000  0.4296840000000  0.4688760000000 1.0
C      1  0.5417220000000  0.5322470000000  0.4871430000000 1.0
C      1  0.4495280000000  0.5551040000000  0.4376450000000 1.0
C      1  0.4482130000000  0.4133100000000  0.5047770000000 1.0
C      1  0.4560090000000  0.4257280000000  0.4790670000000 1.0
C      1  0.4706960000000  0.5617580000000  0.5613610000000 1.0
C      1  0.5131300000000  0.4674400000000  0.5049900000000 1.0
C      1  0.4359230000000  0.5615110000000  0.5213610000000 1.0
C      1  0.4387620000000  0.5639520000000  0.4927210000000 1.0
C      1  0.4225990000000  0.5365930000000  0.5261910000000 1.0
C      1  0.4112330000000  0.5035590000000  0.4875520000000 1.0
C      1  0.5321770000000  0.4791570000000  0.5792050000000 1.0
C      1  0.4806330000000  0.5051800000000  0.4431120000000 1.0
C      1  0.4540430000000  0.4425200000000  0.5587070000000 1.0
C      1  0.4821060000000  0.5256780000000  0.4088740000000 1.0
C      1  0.5068110000000  0.4504590000000  0.4839790000000 1.0
C      1  0.5613300000000  0.4873560000000  0.4989390000000 1.0
C      1  0.5085230000000  0.4398410000000  0.5718250000000 1.0
C      1  0.5249720000000  0.5217300000000  0.5079440000000 1.0
C      1  0.5570120000000  0.5330230000000  0.5450340000000 1.0
C      1  0.5602500000000  0.4478030000000  0.5187230000000 1.0
C      1  0.4999950000000  0.5648610000000  0.5570260000000 1.0
C      1  0.5687450000000  0.4687270000000  0.4353080000000 1.0
C      1  0.5306070000000  0.5243740000000  0.5350280000000 1.0
C      1  0.5781810000000  0.5131760000000  0.4621660000000 1.0
C      1  0.4190840000000  0.4792890000000  0.4769480000000 1.0
C      1  0.4351460000000  0.4939900000000  0.5498840000000 1.0
C      1  0.5675280000000  0.5431590000000  0.4955540000000 1.0
C      1  0.5774830000000  0.4697370000000  0.4806650000000 1.0
C      1  0.4326750000000  0.4493010000000  0.5412180000000 1.0
C      1  0.5422890000000  0.5066550000000  0.5806660000000 1.0
C      1  0.5685350000000  0.4432180000000  0.4885470000000 1.0
C      1  0.4667640000000  0.5102320000000  0.5848300000000 1.0
C      1  0.4423300000000  0.4769830000000  0.4990110000000 1.0
C      1  0.4906640000000  0.5813770000000  0.4534040000000 1.0
C      1  0.5631760000000  0.5643620000000  0.5128850000000 1.0
C      1  0.4332430000000  0.4797480000000  0.4516220000000 1.0
C      1  0.4095810000000  0.5283290000000  0.4987820000000 1.0
C      1  0.4882700000000  0.4999560000000  0.4041750000000 1.0
C      1  0.4630230000000  0.4635700000000  0.4493970000000 1.0
C      1  0.4953860000000  0.5031430000000  0.5895860000000 1.0
C      1  0.4683520000000  0.4186930000000  0.5506690000000 1.0
C      1  0.5779020000000  0.4953670000000  0.5419160000000 1.0
C      1  0.4595390000000  0.5327760000000  0.5645500000000 1.0
C      1  0.5518280000000  0.5207320000000  0.4560620000000 1.0
C      1  0.5176630000000  0.5219350000000  0.5822990000000 1.0
C      1  0.5238000000000  0.4793320000000  0.4576180000000 1.0
C      1  0.5439030000000  0.4241890000000  0.5326970000000 1.0
C      1  0.4547020000000  0.5752850000000  0.5410340000000 1.0
C      1  0.5409290000000  0.4708090000000  0.5131810000000 1.0
C      1  0.5190860000000  0.4276210000000  0.4674450000000 1.0
C      1  0.5821610000000  0.5021850000000  0.5128660000000 1.0
C      1  0.4821010000000  0.5104410000000  0.5248290000000 1.0
C      1  0.5214770000000  0.4149120000000  0.5215550000000 1.0
C      1  0.5373230000000  0.5243240000000  0.4054550000000 1.0
C      1  0.5035490000000  0.5797700000000  0.5280560000000 1.0
C      1  0.5822630000000  0.4846210000000  0.4563210000000 1.0
C      1  0.4907680000000  0.4153500000000  0.5699400000000 1.0
C      1  0.4963140000000  0.4280820000000  0.4443490000000 1.0
C      1  0.5367920000000  0.4368180000000  0.5582380000000 1.0
C      1  0.4226020000000  0.5444750000000  0.4776120000000 1.0
C      1  0.4359040000000  0.4334270000000  0.5193550000000 1.0
C      1  0.5235100000000  0.5655560000000  0.4348170000000 1.0
C      1  0.4792250000000  0.4143700000000  0.4637610000000 1.0
C      1  0.4824810000000  0.4637460000000  0.4765750000000 1.0
C      1  0.5093410000000  0.5299710000000  0.5550240000000 1.0
C      1  0.4291590000000  0.5368470000000  0.4496370000000 1.0
C      1  0.5705860000000  0.4671480000000  0.5426540000000 1.0
C      1  0.4831340000000  0.5224990000000  0.5499820000000 1.0
C      1  0.4606930000000  0.5785040000000  0.4512520000000 1.0
END
