TITL C-4164245-3996-171 3.95509967218902 125000 -4486.18555931128 0 0 32 (C1) n - 1
REM
REM in /home/nfs/bkarasulu/CARBON/AIRSS/Generating-Clusters/ReaxFF-fromJPCA2015/Units_Real/with-SteepDescent/Only-C1/SD-CG/Try1-3A/FIRE-CG
REM
REM
REM
REM
REM
REM ./C.cell (11c1c37f851c82e70ff6c80c92926a4b)
REM
REM compiler GCC version 9.2.1 20190827 (Red Hat 9.2.1-1)
REM options -cpp -mtune=generic -march=x86-64 -g -O0 -fpre-include=/usr/include/finclude/math-vector-fortran.h
REM seed 115778934 1271620282 2054832688 -1566175726 -11188627 216809432 1980446542 593633585 -658227426 1486465087 -592130182 1994019411 -2071566535 1401359919 -1162343245 -1863793064 2059982277 781021067 -1559094475 59180464 1566874691 -789609969 -1017047679 -1039981754 -1879313515 2050569021 -117180406 1431864494 210321452 1487086160 1961921371 394357756 1315550370
REM
CELL 1.54180   50.00000   50.00000   50.00000   90.00000   90.00000   90.00000
LATT -1
SFAC C  
C      1  0.5390920000000  0.5113230000000  0.4532620000000 1.0
C      1  0.5337970000000  0.4573670000000  0.5022780000000 1.0
C      1  0.5234090000000  0.5292440000000  0.4702560000000 1.0
C      1  0.4469400000000  0.5283240000000  0.5241870000000 1.0
C      1  0.5090740000000  0.5556660000000  0.5112370000000 1.0
C      1  0.4982200000000  0.4435380000000  0.5351250000000 1.0
C      1  0.4680680000000  0.4518010000000  0.5089640000000 1.0
C      1  0.4881490000000  0.4332230000000  0.4964590000000 1.0
C      1  0.4370650000000  0.5222820000000  0.4948070000000 1.0
C      1  0.4812210000000  0.4898280000000  0.5323870000000 1.0
C      1  0.5324160000000  0.4906360000000  0.4364790000000 1.0
C      1  0.5236380000000  0.4889320000000  0.5008430000000 1.0
C      1  0.4873170000000  0.4505150000000  0.4712220000000 1.0
C      1  0.4812870000000  0.5621210000000  0.5038910000000 1.0
C      1  0.4798350000000  0.5391510000000  0.5472190000000 1.0
C      1  0.4706690000000  0.5588890000000  0.4775960000000 1.0
C      1  0.4934790000000  0.4894540000000  0.5059640000000 1.0
C      1  0.5192370000000  0.4667120000000  0.4276350000000 1.0
C      1  0.5570470000000  0.4507800000000  0.4956610000000 1.0
C      1  0.5082140000000  0.5442600000000  0.5386900000000 1.0
C      1  0.4764570000000  0.4725830000000  0.4892620000000 1.0
C      1  0.4756230000000  0.4606460000000  0.5365310000000 1.0
C      1  0.5218440000000  0.5020370000000  0.4740260000000 1.0
C      1  0.5413660000000  0.5071940000000  0.5200780000000 1.0
C      1  0.5536600000000  0.5311820000000  0.5063280000000 1.0
C      1  0.5130360000000  0.4362620000000  0.5123830000000 1.0
C      1  0.4532270000000  0.5416130000000  0.4809600000000 1.0
C      1  0.5300920000000  0.5457420000000  0.4932950000000 1.0
C      1  0.4658220000000  0.5133250000000  0.5417570000000 1.0
C      1  0.5014930000000  0.4503780000000  0.4468260000000 1.0
C      1  0.4634170000000  0.5523980000000  0.5270970000000 1.0
C      1  0.5257900000000  0.5225970000000  0.5372970000000 1.0
END
