TITL C-4164241-3639-184 -1.92744006731532 125000 -13669.5383993876 0 0 93 (C1) n - 1
REM
REM in /home/nfs/bkarasulu/CARBON/AIRSS/Generating-Clusters/ReaxFF-fromJPCA2015/Units_Real/with-SteepDescent/Only-C1/SD-CG/Try1-3A/FIRE-CG
REM
REM
REM
REM
REM
REM ./C.cell (11c1c37f851c82e70ff6c80c92926a4b)
REM
REM compiler GCC version 9.2.1 20190827 (Red Hat 9.2.1-1)
REM options -cpp -mtune=generic -march=x86-64 -g -O0 -fpre-include=/usr/include/finclude/math-vector-fortran.h
REM seed -686268189 349589680 419070602 1873512773 1977585630 1643309103 1968211390 -1548873608 421263561 -1871062569 1102560570 -540035586 -686199507 869941312 -1610630989 851191726 843196180 545832925 1281549709 -2017302308 327303317 1833893218 -723293899 244534295 -1452571654 1599206757 791323729 1970797596 -1405943757 -483696945 536408264 -233875961 -949306602
REM
CELL 1.54180   50.00000   50.00000   50.00000   90.00000   90.00000   90.00000
LATT -1
SFAC C  
C      1  0.4761660000000  0.5744120000000  0.4920970000000 1.0
C      1  0.4537540000000  0.5053320000000  0.5549130000000 1.0
C      1  0.5909710000000  0.5050490000000  0.5478200000000 1.0
C      1  0.5441610000000  0.4506340000000  0.4437570000000 1.0
C      1  0.4694730000000  0.5045500000000  0.4233390000000 1.0
C      1  0.4273310000000  0.5186640000000  0.4381330000000 1.0
C      1  0.5014190000000  0.4929710000000  0.5859700000000 1.0
C      1  0.5614240000000  0.5250790000000  0.5231700000000 1.0
C      1  0.5726850000000  0.4668440000000  0.5328550000000 1.0
C      1  0.4766920000000  0.4187800000000  0.4718470000000 1.0
C      1  0.5749860000000  0.5316800000000  0.5467050000000 1.0
C      1  0.4244180000000  0.5404440000000  0.5501570000000 1.0
C      1  0.5444500000000  0.4828640000000  0.4681570000000 1.0
C      1  0.4269310000000  0.5490690000000  0.4928990000000 1.0
C      1  0.5369970000000  0.5019150000000  0.5549900000000 1.0
C      1  0.5574450000000  0.5178530000000  0.5686620000000 1.0
C      1  0.5463480000000  0.4641740000000  0.5303820000000 1.0
C      1  0.5400930000000  0.5683150000000  0.5330470000000 1.0
C      1  0.4731560000000  0.5266040000000  0.4699010000000 1.0
C      1  0.4926080000000  0.4329490000000  0.4507090000000 1.0
C      1  0.5096440000000  0.5701120000000  0.4617620000000 1.0
C      1  0.4354850000000  0.4466790000000  0.5283170000000 1.0
C      1  0.4230250000000  0.4848930000000  0.4620650000000 1.0
C      1  0.5860170000000  0.5046750000000  0.4856890000000 1.0
C      1  0.4807810000000  0.5702330000000  0.4640690000000 1.0
C      1  0.4389300000000  0.5618000000000  0.4690920000000 1.0
C      1  0.5193140000000  0.5753120000000  0.4898030000000 1.0
C      1  0.5003340000000  0.4586520000000  0.5617450000000 1.0
C      1  0.4472240000000  0.5727490000000  0.4942060000000 1.0
C      1  0.5172960000000  0.5320920000000  0.4233680000000 1.0
C      1  0.5105780000000  0.5296930000000  0.5096860000000 1.0
C      1  0.4305640000000  0.4567940000000  0.5010780000000 1.0
C      1  0.4290270000000  0.4356320000000  0.4815960000000 1.0
C      1  0.4526460000000  0.5271520000000  0.4293440000000 1.0
C      1  0.4846940000000  0.5215850000000  0.5180990000000 1.0
C      1  0.5566350000000  0.5564530000000  0.5537590000000 1.0
C      1  0.4847050000000  0.4599940000000  0.4392170000000 1.0
C      1  0.4869480000000  0.4671460000000  0.4996160000000 1.0
C      1  0.5240490000000  0.5037600000000  0.4212700000000 1.0
C      1  0.5447920000000  0.5427700000000  0.5746010000000 1.0
C      1  0.5224610000000  0.4316910000000  0.4455030000000 1.0
C      1  0.4106110000000  0.5069830000000  0.4493890000000 1.0
C      1  0.4857400000000  0.4268220000000  0.5267490000000 1.0
C      1  0.4509320000000  0.5346420000000  0.5663650000000 1.0
C      1  0.4859330000000  0.4815350000000  0.5229580000000 1.0
C      1  0.5810700000000  0.4559670000000  0.4850820000000 1.0
C      1  0.4682870000000  0.4844920000000  0.4856050000000 1.0
C      1  0.5323200000000  0.4406250000000  0.5265050000000 1.0
C      1  0.4996590000000  0.5596530000000  0.5628410000000 1.0
C      1  0.4256160000000  0.5104330000000  0.5077980000000 1.0
C      1  0.5579780000000  0.5492550000000  0.4863110000000 1.0
C      1  0.5406830000000  0.5352170000000  0.4653550000000 1.0
C      1  0.4710160000000  0.4564180000000  0.5616870000000 1.0
C      1  0.5677330000000  0.4468860000000  0.4609190000000 1.0
C      1  0.5904850000000  0.4814030000000  0.5299950000000 1.0
C      1  0.5629080000000  0.5220410000000  0.4456250000000 1.0
C      1  0.5306600000000  0.4935710000000  0.4892040000000 1.0
C      1  0.5350850000000  0.5142380000000  0.5283690000000 1.0
C      1  0.5712750000000  0.4996220000000  0.4607810000000 1.0
C      1  0.4740750000000  0.5486210000000  0.5643260000000 1.0
C      1  0.5118500000000  0.5695690000000  0.5374790000000 1.0
C      1  0.5183500000000  0.4819110000000  0.5684520000000 1.0
C      1  0.5236930000000  0.5499260000000  0.4458270000000 1.0
C      1  0.5075370000000  0.4387630000000  0.5414600000000 1.0
C      1  0.5445880000000  0.5688100000000  0.5028580000000 1.0
C      1  0.4499590000000  0.4770230000000  0.5667360000000 1.0
C      1  0.5172830000000  0.5431830000000  0.5810430000000 1.0
C      1  0.5298730000000  0.4368200000000  0.4980740000000 1.0
C      1  0.4620380000000  0.4763500000000  0.4313640000000 1.0
C      1  0.4609270000000  0.5471980000000  0.4524790000000 1.0
C      1  0.5336640000000  0.4867790000000  0.5163280000000 1.0
C      1  0.4487670000000  0.4208100000000  0.4683610000000 1.0
C      1  0.4373930000000  0.4844620000000  0.4913680000000 1.0
C      1  0.4995930000000  0.4825260000000  0.4485390000000 1.0
C      1  0.5169860000000  0.5171270000000  0.4833640000000 1.0
C      1  0.4627680000000  0.4381910000000  0.5396770000000 1.0
C      1  0.4401340000000  0.5268470000000  0.4972430000000 1.0
C      1  0.5914610000000  0.4797050000000  0.4993940000000 1.0
C      1  0.4915460000000  0.4216080000000  0.4974900000000 1.0
C      1  0.4316830000000  0.4630840000000  0.5508430000000 1.0
C      1  0.4371050000000  0.4666840000000  0.4438630000000 1.0
C      1  0.5524940000000  0.4538100000000  0.4832850000000 1.0
C      1  0.4339660000000  0.4394330000000  0.4536170000000 1.0
C      1  0.4787320000000  0.5034720000000  0.5386710000000 1.0
C      1  0.5011070000000  0.5632110000000  0.5101290000000 1.0
C      1  0.5052870000000  0.4426500000000  0.4878500000000 1.0
C      1  0.5754870000000  0.5293450000000  0.4983940000000 1.0
C      1  0.5069530000000  0.5175730000000  0.5867150000000 1.0
C      1  0.4890130000000  0.5021360000000  0.4690510000000 1.0
C      1  0.5284220000000  0.4808800000000  0.4419360000000 1.0
C      1  0.4970870000000  0.5114090000000  0.4145480000000 1.0
C      1  0.4277230000000  0.5147440000000  0.5370560000000 1.0
C      1  0.4678070000000  0.5274850000000  0.4972440000000 1.0
END
