TITL C-4164234-2335-73 6.60617596055178 125000 -16246.726324883 0 0 111 (C1) n - 1
REM
REM in /home/nfs/bkarasulu/CARBON/AIRSS/Generating-Clusters/ReaxFF-fromJPCA2015/Units_Real/with-SteepDescent/Only-C1/SD-CG/Try1-3A/FIRE-CG
REM
REM
REM
REM
REM
REM ./C.cell (11c1c37f851c82e70ff6c80c92926a4b)
REM
REM compiler GCC version 9.2.1 20190827 (Red Hat 9.2.1-1)
REM options -cpp -mtune=generic -march=x86-64 -g -O0 -fpre-include=/usr/include/finclude/math-vector-fortran.h
REM seed 797785130 2109863377 781402394 -1882990478 2001230159 -1673649158 1759982778 -1113832823 1234615949 -745168363 -1634147850 -637822424 -1128626455 -13308843 -1547687585 992851164 650800501 225945557 -147420905 1470739395 -18486756 309828989 1929021977 1753694576 -319740189 -782705784 254691308 993664344 193523077 1364569914 923031243 529700213 1006093707
REM
CELL 1.54180   50.00000   50.00000   50.00000   90.00000   90.00000   90.00000
LATT -1
SFAC C  
C      1  0.4825170000000  0.4060550000000  0.4928150000000 1.0
C      1  0.4168640000000  0.5529620000000  0.4921590000000 1.0
C      1  0.4925780000000  0.4674130000000  0.5375690000000 1.0
C      1  0.4203980000000  0.4827950000000  0.4479780000000 1.0
C      1  0.4436170000000  0.5745360000000  0.5244440000000 1.0
C      1  0.4812620000000  0.5567210000000  0.5506020000000 1.0
C      1  0.5341640000000  0.4471810000000  0.5370530000000 1.0
C      1  0.4492630000000  0.4947120000000  0.5614490000000 1.0
C      1  0.5464500000000  0.4476450000000  0.5798200000000 1.0
C      1  0.4031550000000  0.4893510000000  0.4926700000000 1.0
C      1  0.5006010000000  0.4935380000000  0.5489580000000 1.0
C      1  0.5654370000000  0.4523010000000  0.4448410000000 1.0
C      1  0.5581160000000  0.5814590000000  0.5053280000000 1.0
C      1  0.5256170000000  0.4381620000000  0.4517560000000 1.0
C      1  0.4672620000000  0.4205480000000  0.4716100000000 1.0
C      1  0.5156330000000  0.4628530000000  0.4641100000000 1.0
C      1  0.5076740000000  0.5419830000000  0.4506730000000 1.0
C      1  0.4691450000000  0.4711330000000  0.5960500000000 1.0
C      1  0.5607260000000  0.5377820000000  0.5497480000000 1.0
C      1  0.4613380000000  0.4936940000000  0.4260630000000 1.0
C      1  0.5281170000000  0.4800150000000  0.4171050000000 1.0
C      1  0.5882460000000  0.4665430000000  0.4937950000000 1.0
C      1  0.5242470000000  0.4895130000000  0.4985970000000 1.0
C      1  0.4643280000000  0.4778880000000  0.4888050000000 1.0
C      1  0.5676990000000  0.4580670000000  0.5627760000000 1.0
C      1  0.5997760000000  0.4910680000000  0.5059490000000 1.0
C      1  0.5165170000000  0.5579480000000  0.5468930000000 1.0
C      1  0.5482060000000  0.5282180000000  0.4295250000000 1.0
C      1  0.4970810000000  0.5069620000000  0.5737030000000 1.0
C      1  0.4054290000000  0.5124800000000  0.5350670000000 1.0
C      1  0.5879160000000  0.5111220000000  0.5242870000000 1.0
C      1  0.5322030000000  0.5353430000000  0.5053300000000 1.0
C      1  0.4249500000000  0.4498290000000  0.4705410000000 1.0
C      1  0.5404850000000  0.5821140000000  0.5243220000000 1.0
C      1  0.4330750000000  0.5024950000000  0.4335760000000 1.0
C      1  0.4808680000000  0.4260730000000  0.4466990000000 1.0
C      1  0.4239180000000  0.5116410000000  0.4919880000000 1.0
C      1  0.4737000000000  0.4706030000000  0.4125500000000 1.0
C      1  0.4485200000000  0.4706610000000  0.5438260000000 1.0
C      1  0.5642230000000  0.4617930000000  0.5331600000000 1.0
C      1  0.5720850000000  0.5565800000000  0.5022050000000 1.0
C      1  0.5555470000000  0.4700840000000  0.4230250000000 1.0
C      1  0.5166250000000  0.5757780000000  0.5226700000000 1.0
C      1  0.5100710000000  0.4052530000000  0.4828040000000 1.0
C      1  0.5750270000000  0.4927470000000  0.4280720000000 1.0
C      1  0.4054530000000  0.4698090000000  0.4681710000000 1.0
C      1  0.5031920000000  0.4647230000000  0.4125240000000 1.0
C      1  0.4888690000000  0.4826580000000  0.4702350000000 1.0
C      1  0.5395710000000  0.5893440000000  0.4853140000000 1.0
C      1  0.4469660000000  0.5792520000000  0.4486950000000 1.0
C      1  0.4838570000000  0.4457610000000  0.4243130000000 1.0
C      1  0.5227700000000  0.5076840000000  0.5388770000000 1.0
C      1  0.4222870000000  0.5080330000000  0.5584250000000 1.0
C      1  0.4978210000000  0.5024900000000  0.4910370000000 1.0
C      1  0.4764330000000  0.5185740000000  0.5051600000000 1.0
C      1  0.3925120000000  0.4886690000000  0.5195410000000 1.0
C      1  0.4521080000000  0.4442250000000  0.5557510000000 1.0
C      1  0.5571620000000  0.4292100000000  0.4899120000000 1.0
C      1  0.5169400000000  0.5329830000000  0.5288230000000 1.0
C      1  0.4173910000000  0.5344440000000  0.5175490000000 1.0
C      1  0.5131420000000  0.5806130000000  0.4752690000000 1.0
C      1  0.5141170000000  0.4624870000000  0.5196470000000 1.0
C      1  0.4832770000000  0.5893860000000  0.4868710000000 1.0
C      1  0.4608370000000  0.5733240000000  0.4231250000000 1.0
C      1  0.4718740000000  0.4455200000000  0.5776340000000 1.0
C      1  0.4684670000000  0.5343910000000  0.5279660000000 1.0
C      1  0.4836740000000  0.4596970000000  0.6145440000000 1.0
C      1  0.5286590000000  0.5278200000000  0.4638420000000 1.0
C      1  0.4631490000000  0.4659720000000  0.5172000000000 1.0
C      1  0.5230970000000  0.4403430000000  0.5643100000000 1.0
C      1  0.5065600000000  0.4153470000000  0.4554350000000 1.0
C      1  0.5318870000000  0.4173100000000  0.4985520000000 1.0
C      1  0.4181230000000  0.5335810000000  0.4709610000000 1.0
C      1  0.5784050000000  0.4972720000000  0.4575760000000 1.0
C      1  0.4828100000000  0.5001410000000  0.4441880000000 1.0
C      1  0.4716400000000  0.5551100000000  0.5760810000000 1.0
C      1  0.4424470000000  0.4328440000000  0.4836470000000 1.0
C      1  0.5506930000000  0.5077080000000  0.5500180000000 1.0
C      1  0.5276670000000  0.5091970000000  0.4208050000000 1.0
C      1  0.4460940000000  0.4412570000000  0.5129600000000 1.0
C      1  0.5688110000000  0.4711240000000  0.4690340000000 1.0
C      1  0.5768100000000  0.5397640000000  0.5255650000000 1.0
C      1  0.4693750000000  0.5823750000000  0.5335700000000 1.0
C      1  0.4543440000000  0.5046160000000  0.4914350000000 1.0
C      1  0.4571260000000  0.5819250000000  0.4769390000000 1.0
C      1  0.5367650000000  0.4746860000000  0.4762430000000 1.0
C      1  0.5487110000000  0.5100320000000  0.5012190000000 1.0
C      1  0.5099550000000  0.5716960000000  0.4452960000000 1.0
C      1  0.4528700000000  0.4224030000000  0.5340900000000 1.0
C      1  0.5188600000000  0.4348180000000  0.5169300000000 1.0
C      1  0.5164780000000  0.5575320000000  0.4964150000000 1.0
C      1  0.4286380000000  0.5311780000000  0.4442850000000 1.0
C      1  0.5639690000000  0.4944670000000  0.5273590000000 1.0
C      1  0.4368420000000  0.5567420000000  0.4335970000000 1.0
C      1  0.4358590000000  0.5748130000000  0.4959730000000 1.0
C      1  0.4735730000000  0.4054920000000  0.5214380000000 1.0
C      1  0.5572930000000  0.4749640000000  0.5848460000000 1.0
C      1  0.5614640000000  0.5436790000000  0.4488640000000 1.0
C      1  0.5736290000000  0.5439420000000  0.4755150000000 1.0
C      1  0.5728390000000  0.4468490000000  0.5077910000000 1.0
C      1  0.4868870000000  0.5737810000000  0.4314130000000 1.0
C      1  0.4423720000000  0.5452690000000  0.5306380000000 1.0
C      1  0.4958050000000  0.4479950000000  0.5613380000000 1.0
C      1  0.5020230000000  0.5182500000000  0.4319780000000 1.0
C      1  0.5246150000000  0.5199320000000  0.5801350000000 1.0
C      1  0.4880870000000  0.5908410000000  0.5144690000000 1.0
C      1  0.5360060000000  0.5425440000000  0.5641400000000 1.0
C      1  0.5467330000000  0.5015220000000  0.5806350000000 1.0
C      1  0.5533090000000  0.4315830000000  0.4605880000000 1.0
C      1  0.5688390000000  0.5155310000000  0.4786820000000 1.0
C      1  0.4704830000000  0.4988310000000  0.5816550000000 1.0
END
