TITL C-4164239-2837-187 1.48002656381115 125000 -5351.26910632111 0 0 38 (C1) n - 1
REM
REM in /home/nfs/bkarasulu/CARBON/AIRSS/Generating-Clusters/ReaxFF-fromJPCA2015/Units_Real/with-SteepDescent/Only-C1/SD-CG/Try1-3A/FIRE-CG
REM
REM
REM
REM
REM
REM ./C.cell (11c1c37f851c82e70ff6c80c92926a4b)
REM
REM compiler GCC version 9.2.1 20190827 (Red Hat 9.2.1-1)
REM options -cpp -mtune=generic -march=x86-64 -g -O0 -fpre-include=/usr/include/finclude/math-vector-fortran.h
REM seed 1239757816 -1846792057 -185637985 965288356 1796873336 733808472 -2017793118 -2127364211 -1189870642 427733647 -104820002 277041851 1912049788 1875070403 -507454960 -1156484375 1484806935 -2139388388 -487182513 738734598 1959851994 -2051650319 681827246 1692372093 1778786070 1459681711 1088011037 1089232728 1690374185 1975017075 -675351694 -692767124 -938854133
REM
CELL 1.54180   50.00000   50.00000   50.00000   90.00000   90.00000   90.00000
LATT -1
SFAC C  
C      1  0.4764980000000  0.4701330000000  0.5463350000000 1.0
C      1  0.4595080000000  0.5090950000000  0.4527830000000 1.0
C      1  0.5061800000000  0.5510460000000  0.4883700000000 1.0
C      1  0.5417150000000  0.5015670000000  0.4974720000000 1.0
C      1  0.5067320000000  0.4710600000000  0.4843230000000 1.0
C      1  0.4859350000000  0.5445430000000  0.5385010000000 1.0
C      1  0.4942730000000  0.5118240000000  0.5124250000000 1.0
C      1  0.4848640000000  0.5229510000000  0.5598220000000 1.0
C      1  0.4433830000000  0.4859090000000  0.4817660000000 1.0
C      1  0.5242280000000  0.4748870000000  0.4600460000000 1.0
C      1  0.4389660000000  0.4988880000000  0.5058860000000 1.0
C      1  0.4644340000000  0.5515700000000  0.4976290000000 1.0
C      1  0.5431180000000  0.4964360000000  0.4687580000000 1.0
C      1  0.5169290000000  0.4837780000000  0.4329560000000 1.0
C      1  0.4720620000000  0.4268200000000  0.5157810000000 1.0
C      1  0.5366900000000  0.5221960000000  0.4563070000000 1.0
C      1  0.4819500000000  0.4561080000000  0.4886510000000 1.0
C      1  0.4688080000000  0.4997640000000  0.5506300000000 1.0
C      1  0.5319150000000  0.5428980000000  0.4766910000000 1.0
C      1  0.5039740000000  0.5387750000000  0.5154990000000 1.0
C      1  0.5186820000000  0.5146290000000  0.4331890000000 1.0
C      1  0.4766470000000  0.4511530000000  0.5186810000000 1.0
C      1  0.4936660000000  0.5258810000000  0.4378600000000 1.0
C      1  0.4595450000000  0.4652820000000  0.4718800000000 1.0
C      1  0.4797950000000  0.4654050000000  0.5705430000000 1.0
C      1  0.5431350000000  0.4314920000000  0.5215340000000 1.0
C      1  0.5407240000000  0.4329300000000  0.5498380000000 1.0
C      1  0.5484580000000  0.5304090000000  0.4976830000000 1.0
C      1  0.4713680000000  0.5355250000000  0.4505610000000 1.0
C      1  0.4601470000000  0.5424400000000  0.5235230000000 1.0
C      1  0.4797320000000  0.5535170000000  0.4748470000000 1.0
C      1  0.5562860000000  0.5406390000000  0.5261870000000 1.0
C      1  0.5550200000000  0.5132120000000  0.5361660000000 1.0
C      1  0.5133300000000  0.4924620000000  0.5030340000000 1.0
C      1  0.4633870000000  0.5116260000000  0.5226230000000 1.0
C      1  0.5468910000000  0.4641390000000  0.5454580000000 1.0
C      1  0.4599660000000  0.4806550000000  0.4442590000000 1.0
C      1  0.5510600000000  0.4883550000000  0.5415050000000 1.0
END
