TITL C-4164233-775-10 15.1429476536781 125000 -21655.2970728803 0 0 143 (C1) n - 1
REM
REM in /home/nfs/bkarasulu/CARBON/AIRSS/Generating-Clusters/ReaxFF-fromJPCA2015/Units_Real/with-SteepDescent/Only-C1/SD-CG/Try1-3A/FIRE-CG
REM
REM
REM
REM
REM
REM ./C.cell (11c1c37f851c82e70ff6c80c92926a4b)
REM
REM compiler GCC version 9.2.1 20190827 (Red Hat 9.2.1-1)
REM options -cpp -mtune=generic -march=x86-64 -g -O0 -fpre-include=/usr/include/finclude/math-vector-fortran.h
REM seed -1008699440 -700130265 -1631314056 -1417220569 1293469680 -1055832418 -893214791 -920939293 -1844321514 -118263586 -1209199084 -1386890383 923263415 -91826056 -1401352714 -2146239925 -910054387 -160469540 -1787313043 627352196 949630973 519788361 174003259 -200370902 346546042 890778319 1498608200 -462743714 1142731127 -1012434754 222109541 105875269 1469044196
REM
CELL 1.54180   50.00000   50.00000   50.00000   90.00000   90.00000   90.00000
LATT -1
SFAC C  
C      1  0.4369750000000  0.5408090000000  0.5286370000000 1.0
C      1  0.4701900000000  0.4636030000000  0.5473730000000 1.0
C      1  0.5736250000000  0.4696730000000  0.4842250000000 1.0
C      1  0.5503440000000  0.4716110000000  0.5022240000000 1.0
C      1  0.5139590000000  0.5111170000000  0.4653940000000 1.0
C      1  0.4824550000000  0.4770490000000  0.5901380000000 1.0
C      1  0.5508960000000  0.5036180000000  0.5805560000000 1.0
C      1  0.4889700000000  0.5414750000000  0.5221530000000 1.0
C      1  0.4838200000000  0.5911560000000  0.5367590000000 1.0
C      1  0.5944830000000  0.4836180000000  0.5260390000000 1.0
C      1  0.4625900000000  0.5274790000000  0.5685280000000 1.0
C      1  0.4365590000000  0.5822200000000  0.5221620000000 1.0
C      1  0.5180180000000  0.4645290000000  0.4581680000000 1.0
C      1  0.4966570000000  0.4714220000000  0.5384080000000 1.0
C      1  0.5874320000000  0.4973840000000  0.5520560000000 1.0
C      1  0.5465000000000  0.5819370000000  0.5638880000000 1.0
C      1  0.5767100000000  0.4309550000000  0.5127490000000 1.0
C      1  0.4608910000000  0.4491240000000  0.5255970000000 1.0
C      1  0.4948740000000  0.5225860000000  0.4818770000000 1.0
C      1  0.5561940000000  0.4198150000000  0.5317380000000 1.0
C      1  0.5457310000000  0.4681930000000  0.4531140000000 1.0
C      1  0.4653560000000  0.5130990000000  0.4771460000000 1.0
C      1  0.4467080000000  0.4023300000000  0.4995990000000 1.0
C      1  0.4442210000000  0.5043960000000  0.5680480000000 1.0
C      1  0.4188010000000  0.4987930000000  0.5556740000000 1.0
C      1  0.5288930000000  0.5045380000000  0.4026690000000 1.0
C      1  0.4646740000000  0.5145960000000  0.4479520000000 1.0
C      1  0.5370560000000  0.4075950000000  0.4906500000000 1.0
C      1  0.5079840000000  0.5525740000000  0.4778860000000 1.0
C      1  0.4231770000000  0.5737280000000  0.4962450000000 1.0
C      1  0.5465610000000  0.5822520000000  0.5330800000000 1.0
C      1  0.5065340000000  0.5362370000000  0.5458950000000 1.0
C      1  0.4958360000000  0.4237510000000  0.5859130000000 1.0
C      1  0.4839900000000  0.5732160000000  0.5615170000000 1.0
C      1  0.4275220000000  0.5415010000000  0.4411200000000 1.0
C      1  0.4637230000000  0.4746270000000  0.4102570000000 1.0
C      1  0.4083910000000  0.5499610000000  0.4895390000000 1.0
C      1  0.5575420000000  0.4319540000000  0.5588360000000 1.0
C      1  0.5961000000000  0.5260250000000  0.4917820000000 1.0
C      1  0.4673380000000  0.5759070000000  0.4381040000000 1.0
C      1  0.5539890000000  0.4063490000000  0.4689470000000 1.0
C      1  0.4915520000000  0.5219170000000  0.5674370000000 1.0
C      1  0.4752620000000  0.4100380000000  0.5673620000000 1.0
C      1  0.5561700000000  0.5310630000000  0.5740670000000 1.0
C      1  0.5089310000000  0.5652590000000  0.5751200000000 1.0
C      1  0.5746970000000  0.4245300000000  0.4830760000000 1.0
C      1  0.5142980000000  0.4501390000000  0.5316160000000 1.0
C      1  0.5045720000000  0.4390240000000  0.4614980000000 1.0
C      1  0.4615500000000  0.4605700000000  0.4675990000000 1.0
C      1  0.4570770000000  0.4764000000000  0.5738820000000 1.0
C      1  0.5343450000000  0.5358720000000  0.5354240000000 1.0
C      1  0.4886840000000  0.4927370000000  0.5211420000000 1.0
C      1  0.4408020000000  0.4884800000000  0.5055700000000 1.0
C      1  0.4624120000000  0.5936020000000  0.5173800000000 1.0
C      1  0.5073420000000  0.5946760000000  0.4518940000000 1.0
C      1  0.4415460000000  0.5661860000000  0.4478770000000 1.0
C      1  0.4919150000000  0.4674670000000  0.4036400000000 1.0
C      1  0.5626100000000  0.5502850000000  0.4349770000000 1.0
C      1  0.5040350000000  0.5137260000000  0.5098110000000 1.0
C      1  0.4785900000000  0.5935300000000  0.4587840000000 1.0
C      1  0.5574820000000  0.4599310000000  0.5508200000000 1.0
C      1  0.5322060000000  0.5136580000000  0.5179820000000 1.0
C      1  0.5101650000000  0.4450050000000  0.4110260000000 1.0
C      1  0.5411650000000  0.4592010000000  0.5266410000000 1.0
C      1  0.4248970000000  0.4667920000000  0.4390010000000 1.0
C      1  0.5237110000000  0.5333070000000  0.4088590000000 1.0
C      1  0.3864890000000  0.4906010000000  0.5183210000000 1.0
C      1  0.5635970000000  0.4870900000000  0.4648690000000 1.0
C      1  0.5122630000000  0.5640080000000  0.4444220000000 1.0
C      1  0.4784870000000  0.4903540000000  0.4431980000000 1.0
C      1  0.5691950000000  0.4559230000000  0.4403770000000 1.0
C      1  0.4425030000000  0.5186940000000  0.4295160000000 1.0
C      1  0.4552890000000  0.4640500000000  0.4380160000000 1.0
C      1  0.4085010000000  0.4534910000000  0.4586930000000 1.0
C      1  0.5272210000000  0.6000030000000  0.4697680000000 1.0
C      1  0.5503370000000  0.5570500000000  0.5223040000000 1.0
C      1  0.4949970000000  0.5390310000000  0.4068970000000 1.0
C      1  0.5726800000000  0.4806640000000  0.4247930000000 1.0
C      1  0.4122690000000  0.4707380000000  0.5158880000000 1.0
C      1  0.5338640000000  0.4126510000000  0.4489690000000 1.0
C      1  0.4230560000000  0.4452990000000  0.5554250000000 1.0
C      1  0.5379310000000  0.5571550000000  0.5774900000000 1.0
C      1  0.5039920000000  0.4882800000000  0.4534940000000 1.0
C      1  0.5867080000000  0.5353530000000  0.4662130000000 1.0
C      1  0.4939190000000  0.5664490000000  0.4999870000000 1.0
C      1  0.5230240000000  0.4214480000000  0.5808760000000 1.0
C      1  0.4171940000000  0.4352540000000  0.4800920000000 1.0
C      1  0.4010160000000  0.5099840000000  0.5338360000000 1.0
C      1  0.4373740000000  0.5641480000000  0.5454160000000 1.0
C      1  0.4691450000000  0.5862280000000  0.4866170000000 1.0
C      1  0.5498460000000  0.4840170000000  0.4063770000000 1.0
C      1  0.4158600000000  0.4426120000000  0.5071860000000 1.0
C      1  0.5677920000000  0.4830110000000  0.5660190000000 1.0
C      1  0.5792650000000  0.5603380000000  0.5233430000000 1.0
C      1  0.4998730000000  0.4996810000000  0.5849460000000 1.0
C      1  0.4984260000000  0.4530810000000  0.5946110000000 1.0
C      1  0.4159900000000  0.5301260000000  0.5118250000000 1.0
C      1  0.4621050000000  0.5286080000000  0.5241640000000 1.0
C      1  0.4334060000000  0.4083060000000  0.4751640000000 1.0
C      1  0.5802580000000  0.5257510000000  0.5584020000000 1.0
C      1  0.4531750000000  0.4056580000000  0.5257590000000 1.0
C      1  0.5383170000000  0.5246690000000  0.4670340000000 1.0
C      1  0.5263680000000  0.4610030000000  0.5947990000000 1.0
C      1  0.5025190000000  0.4939460000000  0.3963650000000 1.0
C      1  0.5348030000000  0.5534130000000  0.4267250000000 1.0
C      1  0.5321700000000  0.4115150000000  0.5172390000000 1.0
C      1  0.5441980000000  0.4379960000000  0.5850720000000 1.0
C      1  0.5777070000000  0.5017900000000  0.4444900000000 1.0
C      1  0.4887310000000  0.5590920000000  0.4270540000000 1.0
C      1  0.5344800000000  0.4581540000000  0.4021990000000 1.0
C      1  0.4343480000000  0.4324480000000  0.5294530000000 1.0
C      1  0.4814470000000  0.5144540000000  0.3981790000000 1.0
C      1  0.4580350000000  0.4851310000000  0.4825020000000 1.0
C      1  0.5371100000000  0.5483570000000  0.4849270000000 1.0
C      1  0.5046680000000  0.5898060000000  0.5161620000000 1.0
C      1  0.5832480000000  0.5024100000000  0.5053590000000 1.0
C      1  0.5876550000000  0.4563260000000  0.5207310000000 1.0
C      1  0.5809320000000  0.4469320000000  0.4661820000000 1.0
C      1  0.4129140000000  0.4711050000000  0.5464470000000 1.0
C      1  0.5026970000000  0.4238010000000  0.5246270000000 1.0
C      1  0.5751370000000  0.5610170000000  0.4598830000000 1.0
C      1  0.4795570000000  0.4404660000000  0.4782720000000 1.0
C      1  0.6007280000000  0.5453710000000  0.5134710000000 1.0
C      1  0.4090780000000  0.5360880000000  0.4638500000000 1.0
C      1  0.4425320000000  0.5779940000000  0.4750810000000 1.0
C      1  0.5269150000000  0.4900110000000  0.5907280000000 1.0
C      1  0.5124340000000  0.4255800000000  0.4361880000000 1.0
C      1  0.4287500000000  0.5109000000000  0.4933110000000 1.0
C      1  0.4103850000000  0.5073920000000  0.4706580000000 1.0
C      1  0.4545660000000  0.4268250000000  0.5760300000000 1.0
C      1  0.5553480000000  0.5710360000000  0.4797860000000 1.0
C      1  0.4790360000000  0.4079240000000  0.5384570000000 1.0
C      1  0.4813390000000  0.4385370000000  0.5071510000000 1.0
C      1  0.5536700000000  0.4997600000000  0.5053980000000 1.0
C      1  0.4615970000000  0.5005400000000  0.5222980000000 1.0
C      1  0.4394870000000  0.4496690000000  0.5788100000000 1.0
C      1  0.4563380000000  0.5036580000000  0.4079360000000 1.0
C      1  0.4596440000000  0.5566330000000  0.5630180000000 1.0
C      1  0.5942820000000  0.5449410000000  0.5411000000000 1.0
C      1  0.4065930000000  0.4833210000000  0.4543320000000 1.0
C      1  0.5324180000000  0.5981710000000  0.5164140000000 1.0
C      1  0.5566830000000  0.5224550000000  0.4438510000000 1.0
C      1  0.5458040000000  0.5980380000000  0.4900260000000 1.0
END
