TITL C-4164240-4114-585 4.27783049064531 125000 -17631.7636708301 0 0 117 (C1) n - 1
REM
REM in /home/nfs/bkarasulu/CARBON/AIRSS/Generating-Clusters/ReaxFF-fromJPCA2015/Units_Real/with-SteepDescent/Only-C1/SD-CG/Try1-3A/FIRE-CG
REM
REM
REM
REM
REM
REM ./C.cell (11c1c37f851c82e70ff6c80c92926a4b)
REM
REM compiler GCC version 9.2.1 20190827 (Red Hat 9.2.1-1)
REM options -cpp -mtune=generic -march=x86-64 -g -O0 -fpre-include=/usr/include/finclude/math-vector-fortran.h
REM seed 1112574410 -1014022106 -1515469936 -1332609575 -370273959 -813238398 1925175272 -1569773398 -1343844346 -327942563 -1008692665 -6785935 1368032755 1919968268 -711716912 -1510761185 -489637345 2028665769 -597807376 -517632112 1042134304 1535347120 750811322 -1999673149 1630186013 -538733057 -164506592 917294460 1129905152 -1535244247 1991948734 515847060 -397736221
REM
CELL 1.54180   50.00000   50.00000   50.00000   90.00000   90.00000   90.00000
LATT -1
SFAC C  
C      1  0.4957880000000  0.4073430000000  0.4459140000000 1.0
C      1  0.5254440000000  0.5359080000000  0.4965640000000 1.0
C      1  0.5657420000000  0.4263190000000  0.5360670000000 1.0
C      1  0.5515720000000  0.5184100000000  0.5037200000000 1.0
C      1  0.4534530000000  0.4525670000000  0.4593540000000 1.0
C      1  0.4790010000000  0.5743200000000  0.4722080000000 1.0
C      1  0.5186000000000  0.4951360000000  0.4063760000000 1.0
C      1  0.4926190000000  0.4579700000000  0.4858550000000 1.0
C      1  0.4409380000000  0.5560980000000  0.5453030000000 1.0
C      1  0.4316440000000  0.5406420000000  0.5219410000000 1.0
C      1  0.4751000000000  0.5335660000000  0.5805030000000 1.0
C      1  0.5967720000000  0.5273300000000  0.5114450000000 1.0
C      1  0.5234360000000  0.5813560000000  0.5455370000000 1.0
C      1  0.5904460000000  0.4838150000000  0.4873650000000 1.0
C      1  0.5564180000000  0.4452130000000  0.4754260000000 1.0
C      1  0.4201960000000  0.5173870000000  0.4400960000000 1.0
C      1  0.4899750000000  0.5284670000000  0.4713700000000 1.0
C      1  0.4307040000000  0.5219580000000  0.5669160000000 1.0
C      1  0.5890660000000  0.4984640000000  0.5405690000000 1.0
C      1  0.4410330000000  0.5279830000000  0.4749790000000 1.0
C      1  0.5315340000000  0.5053370000000  0.4554880000000 1.0
C      1  0.4515220000000  0.5463310000000  0.4361230000000 1.0
C      1  0.4484310000000  0.4776030000000  0.4489900000000 1.0
C      1  0.4477930000000  0.5434390000000  0.5711600000000 1.0
C      1  0.5232330000000  0.5686230000000  0.4973290000000 1.0
C      1  0.5470150000000  0.4904730000000  0.4946270000000 1.0
C      1  0.5117340000000  0.4149830000000  0.4780480000000 1.0
C      1  0.4705370000000  0.4288200000000  0.5370170000000 1.0
C      1  0.5923830000000  0.5279470000000  0.5404020000000 1.0
C      1  0.4671460000000  0.5034470000000  0.5422940000000 1.0
C      1  0.4144440000000  0.4372730000000  0.4801190000000 1.0
C      1  0.5458160000000  0.4830030000000  0.5721530000000 1.0
C      1  0.5456600000000  0.5118300000000  0.5342400000000 1.0
C      1  0.4302940000000  0.4680510000000  0.5221100000000 1.0
C      1  0.5000490000000  0.5450030000000  0.5730130000000 1.0
C      1  0.5723160000000  0.5460710000000  0.5547630000000 1.0
C      1  0.4620620000000  0.4611810000000  0.5903900000000 1.0
C      1  0.4071520000000  0.5046160000000  0.4632040000000 1.0
C      1  0.5013540000000  0.4286130000000  0.5484590000000 1.0
C      1  0.5250590000000  0.5011310000000  0.5820010000000 1.0
C      1  0.4782250000000  0.5548510000000  0.4497630000000 1.0
C      1  0.4663310000000  0.5873420000000  0.5176520000000 1.0
C      1  0.5862250000000  0.4979610000000  0.4615860000000 1.0
C      1  0.4297800000000  0.4240200000000  0.4941200000000 1.0
C      1  0.5174610000000  0.4821950000000  0.4515480000000 1.0
C      1  0.4564440000000  0.4535360000000  0.5383060000000 1.0
C      1  0.4528420000000  0.5020500000000  0.4668940000000 1.0
C      1  0.5034500000000  0.4749270000000  0.5363230000000 1.0
C      1  0.4836120000000  0.4352570000000  0.4452390000000 1.0
C      1  0.4162710000000  0.5154380000000  0.5194260000000 1.0
C      1  0.4753690000000  0.4747690000000  0.5460760000000 1.0
C      1  0.4984610000000  0.5148430000000  0.4092590000000 1.0
C      1  0.4276070000000  0.5426490000000  0.4531180000000 1.0
C      1  0.5775670000000  0.5261660000000  0.4615580000000 1.0
C      1  0.5148910000000  0.4993400000000  0.5229340000000 1.0
C      1  0.4808810000000  0.5256870000000  0.5004530000000 1.0
C      1  0.5387600000000  0.4538610000000  0.5752940000000 1.0
C      1  0.5016050000000  0.5715550000000  0.5579000000000 1.0
C      1  0.5232020000000  0.5736710000000  0.4522220000000 1.0
C      1  0.5734800000000  0.4805360000000  0.4421550000000 1.0
C      1  0.4748080000000  0.5058440000000  0.5890760000000 1.0
C      1  0.5538770000000  0.5009090000000  0.4361360000000 1.0
C      1  0.4634830000000  0.5048170000000  0.5122880000000 1.0
C      1  0.4994820000000  0.4905170000000  0.5910570000000 1.0
C      1  0.4110990000000  0.4600640000000  0.4980150000000 1.0
C      1  0.5509240000000  0.5644020000000  0.4584880000000 1.0
C      1  0.4296210000000  0.4438420000000  0.4601580000000 1.0
C      1  0.5606430000000  0.5416690000000  0.4432370000000 1.0
C      1  0.4549430000000  0.5808320000000  0.5412760000000 1.0
C      1  0.5051420000000  0.5249640000000  0.5143000000000 1.0
C      1  0.4547190000000  0.4279600000000  0.4998340000000 1.0
C      1  0.4202050000000  0.4930290000000  0.5377810000000 1.0
C      1  0.5405200000000  0.4475380000000  0.4259580000000 1.0
C      1  0.4807390000000  0.5032280000000  0.4665440000000 1.0
C      1  0.5636290000000  0.5652610000000  0.4849560000000 1.0
C      1  0.5008710000000  0.4395340000000  0.4693050000000 1.0
C      1  0.5009090000000  0.4821240000000  0.4748940000000 1.0
C      1  0.5484320000000  0.5801780000000  0.5046650000000 1.0
C      1  0.5195490000000  0.4841830000000  0.4989470000000 1.0
C      1  0.5658050000000  0.4684780000000  0.4912050000000 1.0
C      1  0.4826980000000  0.5877620000000  0.5416900000000 1.0
C      1  0.4721380000000  0.4116270000000  0.5133970000000 1.0
C      1  0.5546920000000  0.4396460000000  0.5574530000000 1.0
C      1  0.4517360000000  0.4789950000000  0.5047060000000 1.0
C      1  0.5109120000000  0.4440700000000  0.5750280000000 1.0
C      1  0.4641330000000  0.4551750000000  0.4895950000000 1.0
C      1  0.5759070000000  0.5368100000000  0.4899670000000 1.0
C      1  0.4994180000000  0.4057390000000  0.5042280000000 1.0
C      1  0.5599480000000  0.4531300000000  0.4455120000000 1.0
C      1  0.4511930000000  0.4877560000000  0.5851480000000 1.0
C      1  0.4876780000000  0.4576650000000  0.4257620000000 1.0
C      1  0.4445200000000  0.5471950000000  0.4971370000000 1.0
C      1  0.4708870000000  0.5050540000000  0.4156660000000 1.0
C      1  0.5442470000000  0.5083140000000  0.4090600000000 1.0
C      1  0.5619380000000  0.4909130000000  0.5489100000000 1.0
C      1  0.4263740000000  0.4949710000000  0.5665940000000 1.0
C      1  0.5143430000000  0.4500170000000  0.5329000000000 1.0
C      1  0.5383970000000  0.4264630000000  0.5167840000000 1.0
C      1  0.5141680000000  0.5396510000000  0.4173580000000 1.0
C      1  0.5155740000000  0.4691560000000  0.4247190000000 1.0
C      1  0.5164430000000  0.4096300000000  0.5270010000000 1.0
C      1  0.5489590000000  0.5859760000000  0.5352810000000 1.0
C      1  0.4003890000000  0.4823710000000  0.4831500000000 1.0
C      1  0.5434690000000  0.5361050000000  0.4186440000000 1.0
C      1  0.5990850000000  0.4982900000000  0.5114350000000 1.0
C      1  0.5043180000000  0.5601480000000  0.4347660000000 1.0
C      1  0.5392900000000  0.4258860000000  0.4873840000000 1.0
C      1  0.4616670000000  0.5708740000000  0.4946960000000 1.0
C      1  0.5726770000000  0.5753970000000  0.5511450000000 1.0
C      1  0.4675580000000  0.4778740000000  0.4257150000000 1.0
C      1  0.4034990000000  0.5091450000000  0.4929700000000 1.0
C      1  0.4475120000000  0.5210900000000  0.4233230000000 1.0
C      1  0.5452200000000  0.5345170000000  0.5539260000000 1.0
C      1  0.5247990000000  0.5296970000000  0.5743550000000 1.0
C      1  0.5183950000000  0.5264210000000  0.4701140000000 1.0
C      1  0.5075140000000  0.5807040000000  0.4759830000000 1.0
C      1  0.4929620000000  0.4617100000000  0.5891170000000 1.0
END
