TITL C-4164242-3624-787 16.8557495433776 125000 -14364.0775704203 0 0 99 (C1) n - 1
REM
REM in /home/nfs/bkarasulu/CARBON/AIRSS/Generating-Clusters/ReaxFF-fromJPCA2015/Units_Real/with-SteepDescent/Only-C1/SD-CG/Try1-3A/FIRE-CG
REM
REM
REM
REM
REM
REM ./C.cell (11c1c37f851c82e70ff6c80c92926a4b)
REM
REM compiler GCC version 9.2.1 20190827 (Red Hat 9.2.1-1)
REM options -cpp -mtune=generic -march=x86-64 -g -O0 -fpre-include=/usr/include/finclude/math-vector-fortran.h
REM seed -1000739650 -1966196047 856858731 -820101535 -738878345 -483820271 879100444 1920787542 725175809 328300956 1816253097 791032962 -28121133 -224622125 -952827136 -956696799 1768322308 -1230783874 -704007439 1780235389 715726613 262059718 2033694721 -94188921 -1652219857 1690484811 1133931390 1573377398 1852004456 -1059283319 429740556 -393400554 1611504491
REM
CELL 1.54180   50.00000   50.00000   50.00000   90.00000   90.00000   90.00000
LATT -1
SFAC C  
C      1  0.4978410000000  0.4822070000000  0.4369670000000 1.0
C      1  0.4634230000000  0.4861030000000  0.5018740000000 1.0
C      1  0.5723870000000  0.5470050000000  0.4878730000000 1.0
C      1  0.5126820000000  0.5820140000000  0.5054630000000 1.0
C      1  0.5627120000000  0.5124440000000  0.5041820000000 1.0
C      1  0.4908990000000  0.4366750000000  0.4402680000000 1.0
C      1  0.4989160000000  0.5342730000000  0.4622510000000 1.0
C      1  0.4226840000000  0.4631020000000  0.5346480000000 1.0
C      1  0.4778130000000  0.5078290000000  0.5405220000000 1.0
C      1  0.4892590000000  0.5018270000000  0.5674610000000 1.0
C      1  0.5290180000000  0.4176950000000  0.4918550000000 1.0
C      1  0.5743970000000  0.4771240000000  0.5452250000000 1.0
C      1  0.4570570000000  0.5769600000000  0.4670480000000 1.0
C      1  0.5625010000000  0.4504480000000  0.5083400000000 1.0
C      1  0.5276440000000  0.5729960000000  0.4337530000000 1.0
C      1  0.5538390000000  0.4799050000000  0.4474850000000 1.0
C      1  0.5189330000000  0.4674150000000  0.5794820000000 1.0
C      1  0.5158840000000  0.5223290000000  0.5731510000000 1.0
C      1  0.4709760000000  0.5635560000000  0.5311380000000 1.0
C      1  0.4309050000000  0.5039170000000  0.5349020000000 1.0
C      1  0.4616510000000  0.5166380000000  0.4624870000000 1.0
C      1  0.5813100000000  0.4711970000000  0.5171740000000 1.0
C      1  0.5125900000000  0.4641700000000  0.5087650000000 1.0
C      1  0.4273820000000  0.4468070000000  0.5125120000000 1.0
C      1  0.4481070000000  0.4836300000000  0.5763340000000 1.0
C      1  0.5479160000000  0.5150680000000  0.4788740000000 1.0
C      1  0.4347060000000  0.4973670000000  0.5056090000000 1.0
C      1  0.4544790000000  0.4384640000000  0.5563650000000 1.0
C      1  0.4725020000000  0.4213830000000  0.5136600000000 1.0
C      1  0.5411890000000  0.4952850000000  0.4265910000000 1.0
C      1  0.5475510000000  0.4927070000000  0.5158350000000 1.0
C      1  0.4284330000000  0.4563050000000  0.4836170000000 1.0
C      1  0.4943170000000  0.5355250000000  0.4944570000000 1.0
C      1  0.5510620000000  0.5622830000000  0.5356550000000 1.0
C      1  0.4916420000000  0.5621200000000  0.5110580000000 1.0
C      1  0.5694100000000  0.5041750000000  0.5579280000000 1.0
C      1  0.4666750000000  0.5656610000000  0.4426300000000 1.0
C      1  0.5366260000000  0.5805230000000  0.5201670000000 1.0
C      1  0.5106790000000  0.5085870000000  0.4555700000000 1.0
C      1  0.5219200000000  0.5008770000000  0.4822110000000 1.0
C      1  0.4751980000000  0.5374930000000  0.4460070000000 1.0
C      1  0.4657520000000  0.5091150000000  0.4112260000000 1.0
C      1  0.5007020000000  0.4220860000000  0.4843390000000 1.0
C      1  0.4446780000000  0.4392840000000  0.4661970000000 1.0
C      1  0.4931580000000  0.4692540000000  0.5644230000000 1.0
C      1  0.4273670000000  0.4847770000000  0.4805210000000 1.0
C      1  0.5552460000000  0.4564170000000  0.5509380000000 1.0
C      1  0.5059720000000  0.5507780000000  0.5660670000000 1.0
C      1  0.5323500000000  0.4897480000000  0.5906630000000 1.0
C      1  0.5283240000000  0.5779590000000  0.4798120000000 1.0
C      1  0.5324620000000  0.4711040000000  0.5554650000000 1.0
C      1  0.4981980000000  0.4521280000000  0.4873990000000 1.0
C      1  0.5114090000000  0.4570340000000  0.4387970000000 1.0
C      1  0.4817510000000  0.5873980000000  0.4560770000000 1.0
C      1  0.4465290000000  0.5536850000000  0.4848450000000 1.0
C      1  0.5818660000000  0.4914220000000  0.4959190000000 1.0
C      1  0.5430310000000  0.5500410000000  0.4441970000000 1.0
C      1  0.4335520000000  0.5062700000000  0.4593280000000 1.0
C      1  0.5354620000000  0.4285810000000  0.4639830000000 1.0
C      1  0.4674170000000  0.4737600000000  0.4343020000000 1.0
C      1  0.5406420000000  0.4686360000000  0.5008800000000 1.0
C      1  0.5380910000000  0.4552590000000  0.4510060000000 1.0
C      1  0.4632890000000  0.4468910000000  0.4440400000000 1.0
C      1  0.4774330000000  0.5523530000000  0.5586970000000 1.0
C      1  0.5150550000000  0.4891930000000  0.4139310000000 1.0
C      1  0.5243760000000  0.5210750000000  0.5470690000000 1.0
C      1  0.4228610000000  0.5471140000000  0.5181460000000 1.0
C      1  0.4453100000000  0.5625330000000  0.5161830000000 1.0
C      1  0.4254480000000  0.5323470000000  0.4727070000000 1.0
C      1  0.5703770000000  0.4976590000000  0.4684300000000 1.0
C      1  0.4960640000000  0.5092110000000  0.4027030000000 1.0
C      1  0.5141870000000  0.5313800000000  0.4067990000000 1.0
C      1  0.5724100000000  0.5254950000000  0.5401170000000 1.0
C      1  0.5850470000000  0.5289770000000  0.4698600000000 1.0
C      1  0.4980830000000  0.4300560000000  0.5275610000000 1.0
C      1  0.5511210000000  0.4356070000000  0.5304710000000 1.0
C      1  0.5066250000000  0.5091320000000  0.5054900000000 1.0
C      1  0.4659520000000  0.5313840000000  0.4862860000000 1.0
C      1  0.5116200000000  0.5844450000000  0.4571010000000 1.0
C      1  0.4574490000000  0.5335480000000  0.5697090000000 1.0
C      1  0.5264370000000  0.4231270000000  0.5205360000000 1.0
C      1  0.4621730000000  0.4342570000000  0.4889200000000 1.0
C      1  0.5729270000000  0.5458850000000  0.5211180000000 1.0
C      1  0.5083140000000  0.4194260000000  0.4559360000000 1.0
C      1  0.5473080000000  0.5551510000000  0.4732750000000 1.0
C      1  0.5282370000000  0.4948380000000  0.5374460000000 1.0
C      1  0.4191740000000  0.5262740000000  0.4994490000000 1.0
C      1  0.5471420000000  0.5098030000000  0.5780890000000 1.0
C      1  0.4526740000000  0.5223660000000  0.5428230000000 1.0
C      1  0.5249010000000  0.5489880000000  0.5434530000000 1.0
C      1  0.4973010000000  0.4585880000000  0.5336660000000 1.0
C      1  0.4487090000000  0.4957900000000  0.4299030000000 1.0
C      1  0.4715880000000  0.4619610000000  0.4883990000000 1.0
C      1  0.5317440000000  0.5238680000000  0.4318160000000 1.0
C      1  0.4651570000000  0.4600530000000  0.5731690000000 1.0
C      1  0.4483040000000  0.4300770000000  0.5286270000000 1.0
C      1  0.4633620000000  0.5076750000000  0.5819280000000 1.0
C      1  0.4857970000000  0.4934790000000  0.5177950000000 1.0
C      1  0.4269720000000  0.4831630000000  0.5545680000000 1.0
END
