TITL C-4164245-3996-414 48.4977174632346 125000 -25049.3253385302 0 0 167 (C1) n - 1
REM
REM in /home/nfs/bkarasulu/CARBON/AIRSS/Generating-Clusters/ReaxFF-fromJPCA2015/Units_Real/with-SteepDescent/Only-C1/SD-CG/Try1-3A/FIRE-CG
REM
REM
REM
REM
REM
REM ./C.cell (11c1c37f851c82e70ff6c80c92926a4b)
REM
REM compiler GCC version 9.2.1 20190827 (Red Hat 9.2.1-1)
REM options -cpp -mtune=generic -march=x86-64 -g -O0 -fpre-include=/usr/include/finclude/math-vector-fortran.h
REM seed -1313818217 -2116454418 815539178 19567991 -107840113 752119763 -1037375772 -373150658 -1044765832 1461382057 2060844921 1864633402 -338202423 -785865590 1202747050 -1789919303 -29509919 1840138396 -1433564086 1115840029 -1532953602 345505891 -1001923701 381655370 329945783 269797020 1045873291 826583672 879035677 -1918919288 -905994772 -1923543950 2115855323
REM
CELL 1.54180   50.00000   50.00000   50.00000   90.00000   90.00000   90.00000
LATT -1
SFAC C  
C      1  0.4811920000000  0.5731700000000  0.4239830000000 1.0
C      1  0.4477560000000  0.4909380000000  0.5341220000000 1.0
C      1  0.5104500000000  0.5699510000000  0.5233940000000 1.0
C      1  0.5005990000000  0.4135680000000  0.4377230000000 1.0
C      1  0.4495950000000  0.5860180000000  0.4917830000000 1.0
C      1  0.4905110000000  0.4381590000000  0.4802870000000 1.0
C      1  0.4956230000000  0.4144050000000  0.5854980000000 1.0
C      1  0.5229640000000  0.6084150000000  0.4982890000000 1.0
C      1  0.5506050000000  0.4910950000000  0.5326740000000 1.0
C      1  0.5628330000000  0.5816310000000  0.4812510000000 1.0
C      1  0.4107830000000  0.4634940000000  0.5628120000000 1.0
C      1  0.5031770000000  0.4903950000000  0.5350660000000 1.0
C      1  0.3844740000000  0.4708550000000  0.5093530000000 1.0
C      1  0.3888840000000  0.5453660000000  0.4800630000000 1.0
C      1  0.4131590000000  0.4492670000000  0.4760120000000 1.0
C      1  0.4709940000000  0.4811550000000  0.4139230000000 1.0
C      1  0.4208100000000  0.5157680000000  0.5687110000000 1.0
C      1  0.5842370000000  0.5018170000000  0.4202990000000 1.0
C      1  0.5246350000000  0.4059750000000  0.5073490000000 1.0
C      1  0.4044780000000  0.4913090000000  0.5543480000000 1.0
C      1  0.4176250000000  0.5532340000000  0.5167050000000 1.0
C      1  0.5355520000000  0.5432930000000  0.5906880000000 1.0
C      1  0.5004070000000  0.4632420000000  0.4102860000000 1.0
C      1  0.5730810000000  0.5406170000000  0.5498200000000 1.0
C      1  0.4828320000000  0.5109000000000  0.4180070000000 1.0
C      1  0.5246840000000  0.5889110000000  0.5637920000000 1.0
C      1  0.5373830000000  0.5962780000000  0.4752790000000 1.0
C      1  0.4123020000000  0.5624480000000  0.4883400000000 1.0
C      1  0.4523860000000  0.5876610000000  0.5212970000000 1.0
C      1  0.4799740000000  0.5522980000000  0.5875420000000 1.0
C      1  0.4224600000000  0.4745830000000  0.4300790000000 1.0
C      1  0.4520270000000  0.4497480000000  0.5826320000000 1.0
C      1  0.4635920000000  0.4153160000000  0.5419350000000 1.0
C      1  0.5946120000000  0.5181880000000  0.4421600000000 1.0
C      1  0.4993120000000  0.4375780000000  0.5512590000000 1.0
C      1  0.4985870000000  0.4110660000000  0.4933460000000 1.0
C      1  0.5804760000000  0.4801760000000  0.4612770000000 1.0
C      1  0.4051900000000  0.4663100000000  0.4526670000000 1.0
C      1  0.4665030000000  0.5042290000000  0.5517490000000 1.0
C      1  0.5052870000000  0.5329520000000  0.5886560000000 1.0
C      1  0.4531910000000  0.5173270000000  0.4963110000000 1.0
C      1  0.4544250000000  0.4342060000000  0.4386630000000 1.0
C      1  0.5508440000000  0.4873660000000  0.4625320000000 1.0
C      1  0.4333600000000  0.5731540000000  0.4706480000000 1.0
C      1  0.4206700000000  0.5039970000000  0.4324590000000 1.0
C      1  0.5521550000000  0.4928270000000  0.5049160000000 1.0
C      1  0.5197250000000  0.5318640000000  0.3993180000000 1.0
C      1  0.3934170000000  0.4852540000000  0.5311220000000 1.0
C      1  0.5285310000000  0.5300070000000  0.5399430000000 1.0
C      1  0.5327940000000  0.4962770000000  0.5952930000000 1.0
C      1  0.4795420000000  0.4591350000000  0.5494530000000 1.0
C      1  0.4321870000000  0.4974870000000  0.5888380000000 1.0
C      1  0.5493670000000  0.5095900000000  0.4823690000000 1.0
C      1  0.5282580000000  0.4821130000000  0.4124350000000 1.0
C      1  0.3984750000000  0.4456140000000  0.5013490000000 1.0
C      1  0.5466440000000  0.5179810000000  0.5817100000000 1.0
C      1  0.4343790000000  0.5075910000000  0.5142360000000 1.0
C      1  0.5309370000000  0.5461910000000  0.4240510000000 1.0
C      1  0.4472900000000  0.5606400000000  0.4467400000000 1.0
C      1  0.4569610000000  0.5086460000000  0.5969040000000 1.0
C      1  0.4679380000000  0.4199560000000  0.5133910000000 1.0
C      1  0.5435510000000  0.5399020000000  0.5155370000000 1.0
C      1  0.4845220000000  0.5632250000000  0.5155300000000 1.0
C      1  0.4585490000000  0.4641870000000  0.5299800000000 1.0
C      1  0.5916440000000  0.4580650000000  0.4764990000000 1.0
C      1  0.4888230000000  0.4100570000000  0.5574890000000 1.0
C      1  0.4288040000000  0.5023760000000  0.4614030000000 1.0
C      1  0.5956330000000  0.5223670000000  0.5055860000000 1.0
C      1  0.3999980000000  0.4911640000000  0.4665030000000 1.0
C      1  0.4907970000000  0.5310510000000  0.3981460000000 1.0
C      1  0.4507200000000  0.4650490000000  0.4358460000000 1.0
C      1  0.4443330000000  0.4122120000000  0.4820380000000 1.0
C      1  0.5264240000000  0.5580380000000  0.5032480000000 1.0
C      1  0.5529760000000  0.4322630000000  0.4573560000000 1.0
C      1  0.6015170000000  0.4701010000000  0.5018740000000 1.0
C      1  0.4455270000000  0.4315680000000  0.5593040000000 1.0
C      1  0.6073810000000  0.4982690000000  0.4935370000000 1.0
C      1  0.5108120000000  0.4539540000000  0.4603730000000 1.0
C      1  0.4781210000000  0.5300640000000  0.5482880000000 1.0
C      1  0.4352760000000  0.5395930000000  0.5634730000000 1.0
C      1  0.4947150000000  0.6118120000000  0.5081340000000 1.0
C      1  0.4382650000000  0.5605490000000  0.5367340000000 1.0
C      1  0.5360010000000  0.5772250000000  0.4288050000000 1.0
C      1  0.5374100000000  0.4056360000000  0.4656940000000 1.0
C      1  0.5624280000000  0.4181210000000  0.5330730000000 1.0
C      1  0.5182520000000  0.5549790000000  0.4769780000000 1.0
C      1  0.5257440000000  0.4545950000000  0.5930170000000 1.0
C      1  0.4424980000000  0.5244410000000  0.4727840000000 1.0
C      1  0.4507130000000  0.4764680000000  0.4650780000000 1.0
C      1  0.5338050000000  0.5672020000000  0.5772370000000 1.0
C      1  0.5263590000000  0.4404920000000  0.5434900000000 1.0
C      1  0.5153340000000  0.5241080000000  0.4461660000000 1.0
C      1  0.4115840000000  0.4296600000000  0.5213670000000 1.0
C      1  0.4467700000000  0.5486450000000  0.4193600000000 1.0
C      1  0.5675470000000  0.5663080000000  0.5359550000000 1.0
C      1  0.5088200000000  0.4033940000000  0.4654920000000 1.0
C      1  0.5491120000000  0.4023360000000  0.4918340000000 1.0
C      1  0.5515560000000  0.5144550000000  0.5520040000000 1.0
C      1  0.5853720000000  0.4273960000000  0.5210440000000 1.0
C      1  0.5469700000000  0.4656810000000  0.5004510000000 1.0
C      1  0.4797880000000  0.4896930000000  0.5999800000000 1.0
C      1  0.5829020000000  0.4474500000000  0.4328790000000 1.0
C      1  0.5399490000000  0.4588960000000  0.4725190000000 1.0
C      1  0.4393420000000  0.4572620000000  0.4837490000000 1.0
C      1  0.5933610000000  0.4917930000000  0.5684150000000 1.0
C      1  0.5237510000000  0.4948220000000  0.4431700000000 1.0
C      1  0.5938840000000  0.4665220000000  0.5537130000000 1.0
C      1  0.4282790000000  0.4082730000000  0.5061640000000 1.0
C      1  0.5942190000000  0.5213120000000  0.5564740000000 1.0
C      1  0.5475660000000  0.5873980000000  0.5440010000000 1.0
C      1  0.4628690000000  0.4251960000000  0.4655330000000 1.0
C      1  0.4786530000000  0.5075430000000  0.4916310000000 1.0
C      1  0.4722840000000  0.5544550000000  0.4052190000000 1.0
C      1  0.5720230000000  0.5670490000000  0.5058700000000 1.0
C      1  0.4776090000000  0.6007220000000  0.5298240000000 1.0
C      1  0.5235130000000  0.5940800000000  0.4489440000000 1.0
C      1  0.4772210000000  0.5758240000000  0.4906000000000 1.0
C      1  0.5629520000000  0.5159200000000  0.4062180000000 1.0
C      1  0.5004080000000  0.4427970000000  0.5970460000000 1.0
C      1  0.4763530000000  0.4602550000000  0.5952220000000 1.0
C      1  0.5349320000000  0.4135630000000  0.5349950000000 1.0
C      1  0.5683660000000  0.5380220000000  0.5000380000000 1.0
C      1  0.5800890000000  0.4719840000000  0.4173300000000 1.0
C      1  0.4855640000000  0.5238910000000  0.4438520000000 1.0
C      1  0.5072500000000  0.4420950000000  0.4318720000000 1.0
C      1  0.4940490000000  0.5868420000000  0.4451530000000 1.0
C      1  0.4633010000000  0.5383740000000  0.4575740000000 1.0
C      1  0.4813940000000  0.4838650000000  0.4758470000000 1.0
C      1  0.5029920000000  0.4801220000000  0.4569680000000 1.0
C      1  0.6010360000000  0.5001130000000  0.4645220000000 1.0
C      1  0.5802000000000  0.5440580000000  0.4430540000000 1.0
C      1  0.4910650000000  0.4621380000000  0.4962920000000 1.0
C      1  0.5601420000000  0.5399390000000  0.4223440000000 1.0
C      1  0.5046890000000  0.5035440000000  0.5987350000000 1.0
C      1  0.4547520000000  0.5361830000000  0.5845970000000 1.0
C      1  0.5274070000000  0.5931070000000  0.5231970000000 1.0
C      1  0.4296570000000  0.4680860000000  0.5843020000000 1.0
C      1  0.5518820000000  0.4632690000000  0.4114190000000 1.0
C      1  0.5569200000000  0.4380090000000  0.4265830000000 1.0
C      1  0.5097300000000  0.5152630000000  0.5242840000000 1.0
C      1  0.4869430000000  0.4851550000000  0.5574610000000 1.0
C      1  0.4653470000000  0.5496460000000  0.5317800000000 1.0
C      1  0.5230850000000  0.5262670000000  0.4759980000000 1.0
C      1  0.5472600000000  0.4704140000000  0.5893130000000 1.0
C      1  0.3876700000000  0.5223260000000  0.4992290000000 1.0
C      1  0.5761950000000  0.4157150000000  0.4945970000000 1.0
C      1  0.5950440000000  0.4560240000000  0.5260750000000 1.0
C      1  0.3838520000000  0.4940120000000  0.4904490000000 1.0
C      1  0.4203930000000  0.4394100000000  0.5477010000000 1.0
C      1  0.4536760000000  0.4452070000000  0.5078110000000 1.0
C      1  0.5787590000000  0.5704090000000  0.4583180000000 1.0
C      1  0.4362960000000  0.5201480000000  0.4135970000000 1.0
C      1  0.4936720000000  0.5928100000000  0.5557690000000 1.0
C      1  0.4862460000000  0.5734520000000  0.5711510000000 1.0
C      1  0.6015430000000  0.5171590000000  0.5304870000000 1.0
C      1  0.5046260000000  0.5351010000000  0.5587380000000 1.0
C      1  0.5808200000000  0.4313540000000  0.4704350000000 1.0
C      1  0.5034100000000  0.5194550000000  0.4972800000000 1.0
C      1  0.4746140000000  0.4182820000000  0.4273580000000 1.0
C      1  0.4479160000000  0.4955060000000  0.4037420000000 1.0
C      1  0.5618350000000  0.5819780000000  0.4391010000000 1.0
C      1  0.5760420000000  0.4709610000000  0.5772890000000 1.0
C      1  0.4951100000000  0.5699470000000  0.4695380000000 1.0
C      1  0.5357140000000  0.5076460000000  0.3982170000000 1.0
C      1  0.4107250000000  0.5253260000000  0.5174820000000 1.0
C      1  0.5367540000000  0.4637120000000  0.5280860000000 1.0
C      1  0.5063270000000  0.4668320000000  0.5190280000000 1.0
END
