TITL C-4164237-1827-299 154.342056431307 125000 -27568.0608699891 0 0 187 (C1) n - 1
REM
REM in /home/nfs/bkarasulu/CARBON/AIRSS/Generating-Clusters/ReaxFF-fromJPCA2015/Units_Real/with-SteepDescent/Only-C1/SD-CG/Try1-3A/FIRE-CG
REM
REM
REM
REM
REM
REM ./C.cell (11c1c37f851c82e70ff6c80c92926a4b)
REM
REM compiler GCC version 9.2.1 20190827 (Red Hat 9.2.1-1)
REM options -cpp -mtune=generic -march=x86-64 -g -O0 -fpre-include=/usr/include/finclude/math-vector-fortran.h
REM seed 1062523621 303486128 753380622 1375587875 -127621057 -11168977 2003782924 23769367 1941811925 937015013 20194820 -1444898470 1190894763 1231858584 -346140944 -1967741395 1874006099 -770699769 -100598413 1681058360 -303297530 1116732489 1193674669 1968111433 663021 -1575720112 -1615465842 1240816803 1487389593 1609230404 -1482424184 -865933128 1940768057
REM
CELL 1.54180   50.00000   50.00000   50.00000   90.00000   90.00000   90.00000
LATT -1
SFAC C  
C      1  0.5952500000000  0.5144120000000  0.5476560000000 1.0
C      1  0.4572100000000  0.4127220000000  0.4552640000000 1.0
C      1  0.4813500000000  0.4522160000000  0.4228380000000 1.0
C      1  0.4859350000000  0.4932010000000  0.3919600000000 1.0
C      1  0.5409760000000  0.4638610000000  0.4668710000000 1.0
C      1  0.4664720000000  0.3997500000000  0.4811870000000 1.0
C      1  0.4768280000000  0.5237580000000  0.5594640000000 1.0
C      1  0.5059800000000  0.5213540000000  0.4495760000000 1.0
C      1  0.5048140000000  0.5961220000000  0.4392200000000 1.0
C      1  0.4555770000000  0.5100350000000  0.5125550000000 1.0
C      1  0.3960800000000  0.5037110000000  0.4698620000000 1.0
C      1  0.4308260000000  0.4809030000000  0.4949170000000 1.0
C      1  0.4466500000000  0.5825750000000  0.5171210000000 1.0
C      1  0.4818820000000  0.4382370000000  0.5421800000000 1.0
C      1  0.5016870000000  0.4526530000000  0.5280940000000 1.0
C      1  0.4376510000000  0.5636840000000  0.4275640000000 1.0
C      1  0.4867790000000  0.4265290000000  0.4153550000000 1.0
C      1  0.4678390000000  0.4717810000000  0.4063460000000 1.0
C      1  0.4871570000000  0.5716690000000  0.5854120000000 1.0
C      1  0.4888240000000  0.5127660000000  0.6084700000000 1.0
C      1  0.5270920000000  0.4621820000000  0.5369290000000 1.0
C      1  0.6034380000000  0.4889710000000  0.5063500000000 1.0
C      1  0.4932970000000  0.3879290000000  0.4790040000000 1.0
C      1  0.5531630000000  0.4634990000000  0.5249630000000 1.0
C      1  0.5073790000000  0.5058350000000  0.5304580000000 1.0
C      1  0.5137230000000  0.5388880000000  0.5527680000000 1.0
C      1  0.5597990000000  0.4884620000000  0.5850810000000 1.0
C      1  0.4590590000000  0.4026280000000  0.5093960000000 1.0
C      1  0.4993630000000  0.4889920000000  0.4850780000000 1.0
C      1  0.5671010000000  0.5795390000000  0.5605890000000 1.0
C      1  0.4516770000000  0.5451860000000  0.4824360000000 1.0
C      1  0.5018590000000  0.4046880000000  0.5774730000000 1.0
C      1  0.4605820000000  0.4587830000000  0.4696050000000 1.0
C      1  0.4222480000000  0.5497970000000  0.5110150000000 1.0
C      1  0.5213490000000  0.5325800000000  0.4713790000000 1.0
C      1  0.5836630000000  0.5205390000000  0.5730630000000 1.0
C      1  0.4794400000000  0.5874230000000  0.4264230000000 1.0
C      1  0.5506940000000  0.4422880000000  0.4473640000000 1.0
C      1  0.4681370000000  0.5326620000000  0.6006700000000 1.0
C      1  0.4767530000000  0.4869900000000  0.5962030000000 1.0
C      1  0.5367320000000  0.5832000000000  0.4739420000000 1.0
C      1  0.5939890000000  0.5422520000000  0.4451370000000 1.0
C      1  0.5757200000000  0.5249610000000  0.4292110000000 1.0
C      1  0.4929800000000  0.6084530000000  0.5161360000000 1.0
C      1  0.6107780000000  0.5135120000000  0.4906810000000 1.0
C      1  0.5623540000000  0.4161160000000  0.4925800000000 1.0
C      1  0.4439400000000  0.5336810000000  0.5234620000000 1.0
C      1  0.4856110000000  0.4470380000000  0.5689750000000 1.0
C      1  0.4220340000000  0.5425120000000  0.4839050000000 1.0
C      1  0.4092120000000  0.5601990000000  0.4642770000000 1.0
C      1  0.5040560000000  0.5467370000000  0.4010290000000 1.0
C      1  0.4945500000000  0.5580190000000  0.5060140000000 1.0
C      1  0.5496080000000  0.5733470000000  0.4994430000000 1.0
C      1  0.5929740000000  0.4356750000000  0.5325310000000 1.0
C      1  0.4897800000000  0.4546410000000  0.4530800000000 1.0
C      1  0.5052040000000  0.5584470000000  0.5334200000000 1.0
C      1  0.5375840000000  0.5521820000000  0.5623160000000 1.0
C      1  0.5433960000000  0.4947150000000  0.4278720000000 1.0
C      1  0.5963880000000  0.4789320000000  0.4455900000000 1.0
C      1  0.4077950000000  0.4144960000000  0.5025530000000 1.0
C      1  0.4540100000000  0.4670490000000  0.5920190000000 1.0
C      1  0.4303370000000  0.4016840000000  0.5174900000000 1.0
C      1  0.5454380000000  0.4990660000000  0.5039030000000 1.0
C      1  0.4462720000000  0.4693410000000  0.5409340000000 1.0
C      1  0.5206810000000  0.4738210000000  0.5622580000000 1.0
C      1  0.4982220000000  0.4977350000000  0.4352070000000 1.0
C      1  0.4642540000000  0.5427050000000  0.5422550000000 1.0
C      1  0.5881880000000  0.5189390000000  0.4770090000000 1.0
C      1  0.4277830000000  0.4563680000000  0.4374520000000 1.0
C      1  0.5384610000000  0.5996170000000  0.5376970000000 1.0
C      1  0.5406540000000  0.5269950000000  0.6046990000000 1.0
C      1  0.5352220000000  0.4965970000000  0.5714790000000 1.0
C      1  0.5018250000000  0.4329120000000  0.5880410000000 1.0
C      1  0.5518890000000  0.5370470000000  0.4179760000000 1.0
C      1  0.4431150000000  0.4619200000000  0.5126860000000 1.0
C      1  0.4428870000000  0.4380940000000  0.4543240000000 1.0
C      1  0.5094040000000  0.5636580000000  0.5983210000000 1.0
C      1  0.5999480000000  0.4584430000000  0.4664390000000 1.0
C      1  0.4579640000000  0.5121190000000  0.5808770000000 1.0
C      1  0.5688270000000  0.4190530000000  0.4613710000000 1.0
C      1  0.3951080000000  0.4959290000000  0.4440640000000 1.0
C      1  0.5299350000000  0.5150890000000  0.5444710000000 1.0
C      1  0.4609700000000  0.4922230000000  0.5339360000000 1.0
C      1  0.5258090000000  0.4502360000000  0.5959460000000 1.0
C      1  0.5123600000000  0.5581520000000  0.4801010000000 1.0
C      1  0.5153470000000  0.3894690000000  0.5299290000000 1.0
C      1  0.4084460000000  0.4969290000000  0.5624720000000 1.0
C      1  0.5534770000000  0.4011590000000  0.4378400000000 1.0
C      1  0.4274000000000  0.5075780000000  0.5827570000000 1.0
C      1  0.4752320000000  0.4104120000000  0.5336940000000 1.0
C      1  0.5298270000000  0.4054160000000  0.5741770000000 1.0
C      1  0.4418760000000  0.4756810000000  0.4187490000000 1.0
C      1  0.4035590000000  0.5221450000000  0.5442430000000 1.0
C      1  0.5368620000000  0.4223170000000  0.5049320000000 1.0
C      1  0.5141130000000  0.4304400000000  0.4108270000000 1.0
C      1  0.5115230000000  0.4727100000000  0.4656100000000 1.0
C      1  0.4538490000000  0.5222630000000  0.4098060000000 1.0
C      1  0.4493220000000  0.4857350000000  0.4736920000000 1.0
C      1  0.4481050000000  0.5855530000000  0.5466880000000 1.0
C      1  0.5355530000000  0.4114490000000  0.5325920000000 1.0
C      1  0.5052490000000  0.3873860000000  0.5036880000000 1.0
C      1  0.5492840000000  0.4434480000000  0.5772780000000 1.0
C      1  0.4851830000000  0.4990500000000  0.5470910000000 1.0
C      1  0.5158370000000  0.4960210000000  0.5063480000000 1.0
C      1  0.5971390000000  0.4298570000000  0.4590880000000 1.0
C      1  0.5160710000000  0.5697800000000  0.4341610000000 1.0
C      1  0.4201770000000  0.5778570000000  0.5048850000000 1.0
C      1  0.4643400000000  0.6092060000000  0.4851120000000 1.0
C      1  0.4534910000000  0.5855990000000  0.4398710000000 1.0
C      1  0.5134660000000  0.6017280000000  0.4665090000000 1.0
C      1  0.4297490000000  0.4149450000000  0.5419260000000 1.0
C      1  0.5847440000000  0.5672100000000  0.4584030000000 1.0
C      1  0.5784410000000  0.4647520000000  0.5426110000000 1.0
C      1  0.4615980000000  0.5584180000000  0.5879740000000 1.0
C      1  0.4236960000000  0.4336920000000  0.5608180000000 1.0
C      1  0.4952190000000  0.5789770000000  0.5533820000000 1.0
C      1  0.5228070000000  0.4771200000000  0.6063920000000 1.0
C      1  0.4806490000000  0.5105450000000  0.4151410000000 1.0
C      1  0.4459700000000  0.5958590000000  0.4661750000000 1.0
C      1  0.4780460000000  0.4084840000000  0.4353970000000 1.0
C      1  0.4825630000000  0.5365650000000  0.4513500000000 1.0
C      1  0.4649590000000  0.4511410000000  0.4973750000000 1.0
C      1  0.5229390000000  0.4577830000000  0.4052450000000 1.0
C      1  0.5579690000000  0.5755460000000  0.4523160000000 1.0
C      1  0.5655640000000  0.5956360000000  0.5353390000000 1.0
C      1  0.5190160000000  0.4817100000000  0.4223300000000 1.0
C      1  0.4667570000000  0.5610790000000  0.5002230000000 1.0
C      1  0.5880970000000  0.4685420000000  0.4919950000000 1.0
C      1  0.4820030000000  0.5641100000000  0.4070370000000 1.0
C      1  0.4553760000000  0.5511760000000  0.4085160000000 1.0
C      1  0.5586930000000  0.4675770000000  0.4966760000000 1.0
C      1  0.5745960000000  0.5311730000000  0.5339840000000 1.0
C      1  0.5511370000000  0.4631380000000  0.4012860000000 1.0
C      1  0.5485570000000  0.4192210000000  0.5585410000000 1.0
C      1  0.4627140000000  0.5236360000000  0.4669030000000 1.0
C      1  0.5654410000000  0.4891050000000  0.4096950000000 1.0
C      1  0.5516850000000  0.5163010000000  0.5256790000000 1.0
C      1  0.5685110000000  0.4637000000000  0.5719550000000 1.0
C      1  0.5296830000000  0.4170590000000  0.4343450000000 1.0
C      1  0.4937540000000  0.3951530000000  0.5501470000000 1.0
C      1  0.4382580000000  0.5664920000000  0.5677690000000 1.0
C      1  0.6107020000000  0.5293150000000  0.4660620000000 1.0
C      1  0.4015370000000  0.4915660000000  0.4953400000000 1.0
C      1  0.4049490000000  0.4709790000000  0.5525170000000 1.0
C      1  0.5488660000000  0.5344750000000  0.4739710000000 1.0
C      1  0.4978530000000  0.5599510000000  0.4550280000000 1.0
C      1  0.4331990000000  0.5041950000000  0.4187570000000 1.0
C      1  0.5798720000000  0.5023080000000  0.4531560000000 1.0
C      1  0.5184640000000  0.5068360000000  0.6088570000000 1.0
C      1  0.5638220000000  0.5516540000000  0.5514320000000 1.0
C      1  0.4210220000000  0.5841900000000  0.4764760000000 1.0
C      1  0.4940500000000  0.6101370000000  0.4863620000000 1.0
C      1  0.5444610000000  0.5745520000000  0.5797650000000 1.0
C      1  0.5966250000000  0.4881440000000  0.5341230000000 1.0
C      1  0.4129910000000  0.5180950000000  0.4345580000000 1.0
C      1  0.5514980000000  0.4914320000000  0.4557220000000 1.0
C      1  0.4633980000000  0.6062900000000  0.5144470000000 1.0
C      1  0.3974270000000  0.4606280000000  0.4786800000000 1.0
C      1  0.5739590000000  0.5870500000000  0.5066170000000 1.0
C      1  0.5264470000000  0.5305550000000  0.3983750000000 1.0
C      1  0.5358150000000  0.5560210000000  0.6028130000000 1.0
C      1  0.4923770000000  0.4755820000000  0.5700620000000 1.0
C      1  0.5853050000000  0.4710510000000  0.4220310000000 1.0
C      1  0.5448910000000  0.5625570000000  0.4302390000000 1.0
C      1  0.5126520000000  0.4327860000000  0.4907250000000 1.0
C      1  0.5663110000000  0.4497470000000  0.4224000000000 1.0
C      1  0.4161010000000  0.5476040000000  0.4390360000000 1.0
C      1  0.5109480000000  0.6028860000000  0.5385200000000 1.0
C      1  0.4449310000000  0.4559020000000  0.5667970000000 1.0
C      1  0.4153820000000  0.5502750000000  0.5598470000000 1.0
C      1  0.4688170000000  0.5030010000000  0.4862600000000 1.0
C      1  0.5886010000000  0.5687690000000  0.4881760000000 1.0
C      1  0.5671260000000  0.5160480000000  0.5956340000000 1.0
C      1  0.3954900000000  0.4379510000000  0.5129580000000 1.0
C      1  0.4923490000000  0.4467690000000  0.5042750000000 1.0
C      1  0.5108880000000  0.5080250000000  0.3884800000000 1.0
C      1  0.4016390000000  0.4458780000000  0.5429550000000 1.0
C      1  0.5032080000000  0.4304930000000  0.4642600000000 1.0
C      1  0.3985900000000  0.5126610000000  0.5201370000000 1.0
C      1  0.5016370000000  0.4036750000000  0.4524750000000 1.0
C      1  0.4038470000000  0.4669340000000  0.4519440000000 1.0
C      1  0.5455590000000  0.5082920000000  0.4778060000000 1.0
C      1  0.4172490000000  0.5337810000000  0.5816900000000 1.0
C      1  0.5788600000000  0.4248670000000  0.5122870000000 1.0
C      1  0.4093950000000  0.4390560000000  0.4894170000000 1.0
C      1  0.5668410000000  0.5480770000000  0.4925830000000 1.0
C      1  0.4702970000000  0.5702200000000  0.5457150000000 1.0
END
