TITL C-4164236-1577-579 7.22072519635826 125000 -29335.0361815979 0 0 194 (C1) n - 1
REM
REM in /home/nfs/bkarasulu/CARBON/AIRSS/Generating-Clusters/ReaxFF-fromJPCA2015/Units_Real/with-SteepDescent/Only-C1/SD-CG/Try1-3A/FIRE-CG
REM
REM
REM
REM
REM
REM ./C.cell (11c1c37f851c82e70ff6c80c92926a4b)
REM
REM compiler GCC version 9.2.1 20190827 (Red Hat 9.2.1-1)
REM options -cpp -mtune=generic -march=x86-64 -g -O0 -fpre-include=/usr/include/finclude/math-vector-fortran.h
REM seed 997761480 336472922 884674282 1634408263 -336659575 438823694 2092870259 1823171364 -2131905252 442925111 -138839665 1050521290 -206401493 2098531543 -324646711 1205784211 1362770308 118671552 -1161440464 1503969440 1189877076 39440492 -908299643 415946797 1626562247 -1261239875 1583566160 245815769 -1323632913 -1515741298 1252752083 943855233 575571919
REM
CELL 1.54180   50.00000   50.00000   50.00000   90.00000   90.00000   90.00000
LATT -1
SFAC C  
C      1  0.5238790000000  0.5023100000000  0.3903080000000 1.0
C      1  0.5662370000000  0.6050760000000  0.5327740000000 1.0
C      1  0.5715730000000  0.5595610000000  0.5737250000000 1.0
C      1  0.6130060000000  0.4473910000000  0.4787600000000 1.0
C      1  0.4877370000000  0.4874180000000  0.5644550000000 1.0
C      1  0.5449790000000  0.5900530000000  0.4380480000000 1.0
C      1  0.4760530000000  0.4523130000000  0.4009410000000 1.0
C      1  0.5324390000000  0.4578780000000  0.4551050000000 1.0
C      1  0.4255710000000  0.5321850000000  0.5819420000000 1.0
C      1  0.4438040000000  0.5234510000000  0.4955450000000 1.0
C      1  0.5802800000000  0.4563950000000  0.5491250000000 1.0
C      1  0.4679510000000  0.5928450000000  0.5587370000000 1.0
C      1  0.5759010000000  0.4980180000000  0.4189100000000 1.0
C      1  0.3690470000000  0.4708090000000  0.5174310000000 1.0
C      1  0.5336550000000  0.5193770000000  0.4657470000000 1.0
C      1  0.5096270000000  0.3991760000000  0.5415560000000 1.0
C      1  0.5375770000000  0.3917380000000  0.4701820000000 1.0
C      1  0.4454160000000  0.4126740000000  0.4610860000000 1.0
C      1  0.4503750000000  0.5802010000000  0.4327760000000 1.0
C      1  0.4274570000000  0.4357170000000  0.4141850000000 1.0
C      1  0.4475680000000  0.4602910000000  0.4431610000000 1.0
C      1  0.5112480000000  0.5307470000000  0.5238930000000 1.0
C      1  0.5469860000000  0.4617320000000  0.5842060000000 1.0
C      1  0.5583650000000  0.4479180000000  0.4682040000000 1.0
C      1  0.5990930000000  0.4416470000000  0.4539790000000 1.0
C      1  0.4612270000000  0.5457070000000  0.3961230000000 1.0
C      1  0.4743270000000  0.5899680000000  0.5094980000000 1.0
C      1  0.5096360000000  0.4276520000000  0.4824750000000 1.0
C      1  0.4583680000000  0.4036660000000  0.5256670000000 1.0
C      1  0.5737470000000  0.4996700000000  0.5624540000000 1.0
C      1  0.5755290000000  0.5346480000000  0.5875290000000 1.0
C      1  0.5105630000000  0.6004020000000  0.5796820000000 1.0
C      1  0.5340630000000  0.4657660000000  0.5332200000000 1.0
C      1  0.5039760000000  0.3874590000000  0.5155030000000 1.0
C      1  0.4202420000000  0.4227730000000  0.4634400000000 1.0
C      1  0.4789030000000  0.5883610000000  0.4317610000000 1.0
C      1  0.3704860000000  0.4680620000000  0.4880150000000 1.0
C      1  0.6225710000000  0.4715870000000  0.4688500000000 1.0
C      1  0.4819980000000  0.3961340000000  0.4700720000000 1.0
C      1  0.6093780000000  0.4901090000000  0.4521410000000 1.0
C      1  0.3996610000000  0.4717810000000  0.4449920000000 1.0
C      1  0.4467100000000  0.4905770000000  0.3989430000000 1.0
C      1  0.4801490000000  0.4853330000000  0.4633590000000 1.0
C      1  0.3743250000000  0.4443820000000  0.5053910000000 1.0
C      1  0.4142510000000  0.5244970000000  0.4420730000000 1.0
C      1  0.4354170000000  0.4868410000000  0.5870250000000 1.0
C      1  0.4697080000000  0.5175100000000  0.4272230000000 1.0
C      1  0.5324780000000  0.5457170000000  0.4808360000000 1.0
C      1  0.5216250000000  0.5050570000000  0.4427480000000 1.0
C      1  0.4766360000000  0.5340910000000  0.4734960000000 1.0
C      1  0.5745330000000  0.4238730000000  0.4614000000000 1.0
C      1  0.5551210000000  0.4164340000000  0.5594350000000 1.0
C      1  0.4961910000000  0.5705830000000  0.5107490000000 1.0
C      1  0.5514920000000  0.5356230000000  0.5007250000000 1.0
C      1  0.4846950000000  0.4952550000000  0.6073260000000 1.0
C      1  0.4968890000000  0.4761460000000  0.5892300000000 1.0
C      1  0.5107000000000  0.3973660000000  0.4857380000000 1.0
C      1  0.5934030000000  0.5203130000000  0.5685460000000 1.0
C      1  0.5107800000000  0.5303960000000  0.5717840000000 1.0
C      1  0.4239460000000  0.4961060000000  0.4126010000000 1.0
C      1  0.5947720000000  0.4466700000000  0.5054060000000 1.0
C      1  0.4998400000000  0.5198590000000  0.6136110000000 1.0
C      1  0.5795690000000  0.4069350000000  0.4881430000000 1.0
C      1  0.4856210000000  0.5428850000000  0.6087760000000 1.0
C      1  0.5089860000000  0.5582700000000  0.5334760000000 1.0
C      1  0.4007770000000  0.4348520000000  0.5112120000000 1.0
C      1  0.4546760000000  0.5940400000000  0.5323120000000 1.0
C      1  0.4644940000000  0.4561240000000  0.4657900000000 1.0
C      1  0.5224230000000  0.6023920000000  0.4542960000000 1.0
C      1  0.5511200000000  0.5090350000000  0.4870810000000 1.0
C      1  0.5708520000000  0.4071020000000  0.5365200000000 1.0
C      1  0.4623480000000  0.5552750000000  0.6004720000000 1.0
C      1  0.4907720000000  0.4882840000000  0.5116440000000 1.0
C      1  0.5941330000000  0.4665420000000  0.4390290000000 1.0
C      1  0.5272690000000  0.4066790000000  0.5651830000000 1.0
C      1  0.5270780000000  0.5300970000000  0.5992350000000 1.0
C      1  0.4669320000000  0.4735810000000  0.5473690000000 1.0
C      1  0.5168860000000  0.4873420000000  0.5271220000000 1.0
C      1  0.4201610000000  0.4854890000000  0.4871370000000 1.0
C      1  0.4759140000000  0.3825100000000  0.5137740000000 1.0
C      1  0.5934730000000  0.5544560000000  0.4832300000000 1.0
C      1  0.4215710000000  0.4455040000000  0.5576110000000 1.0
C      1  0.4404610000000  0.5088630000000  0.5181150000000 1.0
C      1  0.6014440000000  0.5384740000000  0.5035550000000 1.0
C      1  0.5505590000000  0.5755230000000  0.5848670000000 1.0
C      1  0.5360680000000  0.4160690000000  0.4261910000000 1.0
C      1  0.4763910000000  0.6194040000000  0.4668770000000 1.0
C      1  0.5131380000000  0.4252160000000  0.4123920000000 1.0
C      1  0.4344510000000  0.5871770000000  0.4569330000000 1.0
C      1  0.4655640000000  0.4525250000000  0.5696930000000 1.0
C      1  0.5810930000000  0.5800870000000  0.4952640000000 1.0
C      1  0.5062700000000  0.5722120000000  0.5885580000000 1.0
C      1  0.3927530000000  0.4770840000000  0.4720350000000 1.0
C      1  0.4381390000000  0.4588030000000  0.5786020000000 1.0
C      1  0.4966630000000  0.4193010000000  0.4363430000000 1.0
C      1  0.5802190000000  0.5567720000000  0.5433830000000 1.0
C      1  0.4371500000000  0.5076420000000  0.4727510000000 1.0
C      1  0.5135050000000  0.4268680000000  0.5323570000000 1.0
C      1  0.4605590000000  0.4088280000000  0.5556730000000 1.0
C      1  0.5270010000000  0.5989940000000  0.4838070000000 1.0
C      1  0.5867650000000  0.5366580000000  0.4590950000000 1.0
C      1  0.5543610000000  0.5160280000000  0.5962090000000 1.0
C      1  0.5373760000000  0.4215420000000  0.5178480000000 1.0
C      1  0.5402390000000  0.6114120000000  0.5467130000000 1.0
C      1  0.5624070000000  0.5887350000000  0.4590890000000 1.0
C      1  0.5869500000000  0.4181000000000  0.5134760000000 1.0
C      1  0.5589450000000  0.5963350000000  0.4846870000000 1.0
C      1  0.4664220000000  0.3762680000000  0.4849850000000 1.0
C      1  0.4216340000000  0.5061600000000  0.5666200000000 1.0
C      1  0.5201130000000  0.4507930000000  0.4965180000000 1.0
C      1  0.4678250000000  0.5323440000000  0.5010290000000 1.0
C      1  0.4568470000000  0.4518430000000  0.4994680000000 1.0
C      1  0.5700280000000  0.5238500000000  0.4111630000000 1.0
C      1  0.5499530000000  0.4057400000000  0.4478600000000 1.0
C      1  0.5077120000000  0.4236690000000  0.5795750000000 1.0
C      1  0.4133010000000  0.4566640000000  0.5286200000000 1.0
C      1  0.3989720000000  0.5261350000000  0.5192090000000 1.0
C      1  0.4530970000000  0.6044410000000  0.4671220000000 1.0
C      1  0.5222720000000  0.4752980000000  0.4047040000000 1.0
C      1  0.5605310000000  0.5383850000000  0.5285900000000 1.0
C      1  0.4164030000000  0.5673310000000  0.4730010000000 1.0
C      1  0.4367700000000  0.4228360000000  0.5561350000000 1.0
C      1  0.4142640000000  0.5017180000000  0.5113690000000 1.0
C      1  0.4948810000000  0.6063460000000  0.5561580000000 1.0
C      1  0.5764840000000  0.4932180000000  0.4887950000000 1.0
C      1  0.4212370000000  0.5503530000000  0.5233380000000 1.0
C      1  0.3975220000000  0.5040560000000  0.5471240000000 1.0
C      1  0.5615720000000  0.5097850000000  0.5362960000000 1.0
C      1  0.4486440000000  0.5026730000000  0.5459120000000 1.0
C      1  0.5944190000000  0.4675040000000  0.5288430000000 1.0
C      1  0.5064850000000  0.5574980000000  0.4083540000000 1.0
C      1  0.4793940000000  0.4268110000000  0.5708490000000 1.0
C      1  0.4879670000000  0.5158950000000  0.5640560000000 1.0
C      1  0.4552740000000  0.5011170000000  0.6021780000000 1.0
C      1  0.5214970000000  0.4726200000000  0.4784690000000 1.0
C      1  0.4923150000000  0.5025960000000  0.4389960000000 1.0
C      1  0.4023570000000  0.5413090000000  0.4651720000000 1.0
C      1  0.5643750000000  0.4435860000000  0.5688980000000 1.0
C      1  0.4327770000000  0.4665270000000  0.5073360000000 1.0
C      1  0.4205370000000  0.5618400000000  0.4984330000000 1.0
C      1  0.4714620000000  0.4226500000000  0.4558120000000 1.0
C      1  0.4594610000000  0.4706660000000  0.4165810000000 1.0
C      1  0.5437180000000  0.5250030000000  0.3978990000000 1.0
C      1  0.4433040000000  0.5501230000000  0.5422910000000 1.0
C      1  0.4971080000000  0.5073430000000  0.3913040000000 1.0
C      1  0.4463900000000  0.4228720000000  0.5069670000000 1.0
C      1  0.4828520000000  0.6154040000000  0.4956580000000 1.0
C      1  0.5691820000000  0.4600910000000  0.4916650000000 1.0
C      1  0.4640750000000  0.5088600000000  0.4651210000000 1.0
C      1  0.4552640000000  0.5727180000000  0.5772050000000 1.0
C      1  0.4436820000000  0.5292730000000  0.4384670000000 1.0
C      1  0.4036820000000  0.4983090000000  0.4315250000000 1.0
C      1  0.5105110000000  0.6145110000000  0.5046890000000 1.0
C      1  0.5531760000000  0.5633020000000  0.4266980000000 1.0
C      1  0.3901890000000  0.4789420000000  0.5358510000000 1.0
C      1  0.4467570000000  0.5533920000000  0.4206710000000 1.0
C      1  0.5442360000000  0.4489080000000  0.5115300000000 1.0
C      1  0.4320320000000  0.5574250000000  0.5677700000000 1.0
C      1  0.5179710000000  0.4535070000000  0.5825580000000 1.0
C      1  0.5356110000000  0.4801620000000  0.4309550000000 1.0
C      1  0.5043040000000  0.5565560000000  0.5627310000000 1.0
C      1  0.5922660000000  0.5088700000000  0.4664520000000 1.0
C      1  0.5051850000000  0.4518550000000  0.4006680000000 1.0
C      1  0.6028430000000  0.5353630000000  0.5454100000000 1.0
C      1  0.4950390000000  0.6080110000000  0.4460270000000 1.0
C      1  0.4688160000000  0.5140980000000  0.3947820000000 1.0
C      1  0.5388040000000  0.6009480000000  0.5738220000000 1.0
C      1  0.6072300000000  0.5188130000000  0.5217720000000 1.0
C      1  0.5735900000000  0.5439730000000  0.4337680000000 1.0
C      1  0.4720480000000  0.4676890000000  0.5193970000000 1.0
C      1  0.4944720000000  0.5538020000000  0.4625090000000 1.0
C      1  0.4188890000000  0.4468520000000  0.4416150000000 1.0
C      1  0.5170210000000  0.4502510000000  0.5496160000000 1.0
C      1  0.4200240000000  0.4209140000000  0.4936990000000 1.0
C      1  0.5571970000000  0.4893010000000  0.5845870000000 1.0
C      1  0.5871650000000  0.4952650000000  0.5182480000000 1.0
C      1  0.4671340000000  0.5266090000000  0.5449830000000 1.0
C      1  0.4460030000000  0.5295210000000  0.6018630000000 1.0
C      1  0.5511330000000  0.3953660000000  0.5180820000000 1.0
C      1  0.4853350000000  0.5598600000000  0.3865110000000 1.0
C      1  0.5114950000000  0.5673340000000  0.4845310000000 1.0
C      1  0.5352870000000  0.5506970000000  0.4063240000000 1.0
C      1  0.5823480000000  0.5827750000000  0.5242440000000 1.0
C      1  0.5303410000000  0.5604890000000  0.5995330000000 1.0
C      1  0.4529330000000  0.4315700000000  0.4005350000000 1.0
C      1  0.5583130000000  0.3875260000000  0.4897400000000 1.0
C      1  0.5688390000000  0.4757180000000  0.4263930000000 1.0
C      1  0.5116870000000  0.4349640000000  0.4552070000000 1.0
C      1  0.4945800000000  0.5635620000000  0.4345890000000 1.0
C      1  0.5134990000000  0.6123110000000  0.5338620000000 1.0
C      1  0.5299450000000  0.5104640000000  0.5300360000000 1.0
C      1  0.4986180000000  0.4867060000000  0.4839370000000 1.0
C      1  0.4844140000000  0.5201560000000  0.5200810000000 1.0
C      1  0.3909640000000  0.5318020000000  0.4902840000000 1.0
END
