TITL C-4164242-3624-88 5.70641878731297 125000 -8074.59453254293 0 0 56 (C1) n - 1
REM
REM in /home/nfs/bkarasulu/CARBON/AIRSS/Generating-Clusters/ReaxFF-fromJPCA2015/Units_Real/with-SteepDescent/Only-C1/SD-CG/Try1-3A/FIRE-CG
REM
REM
REM
REM
REM
REM ./C.cell (11c1c37f851c82e70ff6c80c92926a4b)
REM
REM compiler GCC version 9.2.1 20190827 (Red Hat 9.2.1-1)
REM options -cpp -mtune=generic -march=x86-64 -g -O0 -fpre-include=/usr/include/finclude/math-vector-fortran.h
REM seed -1272687730 -1285642747 173574850 -111559946 805464349 -1487726578 1873514014 -207180471 -625861154 -1641987181 1446689112 1445172794 1837614446 873737889 -1504008549 -2112720306 -1969066200 1292171812 1940794720 -366208416 -598361020 -271532929 1661437639 -361827734 -744154502 -683187710 -1047830063 -1586635417 1263317821 -314387248 1901520787 -672015896 -1521774755
REM
CELL 1.54180   50.00000   50.00000   50.00000   90.00000   90.00000   90.00000
LATT -1
SFAC C  
C      1  0.4653450000000  0.5241010000000  0.4733280000000 1.0
C      1  0.4350350000000  0.5281240000000  0.5021750000000 1.0
C      1  0.4185390000000  0.4837380000000  0.5088740000000 1.0
C      1  0.4912170000000  0.4755990000000  0.5490260000000 1.0
C      1  0.5020480000000  0.4873610000000  0.5009180000000 1.0
C      1  0.4941100000000  0.5237710000000  0.4340120000000 1.0
C      1  0.4822560000000  0.5514070000000  0.5031990000000 1.0
C      1  0.5120510000000  0.4786630000000  0.5287210000000 1.0
C      1  0.4539570000000  0.4764510000000  0.4804290000000 1.0
C      1  0.4720940000000  0.4709170000000  0.4368390000000 1.0
C      1  0.5448590000000  0.4443170000000  0.5253370000000 1.0
C      1  0.5463930000000  0.4716280000000  0.4484290000000 1.0
C      1  0.5490630000000  0.5301290000000  0.4875480000000 1.0
C      1  0.5004580000000  0.4450050000000  0.4902470000000 1.0
C      1  0.5171250000000  0.4499740000000  0.5266180000000 1.0
C      1  0.4695340000000  0.4511840000000  0.5170680000000 1.0
C      1  0.5025900000000  0.5707330000000  0.4923280000000 1.0
C      1  0.5593410000000  0.4413440000000  0.4769360000000 1.0
C      1  0.5477160000000  0.5478330000000  0.5110420000000 1.0
C      1  0.4654420000000  0.5215090000000  0.4438770000000 1.0
C      1  0.5168960000000  0.4806910000000  0.4507340000000 1.0
C      1  0.4648710000000  0.4728140000000  0.5381820000000 1.0
C      1  0.4968810000000  0.4655890000000  0.4276420000000 1.0
C      1  0.5636770000000  0.4657820000000  0.5228800000000 1.0
C      1  0.4359980000000  0.5226460000000  0.4734730000000 1.0
C      1  0.5323230000000  0.4990680000000  0.5586120000000 1.0
C      1  0.4505960000000  0.4977140000000  0.5405140000000 1.0
C      1  0.4541760000000  0.4530610000000  0.4937440000000 1.0
C      1  0.5526230000000  0.5319070000000  0.5352230000000 1.0
C      1  0.5609720000000  0.4910400000000  0.5136230000000 1.0
C      1  0.5329400000000  0.5255590000000  0.5698430000000 1.0
C      1  0.5138010000000  0.5591470000000  0.4663840000000 1.0
C      1  0.4532810000000  0.5487420000000  0.5130520000000 1.0
C      1  0.5037740000000  0.4955310000000  0.5653390000000 1.0
C      1  0.4279110000000  0.5062180000000  0.5221050000000 1.0
C      1  0.5070100000000  0.4690780000000  0.4790080000000 1.0
C      1  0.4957080000000  0.4391210000000  0.5124210000000 1.0
C      1  0.5521160000000  0.5025840000000  0.5367930000000 1.0
C      1  0.4889150000000  0.5208590000000  0.5664570000000 1.0
C      1  0.5218400000000  0.5296630000000  0.4742550000000 1.0
C      1  0.4398220000000  0.5070710000000  0.4470550000000 1.0
C      1  0.5537020000000  0.4405780000000  0.4488620000000 1.0
C      1  0.4525910000000  0.5475010000000  0.5426260000000 1.0
C      1  0.4495300000000  0.4792920000000  0.4512680000000 1.0
C      1  0.5023130000000  0.5494490000000  0.4432060000000 1.0
C      1  0.5647810000000  0.4420850000000  0.5040240000000 1.0
C      1  0.5276140000000  0.5704610000000  0.5073340000000 1.0
C      1  0.4798980000000  0.5061040000000  0.4935460000000 1.0
C      1  0.5337530000000  0.5469340000000  0.5507020000000 1.0
C      1  0.5638290000000  0.5054410000000  0.4882100000000 1.0
C      1  0.5097790000000  0.5404890000000  0.5677870000000 1.0
C      1  0.5145470000000  0.5106560000000  0.4501140000000 1.0
C      1  0.4622490000000  0.5211790000000  0.5541220000000 1.0
C      1  0.4982070000000  0.5284610000000  0.4990070000000 1.0
C      1  0.4275930000000  0.4645180000000  0.4922230000000 1.0
C      1  0.5643110000000  0.4891790000000  0.4626840000000 1.0
END
