TITL C-4164242-3624-320 11.6800169392313 125000 -24732.0844008304 0 0 163 (C1) n - 1
REM
REM in /home/nfs/bkarasulu/CARBON/AIRSS/Generating-Clusters/ReaxFF-fromJPCA2015/Units_Real/with-SteepDescent/Only-C1/SD-CG/Try1-3A/FIRE-CG
REM
REM
REM
REM
REM
REM ./C.cell (11c1c37f851c82e70ff6c80c92926a4b)
REM
REM compiler GCC version 9.2.1 20190827 (Red Hat 9.2.1-1)
REM options -cpp -mtune=generic -march=x86-64 -g -O0 -fpre-include=/usr/include/finclude/math-vector-fortran.h
REM seed 1450133019 782698067 -275856092 1334447033 -236903349 1592311079 -1386392228 -1874256452 630222802 -51604146 1004952948 -2127863555 -145768892 1042583532 2066860517 -1905917865 -1564064302 1216065124 985189624 1156834560 1394016854 515322341 -1406561063 -1697317389 1777498733 -697174435 101570660 -1121648135 1516441000 1098918976 871371809 483610229 -614985926
REM
CELL 1.54180   50.00000   50.00000   50.00000   90.00000   90.00000   90.00000
LATT -1
SFAC C  
C      1  0.5316900000000  0.5443730000000  0.4146340000000 1.0
C      1  0.4869550000000  0.5550210000000  0.5161860000000 1.0
C      1  0.5926310000000  0.4915250000000  0.5106070000000 1.0
C      1  0.4134770000000  0.4393710000000  0.5334760000000 1.0
C      1  0.3976550000000  0.5045690000000  0.5325670000000 1.0
C      1  0.5510740000000  0.4255870000000  0.5219880000000 1.0
C      1  0.5361250000000  0.4940410000000  0.4581760000000 1.0
C      1  0.5489330000000  0.5883840000000  0.4934550000000 1.0
C      1  0.3977220000000  0.4729290000000  0.4923810000000 1.0
C      1  0.4982260000000  0.5205550000000  0.4405810000000 1.0
C      1  0.4072050000000  0.5324470000000  0.5399690000000 1.0
C      1  0.5993550000000  0.4792750000000  0.5388280000000 1.0
C      1  0.5805540000000  0.5188420000000  0.4477020000000 1.0
C      1  0.5484040000000  0.4888320000000  0.5944160000000 1.0
C      1  0.5942010000000  0.4783450000000  0.4347370000000 1.0
C      1  0.5046650000000  0.4282860000000  0.5701100000000 1.0
C      1  0.4109750000000  0.4409710000000  0.4681260000000 1.0
C      1  0.5043820000000  0.4196610000000  0.5411840000000 1.0
C      1  0.5219440000000  0.4024090000000  0.4810920000000 1.0
C      1  0.4331840000000  0.4161800000000  0.5318210000000 1.0
C      1  0.4938180000000  0.5984400000000  0.4949920000000 1.0
C      1  0.5188200000000  0.3993590000000  0.4239550000000 1.0
C      1  0.4400070000000  0.5252520000000  0.5788090000000 1.0
C      1  0.4370110000000  0.5014050000000  0.4967460000000 1.0
C      1  0.5302610000000  0.4509500000000  0.4942330000000 1.0
C      1  0.4578810000000  0.5002050000000  0.4420720000000 1.0
C      1  0.5702810000000  0.4276090000000  0.4773400000000 1.0
C      1  0.4080040000000  0.4687470000000  0.4650950000000 1.0
C      1  0.5032660000000  0.5212760000000  0.5499840000000 1.0
C      1  0.4183950000000  0.5337520000000  0.4416700000000 1.0
C      1  0.5208970000000  0.4474610000000  0.5877460000000 1.0
C      1  0.5196090000000  0.5408420000000  0.6030710000000 1.0
C      1  0.5544510000000  0.5697810000000  0.5850060000000 1.0
C      1  0.3981270000000  0.5458480000000  0.4908300000000 1.0
C      1  0.4277500000000  0.4185750000000  0.4651930000000 1.0
C      1  0.5892470000000  0.5463200000000  0.5564080000000 1.0
C      1  0.4008840000000  0.5352850000000  0.4647100000000 1.0
C      1  0.4598090000000  0.5191720000000  0.5334340000000 1.0
C      1  0.5436330000000  0.4223230000000  0.4920700000000 1.0
C      1  0.4760500000000  0.4494490000000  0.4609850000000 1.0
C      1  0.5521500000000  0.4954970000000  0.4087010000000 1.0
C      1  0.4844280000000  0.5779670000000  0.5357330000000 1.0
C      1  0.4614560000000  0.5196600000000  0.4188250000000 1.0
C      1  0.4824600000000  0.5847450000000  0.4379730000000 1.0
C      1  0.4998230000000  0.4713990000000  0.5598380000000 1.0
C      1  0.3916000000000  0.4987860000000  0.5035340000000 1.0
C      1  0.4444460000000  0.5871080000000  0.5020360000000 1.0
C      1  0.4649720000000  0.5338670000000  0.5902220000000 1.0
C      1  0.4387850000000  0.5718830000000  0.4618740000000 1.0
C      1  0.4501220000000  0.4127410000000  0.5546710000000 1.0
C      1  0.4218120000000  0.5106880000000  0.4242100000000 1.0
C      1  0.4610780000000  0.4658080000000  0.5257200000000 1.0
C      1  0.5353140000000  0.5455390000000  0.5548910000000 1.0
C      1  0.5213130000000  0.4879740000000  0.5265040000000 1.0
C      1  0.5224880000000  0.4901400000000  0.6082020000000 1.0
C      1  0.5673080000000  0.4326580000000  0.4488000000000 1.0
C      1  0.5230750000000  0.3957390000000  0.4531280000000 1.0
C      1  0.3871230000000  0.5209940000000  0.4852860000000 1.0
C      1  0.4779220000000  0.5588730000000  0.5832980000000 1.0
C      1  0.5782010000000  0.5634580000000  0.5361310000000 1.0
C      1  0.5070930000000  0.5812470000000  0.4537530000000 1.0
C      1  0.4988120000000  0.4686220000000  0.4566920000000 1.0
C      1  0.5861050000000  0.4541220000000  0.5441130000000 1.0
C      1  0.5145860000000  0.5571540000000  0.5000900000000 1.0
C      1  0.4884590000000  0.4980930000000  0.5619550000000 1.0
C      1  0.5427030000000  0.4467960000000  0.4387490000000 1.0
C      1  0.4838700000000  0.4485760000000  0.5688090000000 1.0
C      1  0.5281310000000  0.4362400000000  0.5363300000000 1.0
C      1  0.4383860000000  0.4549660000000  0.5738630000000 1.0
C      1  0.4663970000000  0.4971820000000  0.4930200000000 1.0
C      1  0.5074780000000  0.5587740000000  0.4723300000000 1.0
C      1  0.5067070000000  0.5047280000000  0.3938110000000 1.0
C      1  0.5028840000000  0.4632040000000  0.4906200000000 1.0
C      1  0.4501630000000  0.4756400000000  0.5908720000000 1.0
C      1  0.6044710000000  0.5106790000000  0.4684670000000 1.0
C      1  0.4135360000000  0.5495250000000  0.5163730000000 1.0
C      1  0.5736120000000  0.4528260000000  0.5723980000000 1.0
C      1  0.4676980000000  0.5728250000000  0.5591140000000 1.0
C      1  0.5332670000000  0.5880990000000  0.4417220000000 1.0
C      1  0.5281300000000  0.4680160000000  0.4499570000000 1.0
C      1  0.4833960000000  0.4619350000000  0.4024960000000 1.0
C      1  0.4375050000000  0.5573570000000  0.4393750000000 1.0
C      1  0.5087050000000  0.4761590000000  0.3940650000000 1.0
C      1  0.4501900000000  0.4088480000000  0.4835430000000 1.0
C      1  0.4309430000000  0.5742180000000  0.5242710000000 1.0
C      1  0.4713330000000  0.4264470000000  0.4420960000000 1.0
C      1  0.5029220000000  0.5417230000000  0.4206920000000 1.0
C      1  0.4982940000000  0.5287050000000  0.4682930000000 1.0
C      1  0.5611880000000  0.5138540000000  0.5849700000000 1.0
C      1  0.6055320000000  0.4819660000000  0.4640960000000 1.0
C      1  0.5476590000000  0.4604900000000  0.5846490000000 1.0
C      1  0.5362740000000  0.4707730000000  0.4012420000000 1.0
C      1  0.5363040000000  0.4442040000000  0.4121050000000 1.0
C      1  0.4824840000000  0.5634190000000  0.4182420000000 1.0
C      1  0.4578420000000  0.5490040000000  0.4200100000000 1.0
C      1  0.4363570000000  0.4751910000000  0.4525720000000 1.0
C      1  0.4839980000000  0.5319330000000  0.5333540000000 1.0
C      1  0.4612750000000  0.5440390000000  0.4956600000000 1.0
C      1  0.4856620000000  0.4118100000000  0.5186190000000 1.0
C      1  0.4400180000000  0.5671220000000  0.5504080000000 1.0
C      1  0.4415870000000  0.4965660000000  0.5718810000000 1.0
C      1  0.4773490000000  0.4796670000000  0.6014880000000 1.0
C      1  0.5083500000000  0.5155310000000  0.6095720000000 1.0
C      1  0.5983210000000  0.4696700000000  0.4887850000000 1.0
C      1  0.5476090000000  0.4728760000000  0.4967160000000 1.0
C      1  0.4348550000000  0.4898900000000  0.4093940000000 1.0
C      1  0.5293680000000  0.5235560000000  0.5411120000000 1.0
C      1  0.5325930000000  0.5171830000000  0.4030070000000 1.0
C      1  0.5840760000000  0.5193110000000  0.5692760000000 1.0
C      1  0.4570310000000  0.4114300000000  0.5122510000000 1.0
C      1  0.5175330000000  0.4873040000000  0.4995990000000 1.0
C      1  0.4526430000000  0.4614860000000  0.4740490000000 1.0
C      1  0.4676030000000  0.5970570000000  0.4849790000000 1.0
C      1  0.4618770000000  0.4827070000000  0.3995260000000 1.0
C      1  0.4431490000000  0.5631040000000  0.4863220000000 1.0
C      1  0.4597950000000  0.4934760000000  0.5477180000000 1.0
C      1  0.4599400000000  0.5878440000000  0.4560810000000 1.0
C      1  0.4438930000000  0.4584330000000  0.5024760000000 1.0
C      1  0.4411240000000  0.5276630000000  0.5121340000000 1.0
C      1  0.4333440000000  0.4537050000000  0.4288020000000 1.0
C      1  0.4051790000000  0.4809900000000  0.5455040000000 1.0
C      1  0.5849940000000  0.5474660000000  0.4597920000000 1.0
C      1  0.5991650000000  0.5200290000000  0.4949300000000 1.0
C      1  0.5698080000000  0.5686680000000  0.4471050000000 1.0
C      1  0.5130080000000  0.4259140000000  0.4112360000000 1.0
C      1  0.5439170000000  0.5243500000000  0.4844230000000 1.0
C      1  0.5199900000000  0.5979600000000  0.5059700000000 1.0
C      1  0.5279240000000  0.5736800000000  0.5524540000000 1.0
C      1  0.5274230000000  0.5799520000000  0.5812770000000 1.0
C      1  0.5444560000000  0.4994810000000  0.5360140000000 1.0
C      1  0.4127890000000  0.4572080000000  0.5574270000000 1.0
C      1  0.5625460000000  0.4897370000000  0.5141330000000 1.0
C      1  0.5218380000000  0.4659780000000  0.5429120000000 1.0
C      1  0.5771580000000  0.4372690000000  0.5219650000000 1.0
C      1  0.5471810000000  0.5659940000000  0.4275490000000 1.0
C      1  0.4742470000000  0.5225120000000  0.4824720000000 1.0
C      1  0.4824060000000  0.5088020000000  0.5952410000000 1.0
C      1  0.4856090000000  0.4949120000000  0.4440710000000 1.0
C      1  0.5444470000000  0.5401900000000  0.5839480000000 1.0
C      1  0.5111110000000  0.5896180000000  0.5331310000000 1.0
C      1  0.4867930000000  0.4368930000000  0.4159260000000 1.0
C      1  0.4745030000000  0.4081310000000  0.4689190000000 1.0
C      1  0.4396520000000  0.4270130000000  0.4391150000000 1.0
C      1  0.5661910000000  0.5624510000000  0.5069370000000 1.0
C      1  0.5417740000000  0.5460090000000  0.5033000000000 1.0
C      1  0.4583920000000  0.4447070000000  0.5542510000000 1.0
C      1  0.5540160000000  0.5888450000000  0.4628590000000 1.0
C      1  0.5042870000000  0.4674700000000  0.6026080000000 1.0
C      1  0.5562850000000  0.5127130000000  0.4621900000000 1.0
C      1  0.4773500000000  0.5072050000000  0.3968790000000 1.0
C      1  0.5867640000000  0.4765520000000  0.5795380000000 1.0
C      1  0.4947030000000  0.4064830000000  0.4904730000000 1.0
C      1  0.6012120000000  0.4949890000000  0.5633410000000 1.0
C      1  0.4808650000000  0.4758090000000  0.5068210000000 1.0
C      1  0.4152070000000  0.4533430000000  0.5080090000000 1.0
C      1  0.5765730000000  0.4992830000000  0.4237050000000 1.0
C      1  0.5054000000000  0.5639600000000  0.5938120000000 1.0
C      1  0.5870260000000  0.5450940000000  0.4886470000000 1.0
C      1  0.4254090000000  0.5424500000000  0.5595320000000 1.0
C      1  0.5875380000000  0.4429490000000  0.4941630000000 1.0
C      1  0.5828090000000  0.4535220000000  0.4385720000000 1.0
C      1  0.5210250000000  0.5078370000000  0.4795580000000 1.0
C      1  0.5751850000000  0.5714370000000  0.5643630000000 1.0
END
