TITL C-4164238-4211-451 2.1368511146648 125000 -11659.7731218438 0 0 78 (C1) n - 1
REM
REM in /home/nfs/bkarasulu/CARBON/AIRSS/Generating-Clusters/ReaxFF-fromJPCA2015/Units_Real/with-SteepDescent/Only-C1/SD-CG/Try1-3A/FIRE-CG
REM
REM
REM
REM
REM
REM ./C.cell (11c1c37f851c82e70ff6c80c92926a4b)
REM
REM compiler GCC version 9.2.1 20190827 (Red Hat 9.2.1-1)
REM options -cpp -mtune=generic -march=x86-64 -g -O0 -fpre-include=/usr/include/finclude/math-vector-fortran.h
REM seed 970116171 390156941 -1298440867 38501701 1290102943 1959549585 -721510306 -346326609 2122965334 -1830954312 749275861 -1508652064 1964190520 -266362704 -975328542 1206488587 -1411206752 -781329994 -1987855758 1601912323 -194676927 -1995612622 -684478421 236678354 -305766531 2023721643 -102150465 -193634600 1434630744 -736379006 681335895 -1441527753 -1055328327
REM
CELL 1.54180   50.00000   50.00000   50.00000   90.00000   90.00000   90.00000
LATT -1
SFAC C  
C      1  0.4814440000000  0.5444720000000  0.4563850000000 1.0
C      1  0.4996560000000  0.5513370000000  0.5510520000000 1.0
C      1  0.4892640000000  0.5130390000000  0.5654480000000 1.0
C      1  0.5527120000000  0.4809960000000  0.5361630000000 1.0
C      1  0.5095680000000  0.5716790000000  0.4886340000000 1.0
C      1  0.5457320000000  0.4548910000000  0.4899550000000 1.0
C      1  0.4867730000000  0.5271770000000  0.4804510000000 1.0
C      1  0.5247230000000  0.4595810000000  0.4430220000000 1.0
C      1  0.5451390000000  0.5259190000000  0.5612970000000 1.0
C      1  0.5636520000000  0.5087340000000  0.5441560000000 1.0
C      1  0.5348440000000  0.5104830000000  0.4395940000000 1.0
C      1  0.5755410000000  0.5174440000000  0.5193430000000 1.0
C      1  0.4772110000000  0.5815430000000  0.5297410000000 1.0
C      1  0.5739320000000  0.4963060000000  0.4977720000000 1.0
C      1  0.5235880000000  0.5298260000000  0.5119980000000 1.0
C      1  0.4307220000000  0.5310820000000  0.4494790000000 1.0
C      1  0.4347470000000  0.4572870000000  0.4641220000000 1.0
C      1  0.5181600000000  0.4651880000000  0.4841030000000 1.0
C      1  0.5531390000000  0.5478710000000  0.5460510000000 1.0
C      1  0.4927850000000  0.5341920000000  0.4295650000000 1.0
C      1  0.5085610000000  0.5496460000000  0.4228540000000 1.0
C      1  0.5045050000000  0.4221600000000  0.4984220000000 1.0
C      1  0.5020610000000  0.4735970000000  0.5293960000000 1.0
C      1  0.4447040000000  0.5494390000000  0.4870700000000 1.0
C      1  0.5043140000000  0.4404370000000  0.4753010000000 1.0
C      1  0.4886060000000  0.4863850000000  0.4364890000000 1.0
C      1  0.4748970000000  0.5341280000000  0.5505000000000 1.0
C      1  0.5441330000000  0.4147800000000  0.5506250000000 1.0
C      1  0.5234440000000  0.5776580000000  0.5133250000000 1.0
C      1  0.4909120000000  0.4624690000000  0.5694620000000 1.0
C      1  0.4523750000000  0.4745040000000  0.5265690000000 1.0
C      1  0.4535510000000  0.5772340000000  0.5216890000000 1.0
C      1  0.4567540000000  0.4350150000000  0.4986120000000 1.0
C      1  0.5243560000000  0.5044720000000  0.5042530000000 1.0
C      1  0.4379930000000  0.4551110000000  0.5096170000000 1.0
C      1  0.4327840000000  0.5628540000000  0.5105720000000 1.0
C      1  0.5064500000000  0.5092030000000  0.4300230000000 1.0
C      1  0.5334540000000  0.4404310000000  0.5612300000000 1.0
C      1  0.5410270000000  0.4169070000000  0.5277810000000 1.0
C      1  0.5437780000000  0.5554420000000  0.5195120000000 1.0
C      1  0.4136660000000  0.4954300000000  0.4862940000000 1.0
C      1  0.4540670000000  0.4722410000000  0.5560790000000 1.0
C      1  0.5326260000000  0.4272760000000  0.5027710000000 1.0
C      1  0.5233820000000  0.4917560000000  0.5278700000000 1.0
C      1  0.4572160000000  0.4413880000000  0.5587090000000 1.0
C      1  0.5077220000000  0.5419510000000  0.4934450000000 1.0
C      1  0.4770160000000  0.4863070000000  0.5702990000000 1.0
C      1  0.4578990000000  0.5274330000000  0.5273400000000 1.0
C      1  0.5483880000000  0.4612390000000  0.4565530000000 1.0
C      1  0.5529710000000  0.4899650000000  0.4508060000000 1.0
C      1  0.5273960000000  0.5596760000000  0.4419950000000 1.0
C      1  0.4224090000000  0.5038240000000  0.4583590000000 1.0
C      1  0.5143220000000  0.5293590000000  0.5638220000000 1.0
C      1  0.5698080000000  0.5324270000000  0.4625880000000 1.0
C      1  0.5709200000000  0.5042010000000  0.4693500000000 1.0
C      1  0.4412370000000  0.4826440000000  0.4512430000000 1.0
C      1  0.4506950000000  0.5506220000000  0.4584480000000 1.0
C      1  0.5045190000000  0.5771240000000  0.5353880000000 1.0
C      1  0.5058540000000  0.5665140000000  0.4602290000000 1.0
C      1  0.4693080000000  0.4883790000000  0.4586350000000 1.0
C      1  0.4778590000000  0.4795160000000  0.5135100000000 1.0
C      1  0.5091520000000  0.4928010000000  0.4827420000000 1.0
C      1  0.4974550000000  0.4582330000000  0.4357450000000 1.0
C      1  0.4810100000000  0.4316300000000  0.5432860000000 1.0
C      1  0.4810080000000  0.4858850000000  0.4853580000000 1.0
C      1  0.4293200000000  0.5354820000000  0.5239510000000 1.0
C      1  0.5748080000000  0.5459600000000  0.5113010000000 1.0
C      1  0.5527130000000  0.4610990000000  0.5612940000000 1.0
C      1  0.4156960000000  0.5146200000000  0.5079080000000 1.0
C      1  0.4217160000000  0.4666600000000  0.4885310000000 1.0
C      1  0.4829900000000  0.4406220000000  0.4555380000000 1.0
C      1  0.4794330000000  0.4252620000000  0.5141700000000 1.0
C      1  0.5619550000000  0.4727640000000  0.5076860000000 1.0
C      1  0.5458210000000  0.5360280000000  0.4459100000000 1.0
C      1  0.4573390000000  0.4391660000000  0.4693600000000 1.0
C      1  0.4635530000000  0.5296470000000  0.4986620000000 1.0
C      1  0.5037570000000  0.4520890000000  0.5499120000000 1.0
C      1  0.5810030000000  0.5518570000000  0.4832790000000 1.0
END
