TITL C-4164236-1577-284 -6.28485024801824 125000 -17547.0904605889 0 0 116 (C1) n - 1
REM
REM in /home/nfs/bkarasulu/CARBON/AIRSS/Generating-Clusters/ReaxFF-fromJPCA2015/Units_Real/with-SteepDescent/Only-C1/SD-CG/Try1-3A/FIRE-CG
REM
REM
REM
REM
REM
REM ./C.cell (11c1c37f851c82e70ff6c80c92926a4b)
REM
REM compiler GCC version 9.2.1 20190827 (Red Hat 9.2.1-1)
REM options -cpp -mtune=generic -march=x86-64 -g -O0 -fpre-include=/usr/include/finclude/math-vector-fortran.h
REM seed -1599228557 -1697079225 -807468491 194062903 -1088685871 -1012546245 -1180452287 1481002690 558536930 1536900838 -1980969610 784698211 1568638208 595753250 1498022886 -169282409 165850668 -536051993 702377048 -1515290985 -1341516483 -1235667830 1825817789 1969422994 -1232999717 -1024803841 1520139809 -414695192 1369145570 1507430917 -1912485459 856679547 -1373592098
REM
CELL 1.54180   50.00000   50.00000   50.00000   90.00000   90.00000   90.00000
LATT -1
SFAC C  
C      1  0.4521420000000  0.4802360000000  0.5746130000000 1.0
C      1  0.5111430000000  0.4570020000000  0.4112700000000 1.0
C      1  0.4153510000000  0.5253440000000  0.4434350000000 1.0
C      1  0.4992740000000  0.5968220000000  0.4982200000000 1.0
C      1  0.4620630000000  0.5365560000000  0.4386740000000 1.0
C      1  0.4984480000000  0.5491450000000  0.4778240000000 1.0
C      1  0.5333490000000  0.5562920000000  0.5422790000000 1.0
C      1  0.4346620000000  0.5020660000000  0.5680790000000 1.0
C      1  0.4470460000000  0.5571240000000  0.4620840000000 1.0
C      1  0.4101130000000  0.5333200000000  0.5028370000000 1.0
C      1  0.4200100000000  0.4780780000000  0.5306090000000 1.0
C      1  0.4265640000000  0.4531500000000  0.5432170000000 1.0
C      1  0.5660260000000  0.4667930000000  0.4796860000000 1.0
C      1  0.5073440000000  0.5419700000000  0.5042120000000 1.0
C      1  0.5344340000000  0.4699750000000  0.4243540000000 1.0
C      1  0.5318050000000  0.5305070000000  0.5056210000000 1.0
C      1  0.5174810000000  0.4240530000000  0.4483730000000 1.0
C      1  0.4849310000000  0.5722270000000  0.5516760000000 1.0
C      1  0.5543130000000  0.4220850000000  0.4771890000000 1.0
C      1  0.5657970000000  0.5808360000000  0.5380990000000 1.0
C      1  0.5641510000000  0.4524720000000  0.5645870000000 1.0
C      1  0.4075800000000  0.5251050000000  0.5314000000000 1.0
C      1  0.4493330000000  0.4547500000000  0.5623310000000 1.0
C      1  0.5545510000000  0.5540290000000  0.4518830000000 1.0
C      1  0.4886980000000  0.4659460000000  0.5318630000000 1.0
C      1  0.5407180000000  0.5147460000000  0.4384450000000 1.0
C      1  0.4522010000000  0.5196280000000  0.4874260000000 1.0
C      1  0.5003570000000  0.5338180000000  0.5857690000000 1.0
C      1  0.4791960000000  0.5938780000000  0.4786580000000 1.0
C      1  0.5230940000000  0.4951340000000  0.4294490000000 1.0
C      1  0.4687710000000  0.5251010000000  0.5570360000000 1.0
C      1  0.4690820000000  0.4777450000000  0.4375540000000 1.0
C      1  0.5722380000000  0.5238050000000  0.5429850000000 1.0
C      1  0.4541700000000  0.4237150000000  0.5120650000000 1.0
C      1  0.5856110000000  0.5187590000000  0.5169650000000 1.0
C      1  0.5775850000000  0.5371890000000  0.4956610000000 1.0
C      1  0.5560800000000  0.4574870000000  0.4408880000000 1.0
C      1  0.5425160000000  0.5750230000000  0.4675870000000 1.0
C      1  0.5524950000000  0.4929740000000  0.4814760000000 1.0
C      1  0.4224040000000  0.5435180000000  0.4645380000000 1.0
C      1  0.5244440000000  0.4570500000000  0.5724760000000 1.0
C      1  0.4833000000000  0.4820590000000  0.5782530000000 1.0
C      1  0.5693250000000  0.4412700000000  0.4919630000000 1.0
C      1  0.5038370000000  0.5771580000000  0.4362680000000 1.0
C      1  0.4722580000000  0.4471760000000  0.4384120000000 1.0
C      1  0.5330890000000  0.4072590000000  0.4902910000000 1.0
C      1  0.4465480000000  0.5295340000000  0.5698230000000 1.0
C      1  0.4319790000000  0.4687890000000  0.5055520000000 1.0
C      1  0.4618270000000  0.4201450000000  0.4839220000000 1.0
C      1  0.4961120000000  0.4542330000000  0.5738890000000 1.0
C      1  0.5235770000000  0.4071590000000  0.5190070000000 1.0
C      1  0.4575310000000  0.5737550000000  0.4836690000000 1.0
C      1  0.5356850000000  0.5417050000000  0.4333130000000 1.0
C      1  0.4201830000000  0.4782080000000  0.4470980000000 1.0
C      1  0.5421670000000  0.4342280000000  0.5666080000000 1.0
C      1  0.4103780000000  0.5031230000000  0.4615970000000 1.0
C      1  0.4951000000000  0.5557150000000  0.5718650000000 1.0
C      1  0.4871320000000  0.5301410000000  0.4241660000000 1.0
C      1  0.5483190000000  0.5939300000000  0.5175320000000 1.0
C      1  0.4875220000000  0.5302480000000  0.5206890000000 1.0
C      1  0.5841950000000  0.4798610000000  0.5394700000000 1.0
C      1  0.4313140000000  0.4413660000000  0.5164960000000 1.0
C      1  0.4229010000000  0.5113860000000  0.4870540000000 1.0
C      1  0.4341620000000  0.4550780000000  0.4548350000000 1.0
C      1  0.4920540000000  0.5009660000000  0.4696850000000 1.0
C      1  0.5528100000000  0.5761830000000  0.4948290000000 1.0
C      1  0.5841990000000  0.4681320000000  0.4409150000000 1.0
C      1  0.4183030000000  0.5016110000000  0.5443690000000 1.0
C      1  0.4654360000000  0.5233880000000  0.5067500000000 1.0
C      1  0.5375360000000  0.4153720000000  0.5429650000000 1.0
C      1  0.5451900000000  0.4321880000000  0.4516210000000 1.0
C      1  0.4985120000000  0.4379270000000  0.4308690000000 1.0
C      1  0.5099480000000  0.4504410000000  0.5209770000000 1.0
C      1  0.4699190000000  0.4832410000000  0.4678880000000 1.0
C      1  0.4746360000000  0.4390200000000  0.5590110000000 1.0
C      1  0.4404300000000  0.5180790000000  0.4295020000000 1.0
C      1  0.5789560000000  0.4506730000000  0.5406650000000 1.0
C      1  0.5533810000000  0.5490010000000  0.5073510000000 1.0
C      1  0.4420460000000  0.4890050000000  0.4300040000000 1.0
C      1  0.5598830000000  0.5106670000000  0.4592400000000 1.0
C      1  0.5719070000000  0.5354780000000  0.4668820000000 1.0
C      1  0.4160490000000  0.5507400000000  0.5391120000000 1.0
C      1  0.4866900000000  0.4075080000000  0.4886840000000 1.0
C      1  0.4956310000000  0.4791360000000  0.3990800000000 1.0
C      1  0.5177740000000  0.5970270000000  0.5187090000000 1.0
C      1  0.4792930000000  0.5276810000000  0.4676910000000 1.0
C      1  0.4838560000000  0.5952540000000  0.4478670000000 1.0
C      1  0.5327880000000  0.5038550000000  0.4994210000000 1.0
C      1  0.4586080000000  0.4764330000000  0.4945650000000 1.0
C      1  0.5605330000000  0.5519090000000  0.5483760000000 1.0
C      1  0.4917350000000  0.4880540000000  0.5499470000000 1.0
C      1  0.5134610000000  0.5698010000000  0.4637980000000 1.0
C      1  0.4904200000000  0.5165000000000  0.5458950000000 1.0
C      1  0.4393100000000  0.5540580000000  0.5547720000000 1.0
C      1  0.5071500000000  0.4885870000000  0.4938000000000 1.0
C      1  0.5185960000000  0.4603820000000  0.4966920000000 1.0
C      1  0.4939610000000  0.4994920000000  0.4221200000000 1.0
C      1  0.4931880000000  0.4080540000000  0.5177130000000 1.0
C      1  0.5930420000000  0.4742310000000  0.4890570000000 1.0
C      1  0.5252090000000  0.5021610000000  0.5820190000000 1.0
C      1  0.4807590000000  0.4837020000000  0.5107540000000 1.0
C      1  0.5438710000000  0.4859940000000  0.5716130000000 1.0
C      1  0.5083290000000  0.5492720000000  0.4252220000000 1.0
C      1  0.5110430000000  0.4078770000000  0.4720090000000 1.0
C      1  0.4535770000000  0.4352450000000  0.4584060000000 1.0
C      1  0.5006690000000  0.5066110000000  0.5919600000000 1.0
C      1  0.5120630000000  0.5758660000000  0.5395960000000 1.0
C      1  0.4742400000000  0.4218490000000  0.5342110000000 1.0
C      1  0.4207940000000  0.5594930000000  0.5125190000000 1.0
C      1  0.5359390000000  0.4556910000000  0.5186400000000 1.0
C      1  0.4587900000000  0.5684270000000  0.5382980000000 1.0
C      1  0.5935140000000  0.4909680000000  0.5137150000000 1.0
C      1  0.5605440000000  0.4404270000000  0.5192080000000 1.0
C      1  0.5661950000000  0.4980420000000  0.5542700000000 1.0
C      1  0.4479400000000  0.5704440000000  0.5113310000000 1.0
C      1  0.6032840000000  0.4788770000000  0.4602460000000 1.0
END
