TITL C-4164243-3780-668 62.512602179996 125000 -26280.7490276576 0 0 179 (C1) n - 1
REM
REM in /home/nfs/bkarasulu/CARBON/AIRSS/Generating-Clusters/ReaxFF-fromJPCA2015/Units_Real/with-SteepDescent/Only-C1/SD-CG/Try1-3A/FIRE-CG
REM
REM
REM
REM
REM
REM ./C.cell (11c1c37f851c82e70ff6c80c92926a4b)
REM
REM compiler GCC version 9.2.1 20190827 (Red Hat 9.2.1-1)
REM options -cpp -mtune=generic -march=x86-64 -g -O0 -fpre-include=/usr/include/finclude/math-vector-fortran.h
REM seed 626853145 1576395825 164429909 549215318 197867314 -559015067 -244824680 -1176693154 897666931 -928272072 -385505457 1235319930 -505471346 758085456 -435419461 -949858836 250891440 -1174434985 -849780984 -1761911158 -929166396 -520500805 -1088482632 1887871687 -1478762279 825066978 642045593 294241414 1599929898 761448437 -66116970 590081778 1434858099
REM
CELL 1.54180   50.00000   50.00000   50.00000   90.00000   90.00000   90.00000
LATT -1
SFAC C  
C      1  0.3987800000000  0.5077510000000  0.4699270000000 1.0
C      1  0.3955290000000  0.5368060000000  0.4712610000000 1.0
C      1  0.6032250000000  0.5481740000000  0.5350170000000 1.0
C      1  0.5826320000000  0.5213470000000  0.4379160000000 1.0
C      1  0.4390180000000  0.5467850000000  0.5564160000000 1.0
C      1  0.4460950000000  0.4596370000000  0.5026970000000 1.0
C      1  0.5340230000000  0.5563140000000  0.5009590000000 1.0
C      1  0.4271530000000  0.5067140000000  0.4250470000000 1.0
C      1  0.4545740000000  0.4936270000000  0.5468850000000 1.0
C      1  0.5573950000000  0.5713300000000  0.4411030000000 1.0
C      1  0.5016650000000  0.4122330000000  0.5666530000000 1.0
C      1  0.5491100000000  0.5240990000000  0.5751010000000 1.0
C      1  0.4685560000000  0.5415100000000  0.4186020000000 1.0
C      1  0.4117270000000  0.4634130000000  0.4519220000000 1.0
C      1  0.5317870000000  0.5197280000000  0.3978670000000 1.0
C      1  0.5267830000000  0.4465310000000  0.4833140000000 1.0
C      1  0.4942290000000  0.4177780000000  0.4430540000000 1.0
C      1  0.5650210000000  0.5531180000000  0.4533850000000 1.0
C      1  0.5685190000000  0.4117660000000  0.5341600000000 1.0
C      1  0.5188630000000  0.4503380000000  0.4079240000000 1.0
C      1  0.4441860000000  0.5955760000000  0.5791790000000 1.0
C      1  0.4928800000000  0.5810930000000  0.5536530000000 1.0
C      1  0.5286630000000  0.5165550000000  0.4456740000000 1.0
C      1  0.4711410000000  0.4277150000000  0.4299290000000 1.0
C      1  0.5814110000000  0.4685110000000  0.4269810000000 1.0
C      1  0.4285410000000  0.4517850000000  0.4311810000000 1.0
C      1  0.5097210000000  0.4900810000000  0.5625910000000 1.0
C      1  0.5111240000000  0.5663670000000  0.4166520000000 1.0
C      1  0.4046500000000  0.4883940000000  0.5445150000000 1.0
C      1  0.4566600000000  0.4924630000000  0.6049620000000 1.0
C      1  0.4333150000000  0.5694440000000  0.5724700000000 1.0
C      1  0.4089050000000  0.4446080000000  0.5052860000000 1.0
C      1  0.5594150000000  0.5511290000000  0.5628610000000 1.0
C      1  0.4089440000000  0.5111060000000  0.5223750000000 1.0
C      1  0.4625230000000  0.5917730000000  0.5540660000000 1.0
C      1  0.5026970000000  0.5464600000000  0.5795340000000 1.0
C      1  0.4433450000000  0.4287230000000  0.4411550000000 1.0
C      1  0.5714540000000  0.4875770000000  0.4621400000000 1.0
C      1  0.4885560000000  0.4419420000000  0.5098070000000 1.0
C      1  0.4596590000000  0.5395990000000  0.4871210000000 1.0
C      1  0.5177140000000  0.4128580000000  0.5417950000000 1.0
C      1  0.5328870000000  0.5755640000000  0.5832230000000 1.0
C      1  0.5319530000000  0.4560710000000  0.4451380000000 1.0
C      1  0.5051680000000  0.3931820000000  0.5176090000000 1.0
C      1  0.4934230000000  0.4595420000000  0.3960930000000 1.0
C      1  0.4402190000000  0.5335510000000  0.4225370000000 1.0
C      1  0.5320510000000  0.5807490000000  0.4323470000000 1.0
C      1  0.4445240000000  0.4940870000000  0.4055120000000 1.0
C      1  0.4341890000000  0.5050330000000  0.5883250000000 1.0
C      1  0.4701340000000  0.4499290000000  0.4099340000000 1.0
C      1  0.4185500000000  0.5493680000000  0.4601950000000 1.0
C      1  0.4745620000000  0.5257740000000  0.5845450000000 1.0
C      1  0.5303420000000  0.4525690000000  0.5113520000000 1.0
C      1  0.4864310000000  0.4082420000000  0.4700400000000 1.0
C      1  0.5643650000000  0.5911840000000  0.5113460000000 1.0
C      1  0.4355360000000  0.5546030000000  0.4785330000000 1.0
C      1  0.5236860000000  0.5017580000000  0.4989960000000 1.0
C      1  0.4434260000000  0.5155430000000  0.5264240000000 1.0
C      1  0.5219210000000  0.4302630000000  0.4325110000000 1.0
C      1  0.5230340000000  0.5264390000000  0.5904170000000 1.0
C      1  0.5040430000000  0.5545040000000  0.4975590000000 1.0
C      1  0.4060790000000  0.4975300000000  0.4957420000000 1.0
C      1  0.5096330000000  0.5023750000000  0.4044560000000 1.0
C      1  0.5503410000000  0.4682190000000  0.5235230000000 1.0
C      1  0.4454670000000  0.4652150000000  0.4113570000000 1.0
C      1  0.6143060000000  0.5543480000000  0.5084560000000 1.0
C      1  0.5959830000000  0.4419610000000  0.4987870000000 1.0
C      1  0.5636330000000  0.4156980000000  0.4641540000000 1.0
C      1  0.5021840000000  0.4338020000000  0.5868590000000 1.0
C      1  0.4133440000000  0.4658210000000  0.5282380000000 1.0
C      1  0.5947460000000  0.5704330000000  0.4928680000000 1.0
C      1  0.5458510000000  0.4178110000000  0.5522070000000 1.0
C      1  0.5777980000000  0.5720650000000  0.5145210000000 1.0
C      1  0.5493950000000  0.4389920000000  0.5728960000000 1.0
C      1  0.4359700000000  0.5575490000000  0.4388450000000 1.0
C      1  0.5958190000000  0.4894790000000  0.4806440000000 1.0
C      1  0.5589590000000  0.4823530000000  0.5001740000000 1.0
C      1  0.5763530000000  0.4504110000000  0.5715050000000 1.0
C      1  0.5184350000000  0.5411650000000  0.4540200000000 1.0
C      1  0.5938190000000  0.4498090000000  0.5462430000000 1.0
C      1  0.4990320000000  0.5516110000000  0.5500160000000 1.0
C      1  0.4094690000000  0.4927600000000  0.4461810000000 1.0
C      1  0.5369000000000  0.5543510000000  0.4721170000000 1.0
C      1  0.5053790000000  0.5966650000000  0.4787910000000 1.0
C      1  0.5424960000000  0.5905290000000  0.5468850000000 1.0
C      1  0.3905240000000  0.5487330000000  0.4971830000000 1.0
C      1  0.4813400000000  0.5078240000000  0.6069650000000 1.0
C      1  0.5509090000000  0.5116100000000  0.5007250000000 1.0
C      1  0.4175870000000  0.4874450000000  0.5720190000000 1.0
C      1  0.6191020000000  0.5252530000000  0.5044250000000 1.0
C      1  0.5023800000000  0.4923450000000  0.5207070000000 1.0
C      1  0.5482050000000  0.4972310000000  0.4102150000000 1.0
C      1  0.4275200000000  0.5831360000000  0.5120660000000 1.0
C      1  0.4398110000000  0.4678290000000  0.5429570000000 1.0
C      1  0.6089800000000  0.5142650000000  0.4789960000000 1.0
C      1  0.4549160000000  0.4642660000000  0.5999970000000 1.0
C      1  0.4446440000000  0.4910920000000  0.4688270000000 1.0
C      1  0.3967260000000  0.5381540000000  0.5215000000000 1.0
C      1  0.4706660000000  0.4641520000000  0.5093660000000 1.0
C      1  0.5187840000000  0.4787240000000  0.5887950000000 1.0
C      1  0.4287320000000  0.4631340000000  0.5851710000000 1.0
C      1  0.4788580000000  0.4914540000000  0.5012350000000 1.0
C      1  0.5407250000000  0.6030130000000  0.5222790000000 1.0
C      1  0.5263560000000  0.4501410000000  0.5883680000000 1.0
C      1  0.4998340000000  0.5202220000000  0.5258380000000 1.0
C      1  0.4895550000000  0.5793180000000  0.4338580000000 1.0
C      1  0.5995150000000  0.4740980000000  0.5322440000000 1.0
C      1  0.4778180000000  0.3930280000000  0.5259320000000 1.0
C      1  0.5361100000000  0.5047190000000  0.5546060000000 1.0
C      1  0.5911940000000  0.4291650000000  0.5257670000000 1.0
C      1  0.4786020000000  0.4522350000000  0.5867130000000 1.0
C      1  0.4804740000000  0.4952990000000  0.4324410000000 1.0
C      1  0.5749740000000  0.4988500000000  0.4224220000000 1.0
C      1  0.5153120000000  0.6050480000000  0.5045150000000 1.0
C      1  0.5733690000000  0.4769590000000  0.5774010000000 1.0
C      1  0.4542170000000  0.4004430000000  0.5089380000000 1.0
C      1  0.4796590000000  0.4597640000000  0.4653490000000 1.0
C      1  0.5437070000000  0.4966670000000  0.4588980000000 1.0
C      1  0.5719350000000  0.5474850000000  0.5354490000000 1.0
C      1  0.4992990000000  0.6023120000000  0.5280370000000 1.0
C      1  0.4561760000000  0.5903760000000  0.4676370000000 1.0
C      1  0.5878230000000  0.4994240000000  0.5449070000000 1.0
C      1  0.4445660000000  0.5315730000000  0.5813280000000 1.0
C      1  0.5109680000000  0.5414900000000  0.4002840000000 1.0
C      1  0.4968600000000  0.4383330000000  0.4818940000000 1.0
C      1  0.4779090000000  0.5879740000000  0.4895670000000 1.0
C      1  0.5062960000000  0.5259380000000  0.4987620000000 1.0
C      1  0.4131070000000  0.4437430000000  0.4753480000000 1.0
C      1  0.4888940000000  0.4859930000000  0.4711880000000 1.0
C      1  0.5023740000000  0.5144500000000  0.4300300000000 1.0
C      1  0.4568300000000  0.4079820000000  0.4813230000000 1.0
C      1  0.4734230000000  0.6053150000000  0.5157670000000 1.0
C      1  0.4584410000000  0.5133330000000  0.5020030000000 1.0
C      1  0.4322710000000  0.4155280000000  0.5226780000000 1.0
C      1  0.4391110000000  0.4216250000000  0.5508100000000 1.0
C      1  0.4593450000000  0.5051610000000  0.4504430000000 1.0
C      1  0.4686490000000  0.5057210000000  0.3909450000000 1.0
C      1  0.4891820000000  0.5384760000000  0.4446610000000 1.0
C      1  0.5324660000000  0.3974500000000  0.4866930000000 1.0
C      1  0.4300820000000  0.4471110000000  0.5611560000000 1.0
C      1  0.5009430000000  0.4680350000000  0.5440830000000 1.0
C      1  0.5713800000000  0.4434050000000  0.4334220000000 1.0
C      1  0.4992040000000  0.4758610000000  0.4332270000000 1.0
C      1  0.4363790000000  0.4354750000000  0.5050350000000 1.0
C      1  0.4488280000000  0.5960910000000  0.5285180000000 1.0
C      1  0.4293250000000  0.4800290000000  0.4890250000000 1.0
C      1  0.5060930000000  0.3902150000000  0.4888340000000 1.0
C      1  0.5529040000000  0.4226760000000  0.4377770000000 1.0
C      1  0.5552380000000  0.4913670000000  0.5398250000000 1.0
C      1  0.5191380000000  0.4787500000000  0.4569140000000 1.0
C      1  0.4775400000000  0.4564240000000  0.5580140000000 1.0
C      1  0.4750350000000  0.5240880000000  0.4659610000000 1.0
C      1  0.4663040000000  0.4310340000000  0.5497310000000 1.0
C      1  0.4907460000000  0.4876700000000  0.3870360000000 1.0
C      1  0.4765450000000  0.5596480000000  0.5042240000000 1.0
C      1  0.4340440000000  0.5816800000000  0.4840770000000 1.0
C      1  0.5518050000000  0.5372560000000  0.5141940000000 1.0
C      1  0.4612340000000  0.5760790000000  0.4435150000000 1.0
C      1  0.5369240000000  0.4698710000000  0.4184600000000 1.0
C      1  0.5105580000000  0.4434460000000  0.5281210000000 1.0
C      1  0.5521050000000  0.5768440000000  0.5677910000000 1.0
C      1  0.5885830000000  0.5602310000000  0.4657080000000 1.0
C      1  0.4808450000000  0.5327410000000  0.5411120000000 1.0
C      1  0.5107090000000  0.5032910000000  0.6031380000000 1.0
C      1  0.4822050000000  0.5318750000000  0.3956090000000 1.0
C      1  0.4768780000000  0.4043960000000  0.5535200000000 1.0
C      1  0.4548020000000  0.5428170000000  0.5314980000000 1.0
C      1  0.5758320000000  0.5037400000000  0.5738380000000 1.0
C      1  0.5102310000000  0.5923440000000  0.4503910000000 1.0
C      1  0.5993230000000  0.5332890000000  0.4572760000000 1.0
C      1  0.5801300000000  0.4392750000000  0.4745420000000 1.0
C      1  0.6073750000000  0.5202280000000  0.5314370000000 1.0
C      1  0.4776630000000  0.5043440000000  0.5606710000000 1.0
C      1  0.4049820000000  0.5650280000000  0.5159570000000 1.0
C      1  0.6016590000000  0.4702090000000  0.5031070000000 1.0
C      1  0.5630140000000  0.4640770000000  0.4762430000000 1.0
C      1  0.5437500000000  0.4215950000000  0.4856330000000 1.0
C      1  0.4354720000000  0.4234030000000  0.4680810000000 1.0
C      1  0.5051350000000  0.5770900000000  0.5815610000000 1.0
END
