TITL C-4164246-3563-493 265.598242824123 125000 -29209.2466814442 0 0 199 (C1) n - 1
REM
REM in /home/nfs/bkarasulu/CARBON/AIRSS/Generating-Clusters/ReaxFF-fromJPCA2015/Units_Real/with-SteepDescent/Only-C1/SD-CG/Try1-3A/FIRE-CG
REM
REM
REM
REM
REM
REM ./C.cell (11c1c37f851c82e70ff6c80c92926a4b)
REM
REM compiler GCC version 9.2.1 20190827 (Red Hat 9.2.1-1)
REM options -cpp -mtune=generic -march=x86-64 -g -O0 -fpre-include=/usr/include/finclude/math-vector-fortran.h
REM seed 450832145 577324782 -1859370139 -614175467 954020187 -115474137 1097899661 2084892520 1572340836 -470173370 1552609184 -1085461372 -731380202 -484642209 1922791853 -263171490 1042626625 -1516425149 -67081549 -249212668 -1805458226 -1812020291 588777446 2092767924 453166240 -1143737121 -1842918562 -217125818 -2078357202 1394300752 874182999 -33658550 540839577
REM
CELL 1.54180   50.00000   50.00000   50.00000   90.00000   90.00000   90.00000
LATT -1
SFAC C  
C      1  0.5160020000000  0.5008770000000  0.4547710000000 1.0
C      1  0.6055030000000  0.4976150000000  0.4674070000000 1.0
C      1  0.4842030000000  0.4427950000000  0.3970350000000 1.0
C      1  0.3979480000000  0.5248130000000  0.5206970000000 1.0
C      1  0.4398960000000  0.4212000000000  0.4949990000000 1.0
C      1  0.5510370000000  0.5120150000000  0.5509660000000 1.0
C      1  0.5604290000000  0.5910380000000  0.4792660000000 1.0
C      1  0.3819040000000  0.4730110000000  0.5255900000000 1.0
C      1  0.5040300000000  0.6048850000000  0.4503720000000 1.0
C      1  0.5119840000000  0.6090540000000  0.5003550000000 1.0
C      1  0.4634160000000  0.5563990000000  0.5562620000000 1.0
C      1  0.5528510000000  0.4787090000000  0.3917740000000 1.0
C      1  0.5381560000000  0.4199780000000  0.4656570000000 1.0
C      1  0.5940690000000  0.4476650000000  0.5438220000000 1.0
C      1  0.5443130000000  0.5532060000000  0.4269580000000 1.0
C      1  0.5355520000000  0.5768830000000  0.4728550000000 1.0
C      1  0.5684060000000  0.4584320000000  0.4046230000000 1.0
C      1  0.5067640000000  0.4887720000000  0.5765620000000 1.0
C      1  0.4726740000000  0.5094320000000  0.4712510000000 1.0
C      1  0.4413000000000  0.4496640000000  0.4148630000000 1.0
C      1  0.3858950000000  0.5348330000000  0.4889720000000 1.0
C      1  0.4943510000000  0.5533030000000  0.4760890000000 1.0
C      1  0.4499850000000  0.4894270000000  0.5671800000000 1.0
C      1  0.5929770000000  0.4511530000000  0.4782000000000 1.0
C      1  0.5188990000000  0.4371150000000  0.5686900000000 1.0
C      1  0.4304620000000  0.5262470000000  0.4173060000000 1.0
C      1  0.5211130000000  0.4390230000000  0.4159120000000 1.0
C      1  0.4190840000000  0.5814720000000  0.5020680000000 1.0
C      1  0.4555970000000  0.3859440000000  0.5190480000000 1.0
C      1  0.4308040000000  0.4937300000000  0.4882340000000 1.0
C      1  0.4571930000000  0.4303240000000  0.3974260000000 1.0
C      1  0.5515500000000  0.5284230000000  0.4132040000000 1.0
C      1  0.4669960000000  0.6014670000000  0.4856470000000 1.0
C      1  0.4213640000000  0.5715390000000  0.5299290000000 1.0
C      1  0.5484370000000  0.5938600000000  0.4350640000000 1.0
C      1  0.5879890000000  0.4268750000000  0.5235740000000 1.0
C      1  0.5401570000000  0.4678630000000  0.5375460000000 1.0
C      1  0.3923800000000  0.5220920000000  0.4603800000000 1.0
C      1  0.4199680000000  0.5154480000000  0.5038920000000 1.0
C      1  0.5508010000000  0.4404610000000  0.4195400000000 1.0
C      1  0.5561850000000  0.5711540000000  0.5725380000000 1.0
C      1  0.5336530000000  0.4355040000000  0.5121600000000 1.0
C      1  0.5967320000000  0.4904500000000  0.5649270000000 1.0
C      1  0.4753020000000  0.4477110000000  0.4643210000000 1.0
C      1  0.4569330000000  0.4443840000000  0.5504090000000 1.0
C      1  0.4949750000000  0.3990880000000  0.4447020000000 1.0
C      1  0.4565960000000  0.4823840000000  0.4967070000000 1.0
C      1  0.4233790000000  0.4970500000000  0.4132470000000 1.0
C      1  0.4566310000000  0.4304970000000  0.4475040000000 1.0
C      1  0.4936050000000  0.4917310000000  0.4068130000000 1.0
C      1  0.4889070000000  0.4545830000000  0.6096790000000 1.0
C      1  0.4633160000000  0.5971080000000  0.5573490000000 1.0
C      1  0.5179100000000  0.4989780000000  0.3923790000000 1.0
C      1  0.5448770000000  0.4551820000000  0.4926070000000 1.0
C      1  0.5935990000000  0.5636980000000  0.5059550000000 1.0
C      1  0.5396010000000  0.4375960000000  0.5413880000000 1.0
C      1  0.4785200000000  0.5854830000000  0.5804470000000 1.0
C      1  0.4400700000000  0.5450870000000  0.5885360000000 1.0
C      1  0.4429520000000  0.4783560000000  0.4038340000000 1.0
C      1  0.4371800000000  0.5749550000000  0.4572900000000 1.0
C      1  0.4885970000000  0.5550510000000  0.4479790000000 1.0
C      1  0.4715160000000  0.3850280000000  0.4950860000000 1.0
C      1  0.4106810000000  0.5459350000000  0.5397610000000 1.0
C      1  0.5814390000000  0.5579990000000  0.5747280000000 1.0
C      1  0.4469120000000  0.5468500000000  0.4586220000000 1.0
C      1  0.5986300000000  0.5407650000000  0.5596840000000 1.0
C      1  0.4533110000000  0.5444800000000  0.5015350000000 1.0
C      1  0.5947300000000  0.5125010000000  0.4906450000000 1.0
C      1  0.4541570000000  0.4772890000000  0.5200200000000 1.0
C      1  0.5003320000000  0.4645560000000  0.5606000000000 1.0
C      1  0.4411050000000  0.5179690000000  0.5984750000000 1.0
C      1  0.5192800000000  0.6004550000000  0.4744610000000 1.0
C      1  0.5031830000000  0.4400140000000  0.5138320000000 1.0
C      1  0.5099030000000  0.4132590000000  0.4224710000000 1.0
C      1  0.5330950000000  0.4846980000000  0.4093700000000 1.0
C      1  0.4826030000000  0.6078020000000  0.5380540000000 1.0
C      1  0.4349010000000  0.4902980000000  0.4601280000000 1.0
C      1  0.4930150000000  0.4017040000000  0.5523780000000 1.0
C      1  0.4955790000000  0.4616550000000  0.4185610000000 1.0
C      1  0.5513350000000  0.4836770000000  0.5595500000000 1.0
C      1  0.4103910000000  0.5624360000000  0.4533790000000 1.0
C      1  0.5601840000000  0.5238070000000  0.5813830000000 1.0
C      1  0.6083540000000  0.4747350000000  0.4867920000000 1.0
C      1  0.5488530000000  0.4024480000000  0.5093860000000 1.0
C      1  0.4213140000000  0.5379470000000  0.5656760000000 1.0
C      1  0.6040910000000  0.4748320000000  0.5401600000000 1.0
C      1  0.4647660000000  0.5285730000000  0.5201910000000 1.0
C      1  0.5072000000000  0.5857350000000  0.5732990000000 1.0
C      1  0.5973160000000  0.5368030000000  0.5288190000000 1.0
C      1  0.4458570000000  0.5774410000000  0.5450520000000 1.0
C      1  0.5837900000000  0.4285920000000  0.4941620000000 1.0
C      1  0.4116640000000  0.4573880000000  0.5036870000000 1.0
C      1  0.5075440000000  0.4693140000000  0.5324550000000 1.0
C      1  0.5891990000000  0.5661830000000  0.4620350000000 1.0
C      1  0.5196140000000  0.3926730000000  0.5119510000000 1.0
C      1  0.4018800000000  0.4511930000000  0.5304330000000 1.0
C      1  0.4794710000000  0.4679580000000  0.4441870000000 1.0
C      1  0.5173560000000  0.5106060000000  0.6143400000000 1.0
C      1  0.4665960000000  0.5384360000000  0.4769830000000 1.0
C      1  0.4671110000000  0.5731010000000  0.4089210000000 1.0
C      1  0.4797930000000  0.4346720000000  0.5903390000000 1.0
C      1  0.5343820000000  0.5519990000000  0.5376620000000 1.0
C      1  0.5327800000000  0.4841040000000  0.4377450000000 1.0
C      1  0.4987540000000  0.5072210000000  0.4321560000000 1.0
C      1  0.5818290000000  0.4470950000000  0.5708710000000 1.0
C      1  0.4582240000000  0.4241650000000  0.5302590000000 1.0
C      1  0.5602760000000  0.4303990000000  0.5813280000000 1.0
C      1  0.5202710000000  0.4848370000000  0.6009310000000 1.0
C      1  0.5202700000000  0.5406680000000  0.5599320000000 1.0
C      1  0.6130710000000  0.5151900000000  0.5133970000000 1.0
C      1  0.4633420000000  0.4980140000000  0.3971920000000 1.0
C      1  0.5246710000000  0.6025780000000  0.5245830000000 1.0
C      1  0.4322320000000  0.4428360000000  0.5703260000000 1.0
C      1  0.4972840000000  0.4437070000000  0.4837020000000 1.0
C      1  0.4762580000000  0.5486510000000  0.3964750000000 1.0
C      1  0.5687670000000  0.4072230000000  0.5323310000000 1.0
C      1  0.4667000000000  0.4046670000000  0.4508770000000 1.0
C      1  0.5607940000000  0.4129080000000  0.4844380000000 1.0
C      1  0.5723650000000  0.5860430000000  0.5061070000000 1.0
C      1  0.5535490000000  0.5946960000000  0.5260720000000 1.0
C      1  0.4226150000000  0.5091630000000  0.5745400000000 1.0
C      1  0.6122490000000  0.5703240000000  0.4791110000000 1.0
C      1  0.5211440000000  0.5950030000000  0.4272750000000 1.0
C      1  0.5743660000000  0.4750410000000  0.5754600000000 1.0
C      1  0.5535790000000  0.4743200000000  0.4566450000000 1.0
C      1  0.5349160000000  0.4405540000000  0.5932160000000 1.0
C      1  0.5736650000000  0.5179720000000  0.5297850000000 1.0
C      1  0.5073930000000  0.5486060000000  0.3987250000000 1.0
C      1  0.4442980000000  0.4658900000000  0.5849880000000 1.0
C      1  0.4524650000000  0.5302090000000  0.4371250000000 1.0
C      1  0.5021640000000  0.3871180000000  0.4894940000000 1.0
C      1  0.4654900000000  0.5032920000000  0.6073100000000 1.0
C      1  0.5734620000000  0.4528650000000  0.4557540000000 1.0
C      1  0.5709960000000  0.5901650000000  0.4520570000000 1.0
C      1  0.3905350000000  0.4684570000000  0.4681930000000 1.0
C      1  0.5297750000000  0.4963020000000  0.5044880000000 1.0
C      1  0.5412000000000  0.5194520000000  0.6011600000000 1.0
C      1  0.4231820000000  0.4412150000000  0.4850620000000 1.0
C      1  0.3891930000000  0.4731500000000  0.4972480000000 1.0
C      1  0.4693120000000  0.5770970000000  0.4395800000000 1.0
C      1  0.5238860000000  0.4491110000000  0.4738090000000 1.0
C      1  0.4905340000000  0.5177290000000  0.6048930000000 1.0
C      1  0.4895350000000  0.5174330000000  0.5118700000000 1.0
C      1  0.4859240000000  0.6058150000000  0.5090340000000 1.0
C      1  0.4732800000000  0.5078950000000  0.5623340000000 1.0
C      1  0.5772890000000  0.5503610000000  0.4856160000000 1.0
C      1  0.4656220000000  0.4721840000000  0.6044010000000 1.0
C      1  0.4516930000000  0.4721440000000  0.5435660000000 1.0
C      1  0.4613120000000  0.5292650000000  0.5477220000000 1.0
C      1  0.4989450000000  0.4164210000000  0.5764640000000 1.0
C      1  0.5778300000000  0.4859290000000  0.4046260000000 1.0
C      1  0.3893630000000  0.4936230000000  0.4533450000000 1.0
C      1  0.5296430000000  0.5491050000000  0.5094400000000 1.0
C      1  0.4262040000000  0.5422510000000  0.4974360000000 1.0
C      1  0.5740050000000  0.5008010000000  0.5085910000000 1.0
C      1  0.5899100000000  0.5172070000000  0.5746480000000 1.0
C      1  0.5744500000000  0.5102050000000  0.4201990000000 1.0
C      1  0.4627230000000  0.4912950000000  0.4512550000000 1.0
C      1  0.4046510000000  0.5607550000000  0.4843820000000 1.0
C      1  0.5140310000000  0.3980540000000  0.4659460000000 1.0
C      1  0.5181400000000  0.4582700000000  0.6093860000000 1.0
C      1  0.4648410000000  0.3979110000000  0.5434120000000 1.0
C      1  0.5236350000000  0.5288080000000  0.4650150000000 1.0
C      1  0.4820540000000  0.5305870000000  0.4344860000000 1.0
C      1  0.5266090000000  0.5634260000000  0.5768670000000 1.0
C      1  0.4144000000000  0.4870930000000  0.4396750000000 1.0
C      1  0.4765660000000  0.6008620000000  0.4577090000000 1.0
C      1  0.6133670000000  0.4855250000000  0.5145530000000 1.0
C      1  0.5859480000000  0.5078300000000  0.4474360000000 1.0
C      1  0.5229990000000  0.5688940000000  0.4125230000000 1.0
C      1  0.4196840000000  0.4343310000000  0.5457370000000 1.0
C      1  0.5010480000000  0.4983090000000  0.5326670000000 1.0
C      1  0.5574250000000  0.5710640000000  0.5429470000000 1.0
C      1  0.4127180000000  0.4497830000000  0.4606680000000 1.0
C      1  0.4763400000000  0.4515300000000  0.5663430000000 1.0
C      1  0.5588780000000  0.4295980000000  0.4452970000000 1.0
C      1  0.5512940000000  0.5417430000000  0.4915680000000 1.0
C      1  0.3869780000000  0.4998630000000  0.5375750000000 1.0
C      1  0.4864020000000  0.4966470000000  0.4906320000000 1.0
C      1  0.5085490000000  0.6022650000000  0.5491820000000 1.0
C      1  0.5326830000000  0.5542250000000  0.4544870000000 1.0
C      1  0.4982840000000  0.5173020000000  0.5747610000000 1.0
C      1  0.5647380000000  0.4997350000000  0.4661870000000 1.0
C      1  0.5465940000000  0.5196190000000  0.4764560000000 1.0
C      1  0.5506850000000  0.4788160000000  0.5088940000000 1.0
C      1  0.3960990000000  0.4955650000000  0.5640850000000 1.0
C      1  0.4346340000000  0.4149480000000  0.5225960000000 1.0
C      1  0.4406800000000  0.5897130000000  0.4843050000000 1.0
C      1  0.5264790000000  0.5114590000000  0.5307460000000 1.0
C      1  0.5264880000000  0.5266610000000  0.3971440000000 1.0
C      1  0.4079720000000  0.5367850000000  0.4411100000000 1.0
C      1  0.5038510000000  0.4118610000000  0.5269170000000 1.0
C      1  0.4654770000000  0.5598910000000  0.5856330000000 1.0
C      1  0.4304770000000  0.4406330000000  0.4400360000000 1.0
C      1  0.4559820000000  0.5258620000000  0.3967200000000 1.0
C      1  0.4562750000000  0.4025870000000  0.4773770000000 1.0
C      1  0.5554200000000  0.4163580000000  0.5560440000000 1.0
C      1  0.5121920000000  0.4869180000000  0.4836540000000 1.0
C      1  0.5044630000000  0.5410640000000  0.4996450000000 1.0
END
