TITL C-4164238-4211-28 55.3938737301548 125000 -24342.9072551295 0 0 163 (C1) n - 1
REM
REM in /home/nfs/bkarasulu/CARBON/AIRSS/Generating-Clusters/ReaxFF-fromJPCA2015/Units_Real/with-SteepDescent/Only-C1/SD-CG/Try1-3A/FIRE-CG
REM
REM
REM
REM
REM
REM ./C.cell (11c1c37f851c82e70ff6c80c92926a4b)
REM
REM compiler GCC version 9.2.1 20190827 (Red Hat 9.2.1-1)
REM options -cpp -mtune=generic -march=x86-64 -g -O0 -fpre-include=/usr/include/finclude/math-vector-fortran.h
REM seed -1905268718 159733235 257575930 -1004211012 -51438575 -1093841903 -1194146808 -1443792566 -1652490052 2005218796 752489430 2003223412 35438638 867343761 665217258 -1874087758 -2067764886 1145355017 1994136025 931765822 650732126 654796556 1278268173 -1672108497 -1541826670 103916538 -1510235710 734829654 102137811 43358178 -1061008048 720052797 -2004470730
REM
CELL 1.54180   50.00000   50.00000   50.00000   90.00000   90.00000   90.00000
LATT -1
SFAC C  
C      1  0.5129380000000  0.5250110000000  0.5679980000000 1.0
C      1  0.4437040000000  0.5626710000000  0.5158360000000 1.0
C      1  0.4812590000000  0.5462740000000  0.4921490000000 1.0
C      1  0.4908210000000  0.5363050000000  0.5482530000000 1.0
C      1  0.4095610000000  0.4697760000000  0.4675920000000 1.0
C      1  0.5456490000000  0.4148890000000  0.5395220000000 1.0
C      1  0.4940320000000  0.5909190000000  0.4947230000000 1.0
C      1  0.5015490000000  0.4675580000000  0.4397540000000 1.0
C      1  0.4180420000000  0.4186640000000  0.5244830000000 1.0
C      1  0.5170080000000  0.4282050000000  0.5762400000000 1.0
C      1  0.4087230000000  0.4449340000000  0.4876620000000 1.0
C      1  0.4162670000000  0.5020090000000  0.5731620000000 1.0
C      1  0.5058350000000  0.5030390000000  0.4565900000000 1.0
C      1  0.5997250000000  0.4983850000000  0.4594110000000 1.0
C      1  0.5417090000000  0.4509470000000  0.3931610000000 1.0
C      1  0.5588110000000  0.4690450000000  0.6105520000000 1.0
C      1  0.4069660000000  0.4676470000000  0.5366630000000 1.0
C      1  0.4842590000000  0.4163090000000  0.5532570000000 1.0
C      1  0.5853240000000  0.4907390000000  0.5888800000000 1.0
C      1  0.5736550000000  0.5104410000000  0.4197120000000 1.0
C      1  0.5343370000000  0.4637640000000  0.5209040000000 1.0
C      1  0.4642550000000  0.5736590000000  0.4971160000000 1.0
C      1  0.6100010000000  0.4992380000000  0.5041750000000 1.0
C      1  0.4587290000000  0.4967140000000  0.5684410000000 1.0
C      1  0.4989990000000  0.4496920000000  0.4901220000000 1.0
C      1  0.4982400000000  0.3917030000000  0.4875810000000 1.0
C      1  0.5183730000000  0.4875510000000  0.5651570000000 1.0
C      1  0.4762670000000  0.5092790000000  0.4002780000000 1.0
C      1  0.3959240000000  0.5248990000000  0.4789740000000 1.0
C      1  0.5964720000000  0.4648420000000  0.5203910000000 1.0
C      1  0.5463850000000  0.5949700000000  0.4865860000000 1.0
C      1  0.4425830000000  0.5627110000000  0.5708520000000 1.0
C      1  0.5163990000000  0.5194560000000  0.5098670000000 1.0
C      1  0.5232090000000  0.4129520000000  0.5180570000000 1.0
C      1  0.4147670000000  0.5344370000000  0.4587660000000 1.0
C      1  0.5681330000000  0.5653390000000  0.5348090000000 1.0
C      1  0.5422400000000  0.5203060000000  0.4646100000000 1.0
C      1  0.5314890000000  0.4838880000000  0.5006020000000 1.0
C      1  0.4803670000000  0.3938210000000  0.5092330000000 1.0
C      1  0.4498670000000  0.4604490000000  0.4407720000000 1.0
C      1  0.5726370000000  0.4641060000000  0.5865980000000 1.0
C      1  0.5680980000000  0.4388560000000  0.4759340000000 1.0
C      1  0.4635280000000  0.5697710000000  0.4269420000000 1.0
C      1  0.5429550000000  0.5179250000000  0.5192550000000 1.0
C      1  0.5361790000000  0.4056920000000  0.4867830000000 1.0
C      1  0.6073420000000  0.5089350000000  0.5436850000000 1.0
C      1  0.4297360000000  0.5035380000000  0.4176920000000 1.0
C      1  0.5600480000000  0.4549510000000  0.5607730000000 1.0
C      1  0.4995830000000  0.4758830000000  0.3911510000000 1.0
C      1  0.4612010000000  0.5277810000000  0.4835840000000 1.0
C      1  0.5862340000000  0.4893910000000  0.4365440000000 1.0
C      1  0.4213740000000  0.4749000000000  0.5616180000000 1.0
C      1  0.5676300000000  0.4232770000000  0.5237840000000 1.0
C      1  0.4690680000000  0.5156300000000  0.5458210000000 1.0
C      1  0.5018590000000  0.5059400000000  0.3944000000000 1.0
C      1  0.5414880000000  0.5977430000000  0.4573870000000 1.0
C      1  0.4085020000000  0.4455860000000  0.5170940000000 1.0
C      1  0.5018390000000  0.5341380000000  0.5946650000000 1.0
C      1  0.5492480000000  0.4791840000000  0.3887520000000 1.0
C      1  0.4077620000000  0.5253230000000  0.5567060000000 1.0
C      1  0.4753440000000  0.4189890000000  0.4560270000000 1.0
C      1  0.5455790000000  0.5434650000000  0.5338490000000 1.0
C      1  0.4965270000000  0.3982660000000  0.4601800000000 1.0
C      1  0.5251600000000  0.5526380000000  0.4058140000000 1.0
C      1  0.4902360000000  0.5610270000000  0.5931190000000 1.0
C      1  0.5784460000000  0.4621610000000  0.4434090000000 1.0
C      1  0.4583130000000  0.5027090000000  0.4510480000000 1.0
C      1  0.4322650000000  0.4118250000000  0.4993010000000 1.0
C      1  0.5246550000000  0.4686430000000  0.3773010000000 1.0
C      1  0.4282590000000  0.5453240000000  0.5514240000000 1.0
C      1  0.4917200000000  0.4885080000000  0.6088540000000 1.0
C      1  0.4032300000000  0.4665100000000  0.4352870000000 1.0
C      1  0.4862600000000  0.6160900000000  0.4831740000000 1.0
C      1  0.5179640000000  0.4424050000000  0.5103310000000 1.0
C      1  0.5283510000000  0.4695820000000  0.4509200000000 1.0
C      1  0.4901330000000  0.4257310000000  0.5813910000000 1.0
C      1  0.5356270000000  0.4256950000000  0.4379740000000 1.0
C      1  0.4594620000000  0.5819390000000  0.5548410000000 1.0
C      1  0.4594750000000  0.4775700000000  0.4872380000000 1.0
C      1  0.5160740000000  0.5287820000000  0.4601070000000 1.0
C      1  0.4464890000000  0.5763820000000  0.4724280000000 1.0
C      1  0.4268850000000  0.4741970000000  0.4221460000000 1.0
C      1  0.4740560000000  0.4793120000000  0.4446740000000 1.0
C      1  0.3979430000000  0.5374660000000  0.5064400000000 1.0
C      1  0.5319350000000  0.4921940000000  0.4678170000000 1.0
C      1  0.4006210000000  0.4958690000000  0.4814960000000 1.0
C      1  0.4401360000000  0.4694260000000  0.4672740000000 1.0
C      1  0.4463500000000  0.5352210000000  0.5286010000000 1.0
C      1  0.5384340000000  0.4871010000000  0.6129440000000 1.0
C      1  0.5264600000000  0.5225330000000  0.4022430000000 1.0
C      1  0.5026640000000  0.4562220000000  0.4126990000000 1.0
C      1  0.4011210000000  0.4929770000000  0.5230900000000 1.0
C      1  0.4613950000000  0.4198560000000  0.5049810000000 1.0
C      1  0.5010090000000  0.5411270000000  0.5164500000000 1.0
C      1  0.4357510000000  0.4159680000000  0.5461710000000 1.0
C      1  0.5736360000000  0.5837150000000  0.4804630000000 1.0
C      1  0.5253030000000  0.4079380000000  0.4596850000000 1.0
C      1  0.4297240000000  0.5120000000000  0.4455080000000 1.0
C      1  0.4499390000000  0.4685060000000  0.5668500000000 1.0
C      1  0.5790620000000  0.5572560000000  0.4902660000000 1.0
C      1  0.4650370000000  0.4472580000000  0.5847730000000 1.0
C      1  0.5462150000000  0.5841870000000  0.5379050000000 1.0
C      1  0.4406480000000  0.5079120000000  0.5884880000000 1.0
C      1  0.4227490000000  0.5591340000000  0.4731390000000 1.0
C      1  0.4423570000000  0.5186230000000  0.5026150000000 1.0
C      1  0.5505560000000  0.5544800000000  0.4162940000000 1.0
C      1  0.4608980000000  0.5544080000000  0.5926590000000 1.0
C      1  0.5670350000000  0.5291030000000  0.4776940000000 1.0
C      1  0.5963780000000  0.5024680000000  0.5665370000000 1.0
C      1  0.5249220000000  0.4369060000000  0.4131490000000 1.0
C      1  0.4857260000000  0.5677220000000  0.5516520000000 1.0
C      1  0.5652010000000  0.4967730000000  0.6111110000000 1.0
C      1  0.4218730000000  0.4980220000000  0.5016390000000 1.0
C      1  0.4602730000000  0.6316540000000  0.4796010000000 1.0
C      1  0.5288750000000  0.5872350000000  0.5098960000000 1.0
C      1  0.4456640000000  0.4279130000000  0.4503350000000 1.0
C      1  0.4176780000000  0.5586910000000  0.5025190000000 1.0
C      1  0.4655260000000  0.5293830000000  0.4550370000000 1.0
C      1  0.4529520000000  0.5206750000000  0.4092420000000 1.0
C      1  0.5342230000000  0.5442120000000  0.5621440000000 1.0
C      1  0.4563360000000  0.5280140000000  0.6037090000000 1.0
C      1  0.4595020000000  0.4733900000000  0.5164410000000 1.0
C      1  0.4571820000000  0.5428420000000  0.4301850000000 1.0
C      1  0.5174450000000  0.4855590000000  0.5948740000000 1.0
C      1  0.5672890000000  0.5851360000000  0.4514960000000 1.0
C      1  0.6006180000000  0.4823900000000  0.4828170000000 1.0
C      1  0.4770670000000  0.4316880000000  0.4818130000000 1.0
C      1  0.5046580000000  0.5771690000000  0.4707390000000 1.0
C      1  0.4559490000000  0.4152540000000  0.5618080000000 1.0
C      1  0.5833860000000  0.5343660000000  0.4327140000000 1.0
C      1  0.4949040000000  0.4737060000000  0.5502120000000 1.0
C      1  0.5798090000000  0.4475410000000  0.5342450000000 1.0
C      1  0.5246140000000  0.5590950000000  0.5142890000000 1.0
C      1  0.4692040000000  0.6138090000000  0.4571370000000 1.0
C      1  0.5386010000000  0.4723160000000  0.5494430000000 1.0
C      1  0.5099330000000  0.5743930000000  0.4215700000000 1.0
C      1  0.5877510000000  0.5537220000000  0.5166400000000 1.0
C      1  0.4986680000000  0.4001590000000  0.5294980000000 1.0
C      1  0.5166780000000  0.5877450000000  0.4461600000000 1.0
C      1  0.3950120000000  0.5209100000000  0.5306320000000 1.0
C      1  0.5500600000000  0.5056620000000  0.4028310000000 1.0
C      1  0.5041680000000  0.5771290000000  0.5723180000000 1.0
C      1  0.4806640000000  0.4907480000000  0.5302900000000 1.0
C      1  0.5318120000000  0.5731110000000  0.5619870000000 1.0
C      1  0.4655330000000  0.4461540000000  0.5235130000000 1.0
C      1  0.4568520000000  0.5888270000000  0.4484770000000 1.0
C      1  0.5421830000000  0.4281220000000  0.5650380000000 1.0
C      1  0.4249070000000  0.4249000000000  0.4749130000000 1.0
C      1  0.5890740000000  0.4572030000000  0.4698750000000 1.0
C      1  0.5905520000000  0.5239050000000  0.4587860000000 1.0
C      1  0.4831540000000  0.5172950000000  0.6089090000000 1.0
C      1  0.4757710000000  0.4673500000000  0.5991990000000 1.0
C      1  0.5715040000000  0.5628530000000  0.4313410000000 1.0
C      1  0.5671020000000  0.5147220000000  0.5039540000000 1.0
C      1  0.6149220000000  0.4850680000000  0.5267530000000 1.0
C      1  0.5497330000000  0.4497720000000  0.4489440000000 1.0
C      1  0.5002200000000  0.5496720000000  0.4711890000000 1.0
C      1  0.4880120000000  0.5666600000000  0.4181420000000 1.0
C      1  0.5049130000000  0.4946490000000  0.5048450000000 1.0
C      1  0.4888110000000  0.4770380000000  0.4868520000000 1.0
C      1  0.5612170000000  0.4181450000000  0.4941300000000 1.0
C      1  0.5926230000000  0.5219630000000  0.5165400000000 1.0
C      1  0.4856510000000  0.4479790000000  0.5424450000000 1.0
END
