TITL C-4164236-1577-619 -8.36533536770059e-06 125000 -2918.95927450876 0 0 21 (C1) n - 1
REM
REM in /home/nfs/bkarasulu/CARBON/AIRSS/Generating-Clusters/ReaxFF-fromJPCA2015/Units_Real/with-SteepDescent/Only-C1/SD-CG/Try1-3A/FIRE-CG
REM
REM
REM
REM
REM
REM ./C.cell (11c1c37f851c82e70ff6c80c92926a4b)
REM
REM compiler GCC version 9.2.1 20190827 (Red Hat 9.2.1-1)
REM options -cpp -mtune=generic -march=x86-64 -g -O0 -fpre-include=/usr/include/finclude/math-vector-fortran.h
REM seed -872151579 1846245298 2102643330 1052081827 -114286156 -704451717 -1982671210 1238153513 1410474615 -2017466258 1044591582 -1016133843 529006812 -1856412746 659061532 1974183189 1154797185 -946683399 -688808663 2103644685 -41885071 430292434 1704602380 -312617225 1219010111 -2003232090 1450931950 1925087347 -819955269 56665540 1012775813 1116909528 1950117313
REM
CELL 1.54180   50.00000   50.00000   50.00000   90.00000   90.00000   90.00000
LATT -1
SFAC C  
C      1  0.4726620000000  0.5544900000000  0.4897450000000 1.0
C      1  0.5305020000000  0.4541070000000  0.4829740000000 1.0
C      1  0.4947010000000  0.5109670000000  0.5317760000000 1.0
C      1  0.4800250000000  0.5269910000000  0.4808390000000 1.0
C      1  0.4478320000000  0.5443660000000  0.4981250000000 1.0
C      1  0.4817160000000  0.4732920000000  0.4854230000000 1.0
C      1  0.5174310000000  0.5179450000000  0.5145470000000 1.0
C      1  0.5191490000000  0.4535380000000  0.5112480000000 1.0
C      1  0.5074050000000  0.5182520000000  0.4861530000000 1.0
C      1  0.5512470000000  0.5012750000000  0.4954740000000 1.0
C      1  0.5265480000000  0.4747450000000  0.5310190000000 1.0
C      1  0.4912730000000  0.4626860000000  0.5132160000000 1.0
C      1  0.4574560000000  0.5170360000000  0.4987110000000 1.0
C      1  0.4661930000000  0.5522250000000  0.5185010000000 1.0
C      1  0.5560740000000  0.4969720000000  0.4681860000000 1.0
C      1  0.4980720000000  0.4815370000000  0.5348170000000 1.0
C      1  0.4693030000000  0.5236280000000  0.5253880000000 1.0
C      1  0.5284150000000  0.4790380000000  0.4676160000000 1.0
C      1  0.4612410000000  0.4637740000000  0.4728720000000 1.0
C      1  0.5032200000000  0.4934110000000  0.4722050000000 1.0
C      1  0.5395360000000  0.4997270000000  0.5211630000000 1.0
END
