TITL C-4164240-4114-387 4.62472738380829 125000 -11028.7332997325 0 0 74 (C1) n - 1
REM
REM in /home/nfs/bkarasulu/CARBON/AIRSS/Generating-Clusters/ReaxFF-fromJPCA2015/Units_Real/with-SteepDescent/Only-C1/SD-CG/Try1-3A/FIRE-CG
REM
REM
REM
REM
REM
REM ./C.cell (11c1c37f851c82e70ff6c80c92926a4b)
REM
REM compiler GCC version 9.2.1 20190827 (Red Hat 9.2.1-1)
REM options -cpp -mtune=generic -march=x86-64 -g -O0 -fpre-include=/usr/include/finclude/math-vector-fortran.h
REM seed -957729578 -162448261 -1132880979 211702302 -1487652188 -1518714000 1875343103 -285164509 468984438 1877923473 88621064 -458456167 1691177011 1405313084 -1304693875 -394437283 -305030717 218122202 1317454830 244803521 -1101331539 -1886189137 -1804404679 2127902813 -914867641 1947226791 1264681630 1613523038 -1492373073 1306850687 682120194 1942628049 1822148481
REM
CELL 1.54180   50.00000   50.00000   50.00000   90.00000   90.00000   90.00000
LATT -1
SFAC C  
C      1  0.5114930000000  0.4574510000000  0.5471570000000 1.0
C      1  0.5511180000000  0.4419000000000  0.4970560000000 1.0
C      1  0.4272810000000  0.5016130000000  0.5312740000000 1.0
C      1  0.4744210000000  0.4635800000000  0.4790110000000 1.0
C      1  0.4223170000000  0.5508020000000  0.5075860000000 1.0
C      1  0.5422800000000  0.5532300000000  0.4903680000000 1.0
C      1  0.4990910000000  0.5746550000000  0.5289900000000 1.0
C      1  0.5568450000000  0.4693930000000  0.5102660000000 1.0
C      1  0.4454630000000  0.4534350000000  0.5163940000000 1.0
C      1  0.4578290000000  0.5682600000000  0.5301150000000 1.0
C      1  0.5021160000000  0.4986580000000  0.5804480000000 1.0
C      1  0.5519780000000  0.4835610000000  0.5607360000000 1.0
C      1  0.5187120000000  0.5522890000000  0.5291840000000 1.0
C      1  0.5109100000000  0.4824600000000  0.4054980000000 1.0
C      1  0.5163920000000  0.4849250000000  0.4851330000000 1.0
C      1  0.4333420000000  0.5509510000000  0.5331080000000 1.0
C      1  0.5285260000000  0.5309800000000  0.4437780000000 1.0
C      1  0.4775370000000  0.5724220000000  0.5080480000000 1.0
C      1  0.4597850000000  0.5214470000000  0.5659980000000 1.0
C      1  0.5136910000000  0.4858510000000  0.5308060000000 1.0
C      1  0.5313770000000  0.4868200000000  0.5102580000000 1.0
C      1  0.4706890000000  0.4913130000000  0.4703570000000 1.0
C      1  0.4818570000000  0.4321650000000  0.5135310000000 1.0
C      1  0.5248260000000  0.5094720000000  0.5427310000000 1.0
C      1  0.4982660000000  0.5332400000000  0.5233320000000 1.0
C      1  0.4244240000000  0.4986320000000  0.5014820000000 1.0
C      1  0.4864250000000  0.4990710000000  0.4012800000000 1.0
C      1  0.5467730000000  0.5494800000000  0.5185110000000 1.0
C      1  0.4456290000000  0.4772660000000  0.5400600000000 1.0
C      1  0.5097650000000  0.5290620000000  0.4670530000000 1.0
C      1  0.5082940000000  0.5328150000000  0.4233550000000 1.0
C      1  0.4854420000000  0.5599020000000  0.4824810000000 1.0
C      1  0.4714500000000  0.4973460000000  0.5775780000000 1.0
C      1  0.5072640000000  0.4256290000000  0.5012910000000 1.0
C      1  0.5568960000000  0.4630650000000  0.5410830000000 1.0
C      1  0.4247520000000  0.5186060000000  0.4776110000000 1.0
C      1  0.5405250000000  0.4376190000000  0.4704510000000 1.0
C      1  0.4649450000000  0.4885100000000  0.4411400000000 1.0
C      1  0.4868980000000  0.4710940000000  0.4376540000000 1.0
C      1  0.5076220000000  0.5223170000000  0.5640320000000 1.0
C      1  0.5693280000000  0.4993310000000  0.4439140000000 1.0
C      1  0.4692050000000  0.5109620000000  0.4221030000000 1.0
C      1  0.4695640000000  0.5456480000000  0.4601450000000 1.0
C      1  0.4794240000000  0.5655300000000  0.5497250000000 1.0
C      1  0.5607190000000  0.4712920000000  0.4447980000000 1.0
C      1  0.5262740000000  0.4816170000000  0.5773990000000 1.0
C      1  0.5636050000000  0.5265830000000  0.5254660000000 1.0
C      1  0.5360800000000  0.4431270000000  0.5408840000000 1.0
C      1  0.5757110000000  0.4882760000000  0.4935890000000 1.0
C      1  0.5120720000000  0.5120860000000  0.4027750000000 1.0
C      1  0.4680610000000  0.4922340000000  0.5297260000000 1.0
C      1  0.4424080000000  0.5368400000000  0.4638010000000 1.0
C      1  0.4170440000000  0.5464540000000  0.4821090000000 1.0
C      1  0.4375620000000  0.5242230000000  0.5461850000000 1.0
C      1  0.4829450000000  0.5392820000000  0.5634930000000 1.0
C      1  0.5535550000000  0.5106680000000  0.5480100000000 1.0
C      1  0.4890620000000  0.5058950000000  0.5203060000000 1.0
C      1  0.5563990000000  0.5247750000000  0.4508750000000 1.0
C      1  0.4806620000000  0.5346930000000  0.4345780000000 1.0
C      1  0.5362440000000  0.4560530000000  0.4484240000000 1.0
C      1  0.4964880000000  0.5042440000000  0.4768850000000 1.0
C      1  0.4571630000000  0.4731050000000  0.5703920000000 1.0
C      1  0.4728650000000  0.4531430000000  0.5603470000000 1.0
C      1  0.5795560000000  0.4821810000000  0.4656940000000 1.0
C      1  0.5329310000000  0.4289600000000  0.5147180000000 1.0
C      1  0.4624390000000  0.4441110000000  0.4964520000000 1.0
C      1  0.5131950000000  0.4354530000000  0.4744640000000 1.0
C      1  0.5023980000000  0.4608090000000  0.4767060000000 1.0
C      1  0.5606690000000  0.5340630000000  0.4781870000000 1.0
C      1  0.5124910000000  0.4642270000000  0.4292650000000 1.0
C      1  0.4337100000000  0.4723910000000  0.5005450000000 1.0
C      1  0.5722060000000  0.5162720000000  0.4991310000000 1.0
C      1  0.4886840000000  0.4392200000000  0.5426220000000 1.0
C      1  0.5140390000000  0.5549660000000  0.4800590000000 1.0
END
