TITL C-4164244-2836-293 14.6093625133468 125000 -14016.7729832764 0 0 96 (C1) n - 1
REM
REM in /home/nfs/bkarasulu/CARBON/AIRSS/Generating-Clusters/ReaxFF-fromJPCA2015/Units_Real/with-SteepDescent/Only-C1/SD-CG/Try1-3A/FIRE-CG
REM
REM
REM
REM
REM
REM ./C.cell (11c1c37f851c82e70ff6c80c92926a4b)
REM
REM compiler GCC version 9.2.1 20190827 (Red Hat 9.2.1-1)
REM options -cpp -mtune=generic -march=x86-64 -g -O0 -fpre-include=/usr/include/finclude/math-vector-fortran.h
REM seed -1822657941 -1781406060 1505199155 -1021064950 -1571274872 995396248 -1366692508 1579817551 -2055062378 1626978330 -964676195 -599359797 -1654264445 1974918834 -1356170467 -1283787953 160595565 1122574569 1797981705 167501808 1484804120 -659340080 2133488824 912541815 1928435401 1968185151 -1903635538 -124133594 1030431298 1919478044 408144150 761620471 -1079924491
REM
CELL 1.54180   50.00000   50.00000   50.00000   90.00000   90.00000   90.00000
LATT -1
SFAC C  
C      1  0.5590940000000  0.4542680000000  0.4723070000000 1.0
C      1  0.5093430000000  0.4174730000000  0.4514060000000 1.0
C      1  0.4858410000000  0.5877090000000  0.5214040000000 1.0
C      1  0.5620460000000  0.5085490000000  0.5523980000000 1.0
C      1  0.4232330000000  0.5064030000000  0.4686490000000 1.0
C      1  0.4512870000000  0.5199080000000  0.4268150000000 1.0
C      1  0.5049310000000  0.5095410000000  0.4576780000000 1.0
C      1  0.5366380000000  0.4749690000000  0.4302010000000 1.0
C      1  0.4664430000000  0.4460690000000  0.5407490000000 1.0
C      1  0.5559450000000  0.4968800000000  0.4334820000000 1.0
C      1  0.5441080000000  0.4278770000000  0.4813300000000 1.0
C      1  0.5376720000000  0.4239670000000  0.4527410000000 1.0
C      1  0.4879940000000  0.4582160000000  0.4298160000000 1.0
C      1  0.5141170000000  0.4181380000000  0.5259500000000 1.0
C      1  0.5010080000000  0.4451720000000  0.4525220000000 1.0
C      1  0.5374560000000  0.5144770000000  0.4228440000000 1.0
C      1  0.5277080000000  0.5145130000000  0.5889750000000 1.0
C      1  0.4865360000000  0.4975600000000  0.5799300000000 1.0
C      1  0.4513660000000  0.5286110000000  0.5537300000000 1.0
C      1  0.5127170000000  0.5879340000000  0.5354060000000 1.0
C      1  0.4163730000000  0.5335500000000  0.5088880000000 1.0
C      1  0.4541440000000  0.4757470000000  0.4848850000000 1.0
C      1  0.4972160000000  0.4126240000000  0.4785160000000 1.0
C      1  0.4873970000000  0.5139920000000  0.5367350000000 1.0
C      1  0.4691790000000  0.5514350000000  0.5568870000000 1.0
C      1  0.5036370000000  0.4573250000000  0.5035980000000 1.0
C      1  0.5080350000000  0.4784360000000  0.5749140000000 1.0
C      1  0.5179150000000  0.4752240000000  0.4885600000000 1.0
C      1  0.5633210000000  0.5193790000000  0.4798770000000 1.0
C      1  0.5087800000000  0.5699150000000  0.4856060000000 1.0
C      1  0.4865960000000  0.5880970000000  0.4919800000000 1.0
C      1  0.5128180000000  0.4795800000000  0.5457210000000 1.0
C      1  0.4939500000000  0.4348770000000  0.5409910000000 1.0
C      1  0.5607220000000  0.4415230000000  0.5372610000000 1.0
C      1  0.5165480000000  0.5216200000000  0.4987630000000 1.0
C      1  0.4749290000000  0.4890340000000  0.4755080000000 1.0
C      1  0.5741740000000  0.4786630000000  0.4800290000000 1.0
C      1  0.5611060000000  0.5685930000000  0.4894010000000 1.0
C      1  0.5359270000000  0.5704720000000  0.4742520000000 1.0
C      1  0.5582530000000  0.4843370000000  0.5697580000000 1.0
C      1  0.4992520000000  0.4965280000000  0.4812680000000 1.0
C      1  0.4336520000000  0.5367210000000  0.5321520000000 1.0
C      1  0.4650590000000  0.5812220000000  0.4722820000000 1.0
C      1  0.5352610000000  0.5476290000000  0.4553260000000 1.0
C      1  0.5425320000000  0.5349410000000  0.4322170000000 1.0
C      1  0.4589680000000  0.4522690000000  0.4331480000000 1.0
C      1  0.4511050000000  0.4347210000000  0.4565610000000 1.0
C      1  0.5581240000000  0.4581400000000  0.5593650000000 1.0
C      1  0.4517600000000  0.5540610000000  0.5137460000000 1.0
C      1  0.5154560000000  0.5072560000000  0.5354150000000 1.0
C      1  0.4786710000000  0.5219470000000  0.4190610000000 1.0
C      1  0.5398600000000  0.4830600000000  0.5050160000000 1.0
C      1  0.5475590000000  0.4516190000000  0.4460960000000 1.0
C      1  0.4531630000000  0.4268310000000  0.5004740000000 1.0
C      1  0.4931940000000  0.4438800000000  0.4810070000000 1.0
C      1  0.4666570000000  0.5446420000000  0.4326850000000 1.0
C      1  0.5253070000000  0.5477890000000  0.5664700000000 1.0
C      1  0.5707360000000  0.4992860000000  0.4604220000000 1.0
C      1  0.4174360000000  0.4569870000000  0.5213140000000 1.0
C      1  0.4374430000000  0.4712880000000  0.4410620000000 1.0
C      1  0.5613760000000  0.4671610000000  0.5184020000000 1.0
C      1  0.5086280000000  0.4773020000000  0.4219710000000 1.0
C      1  0.4691830000000  0.5368970000000  0.4986050000000 1.0
C      1  0.4726360000000  0.5117100000000  0.5116060000000 1.0
C      1  0.5213670000000  0.4172410000000  0.4963970000000 1.0
C      1  0.4629770000000  0.4168610000000  0.4774420000000 1.0
C      1  0.5222320000000  0.5263340000000  0.4704190000000 1.0
C      1  0.4897360000000  0.5465460000000  0.4810280000000 1.0
C      1  0.5767010000000  0.5395140000000  0.5167830000000 1.0
C      1  0.4048730000000  0.4755700000000  0.5362990000000 1.0
C      1  0.4342850000000  0.5010840000000  0.4437170000000 1.0
C      1  0.4058310000000  0.4815840000000  0.5095810000000 1.0
C      1  0.4438490000000  0.4379070000000  0.5236210000000 1.0
C      1  0.4673310000000  0.5704010000000  0.5351330000000 1.0
C      1  0.4229560000000  0.5604480000000  0.4985580000000 1.0
C      1  0.5350510000000  0.5216990000000  0.5572010000000 1.0
C      1  0.5805950000000  0.4865240000000  0.5090200000000 1.0
C      1  0.4355590000000  0.5761540000000  0.4777350000000 1.0
C      1  0.4946050000000  0.5498360000000  0.5755580000000 1.0
C      1  0.5754100000000  0.5119480000000  0.5268430000000 1.0
C      1  0.5623020000000  0.5680730000000  0.5192270000000 1.0
C      1  0.5778780000000  0.5438690000000  0.4882360000000 1.0
C      1  0.4997820000000  0.5218850000000  0.5878260000000 1.0
C      1  0.5047260000000  0.5064470000000  0.4271640000000 1.0
C      1  0.5333450000000  0.4863430000000  0.5871700000000 1.0
C      1  0.4595900000000  0.4743020000000  0.5390530000000 1.0
C      1  0.5377190000000  0.5780790000000  0.5273090000000 1.0
C      1  0.4753350000000  0.5582070000000  0.4575130000000 1.0
C      1  0.5086610000000  0.5646860000000  0.5531860000000 1.0
C      1  0.5348010000000  0.4303850000000  0.5400580000000 1.0
C      1  0.4672470000000  0.5003750000000  0.5566250000000 1.0
C      1  0.4365620000000  0.4579580000000  0.4672670000000 1.0
C      1  0.4563660000000  0.4867670000000  0.5129590000000 1.0
C      1  0.5435960000000  0.5112770000000  0.5003720000000 1.0
C      1  0.5064990000000  0.4568620000000  0.5309260000000 1.0
C      1  0.4127160000000  0.5082880000000  0.4936410000000 1.0
END
