TITL C-4164235-1454-83 -3.05038983549547 125000 -12492.964415389 0 0 84 (C1) n - 1
REM
REM in /home/nfs/bkarasulu/CARBON/AIRSS/Generating-Clusters/ReaxFF-fromJPCA2015/Units_Real/with-SteepDescent/Only-C1/SD-CG/Try1-3A/FIRE-CG
REM
REM
REM
REM
REM
REM ./C.cell (11c1c37f851c82e70ff6c80c92926a4b)
REM
REM compiler GCC version 9.2.1 20190827 (Red Hat 9.2.1-1)
REM options -cpp -mtune=generic -march=x86-64 -g -O0 -fpre-include=/usr/include/finclude/math-vector-fortran.h
REM seed -954331061 71995896 -249258156 228664015 -1952917287 -638231379 -1318521047 -209455918 -774903294 -95990189 -311458080 -216491080 -666915429 -1603753303 -1466236463 -592444490 1104419815 -1071219280 55158922 -1881142652 -1182526967 1595014045 -1531896237 -642869477 687943269 738025846 -819804339 1383197926 1536473865 912171074 -160952755 766871085 637543369
REM
CELL 1.54180   50.00000   50.00000   50.00000   90.00000   90.00000   90.00000
LATT -1
SFAC C  
C      1  0.4359210000000  0.5603240000000  0.4758670000000 1.0
C      1  0.5473970000000  0.5774750000000  0.4824350000000 1.0
C      1  0.4987430000000  0.4999680000000  0.5390070000000 1.0
C      1  0.4682350000000  0.5846880000000  0.5125440000000 1.0
C      1  0.4927830000000  0.4713640000000  0.5366890000000 1.0
C      1  0.5163740000000  0.4249630000000  0.4957300000000 1.0
C      1  0.4132680000000  0.4943010000000  0.5261270000000 1.0
C      1  0.4996850000000  0.4174930000000  0.5208250000000 1.0
C      1  0.5104960000000  0.4490960000000  0.4236860000000 1.0
C      1  0.4470960000000  0.4928150000000  0.5641000000000 1.0
C      1  0.5462880000000  0.4679540000000  0.4451640000000 1.0
C      1  0.4477290000000  0.5629430000000  0.5231540000000 1.0
C      1  0.4717690000000  0.4774430000000  0.4270050000000 1.0
C      1  0.5373510000000  0.4812900000000  0.5840650000000 1.0
C      1  0.5453410000000  0.4651050000000  0.4948650000000 1.0
C      1  0.4312230000000  0.4712350000000  0.4963930000000 1.0
C      1  0.4952240000000  0.4815700000000  0.5866520000000 1.0
C      1  0.4465800000000  0.4653120000000  0.4730110000000 1.0
C      1  0.4963470000000  0.4880080000000  0.4153650000000 1.0
C      1  0.5710260000000  0.5310720000000  0.4610730000000 1.0
C      1  0.5026060000000  0.5440880000000  0.5588160000000 1.0
C      1  0.5133460000000  0.4157250000000  0.4671390000000 1.0
C      1  0.4170510000000  0.4972430000000  0.4987500000000 1.0
C      1  0.5124710000000  0.5531400000000  0.5344040000000 1.0
C      1  0.4638100000000  0.5656630000000  0.4676190000000 1.0
C      1  0.5583210000000  0.5511150000000  0.5256780000000 1.0
C      1  0.4856250000000  0.4134390000000  0.4710330000000 1.0
C      1  0.5189260000000  0.5766880000000  0.5229400000000 1.0
C      1  0.5089380000000  0.5385740000000  0.5100030000000 1.0
C      1  0.4668500000000  0.5122010000000  0.4936900000000 1.0
C      1  0.5476570000000  0.5804360000000  0.4591690000000 1.0
C      1  0.5575990000000  0.4736730000000  0.4708510000000 1.0
C      1  0.4288040000000  0.5348490000000  0.4631270000000 1.0
C      1  0.5174740000000  0.4540920000000  0.4933620000000 1.0
C      1  0.5225490000000  0.5302750000000  0.5759160000000 1.0
C      1  0.5210260000000  0.4569860000000  0.4489650000000 1.0
C      1  0.4778420000000  0.5844250000000  0.4853520000000 1.0
C      1  0.5540030000000  0.5354020000000  0.4345550000000 1.0
C      1  0.4552800000000  0.5210690000000  0.5590170000000 1.0
C      1  0.4564860000000  0.4415280000000  0.5332350000000 1.0
C      1  0.4846470000000  0.5219740000000  0.5526270000000 1.0
C      1  0.4970300000000  0.5308190000000  0.4459780000000 1.0
C      1  0.4693660000000  0.4503290000000  0.4779350000000 1.0
C      1  0.5258050000000  0.4946400000000  0.5303140000000 1.0
C      1  0.4472750000000  0.5303860000000  0.4436210000000 1.0
C      1  0.4350400000000  0.5212130000000  0.4906920000000 1.0
C      1  0.5546520000000  0.5223290000000  0.4843470000000 1.0
C      1  0.5205540000000  0.4719250000000  0.4088390000000 1.0
C      1  0.5547240000000  0.4960940000000  0.5361710000000 1.0
C      1  0.5074860000000  0.5158100000000  0.4234730000000 1.0
C      1  0.4962830000000  0.5890330000000  0.5090520000000 1.0
C      1  0.5930710000000  0.5140930000000  0.4679490000000 1.0
C      1  0.5531830000000  0.4768710000000  0.5599520000000 1.0
C      1  0.4713520000000  0.5451320000000  0.4485430000000 1.0
C      1  0.5490000000000  0.5614380000000  0.4424560000000 1.0
C      1  0.5467060000000  0.5729040000000  0.5115890000000 1.0
C      1  0.5407870000000  0.4530920000000  0.5494850000000 1.0
C      1  0.5098850000000  0.4256870000000  0.5456850000000 1.0
C      1  0.5622510000000  0.4823450000000  0.5108680000000 1.0
C      1  0.5366440000000  0.5143860000000  0.4229870000000 1.0
C      1  0.5456170000000  0.5334860000000  0.5602580000000 1.0
C      1  0.4277960000000  0.4798440000000  0.5452630000000 1.0
C      1  0.5261490000000  0.5255750000000  0.4876690000000 1.0
C      1  0.5159340000000  0.4606230000000  0.5865920000000 1.0
C      1  0.4456510000000  0.5053680000000  0.4408340000000 1.0
C      1  0.5166330000000  0.5023580000000  0.5864610000000 1.0
C      1  0.4485170000000  0.4793690000000  0.4467660000000 1.0
C      1  0.5427260000000  0.4857080000000  0.4212680000000 1.0
C      1  0.4360340000000  0.4601580000000  0.5237830000000 1.0
C      1  0.5212390000000  0.4671350000000  0.5319140000000 1.0
C      1  0.5075710000000  0.5136930000000  0.4681180000000 1.0
C      1  0.4842770000000  0.5280760000000  0.5043890000000 1.0
C      1  0.4488160000000  0.5411590000000  0.5402960000000 1.0
C      1  0.4318250000000  0.5495780000000  0.5027490000000 1.0
C      1  0.5223240000000  0.4377450000000  0.5676330000000 1.0
C      1  0.4737060000000  0.4558270000000  0.5525740000000 1.0
C      1  0.5641680000000  0.5285080000000  0.5409200000000 1.0
C      1  0.4706670000000  0.4221230000000  0.5169260000000 1.0
C      1  0.4685490000000  0.4758120000000  0.5732860000000 1.0
C      1  0.5252030000000  0.4326980000000  0.4445510000000 1.0
C      1  0.5704690000000  0.4956710000000  0.4857520000000 1.0
C      1  0.4650660000000  0.4228180000000  0.4880610000000 1.0
C      1  0.4924610000000  0.4662550000000  0.4843990000000 1.0
C      1  0.4873170000000  0.4948820000000  0.4795980000000 1.0
END
