TITL C-4164246-3563-170 37.6252599738226 125000 -22545.8813773329 0 0 153 (C1) n - 1
REM
REM in /home/nfs/bkarasulu/CARBON/AIRSS/Generating-Clusters/ReaxFF-fromJPCA2015/Units_Real/with-SteepDescent/Only-C1/SD-CG/Try1-3A/FIRE-CG
REM
REM
REM
REM
REM
REM ./C.cell (11c1c37f851c82e70ff6c80c92926a4b)
REM
REM compiler GCC version 9.2.1 20190827 (Red Hat 9.2.1-1)
REM options -cpp -mtune=generic -march=x86-64 -g -O0 -fpre-include=/usr/include/finclude/math-vector-fortran.h
REM seed -1685383481 -569941856 757100844 1538633042 1624204391 -283390297 2008291263 -879933327 437110916 408870117 1548440820 -563318459 -2095152394 773992903 -971801051 1413118125 1881214066 -1004894909 102026625 890481961 -1659844107 -1987202212 1658994812 2006167228 2091308820 1487757657 -729325414 218708181 421239056 332147419 1379885393 -573450456 97079442
REM
CELL 1.54180   50.00000   50.00000   50.00000   90.00000   90.00000   90.00000
LATT -1
SFAC C  
C      1  0.5850590000000  0.5255300000000  0.5752970000000 1.0
C      1  0.6181390000000  0.4922970000000  0.4935930000000 1.0
C      1  0.4773620000000  0.4639600000000  0.4375880000000 1.0
C      1  0.4578710000000  0.4786930000000  0.5956160000000 1.0
C      1  0.5633930000000  0.5173940000000  0.4165790000000 1.0
C      1  0.4311330000000  0.5637700000000  0.5438750000000 1.0
C      1  0.5611150000000  0.4897310000000  0.4029660000000 1.0
C      1  0.4690460000000  0.3946040000000  0.4946200000000 1.0
C      1  0.4420620000000  0.4332630000000  0.5696100000000 1.0
C      1  0.5980160000000  0.4493060000000  0.5067380000000 1.0
C      1  0.4271100000000  0.5325910000000  0.4313670000000 1.0
C      1  0.5383060000000  0.4456290000000  0.5925530000000 1.0
C      1  0.5110280000000  0.4392880000000  0.5817230000000 1.0
C      1  0.6073430000000  0.4772220000000  0.5159210000000 1.0
C      1  0.4461730000000  0.5578050000000  0.5672630000000 1.0
C      1  0.5124760000000  0.5557250000000  0.4111780000000 1.0
C      1  0.4862260000000  0.5132680000000  0.4753220000000 1.0
C      1  0.4093490000000  0.4959470000000  0.5512290000000 1.0
C      1  0.5498150000000  0.4583820000000  0.5039490000000 1.0
C      1  0.4861670000000  0.4489640000000  0.4610300000000 1.0
C      1  0.4932700000000  0.4412100000000  0.5065240000000 1.0
C      1  0.5251770000000  0.5622010000000  0.5882530000000 1.0
C      1  0.4497770000000  0.4514680000000  0.4093030000000 1.0
C      1  0.5567800000000  0.4598310000000  0.5745570000000 1.0
C      1  0.4390430000000  0.5572600000000  0.4838640000000 1.0
C      1  0.4184190000000  0.5514020000000  0.4671560000000 1.0
C      1  0.5475310000000  0.5020830000000  0.5741110000000 1.0
C      1  0.4683380000000  0.4251870000000  0.5541010000000 1.0
C      1  0.4038680000000  0.5169620000000  0.5288660000000 1.0
C      1  0.5208710000000  0.5725990000000  0.5636580000000 1.0
C      1  0.5927140000000  0.4980430000000  0.5345390000000 1.0
C      1  0.3935870000000  0.4769630000000  0.4978060000000 1.0
C      1  0.5595790000000  0.5546010000000  0.4509640000000 1.0
C      1  0.4950270000000  0.4600250000000  0.4848410000000 1.0
C      1  0.5908490000000  0.5236800000000  0.4620950000000 1.0
C      1  0.4884380000000  0.5911480000000  0.5189320000000 1.0
C      1  0.5087260000000  0.4020210000000  0.5277860000000 1.0
C      1  0.4389750000000  0.4290380000000  0.5016700000000 1.0
C      1  0.4442640000000  0.5077730000000  0.4228470000000 1.0
C      1  0.4860690000000  0.4166440000000  0.4292630000000 1.0
C      1  0.5400580000000  0.4154260000000  0.4857640000000 1.0
C      1  0.4763220000000  0.4420870000000  0.4177530000000 1.0
C      1  0.5346010000000  0.5251880000000  0.4764330000000 1.0
C      1  0.5549830000000  0.5831310000000  0.4956500000000 1.0
C      1  0.4829170000000  0.4733470000000  0.5574890000000 1.0
C      1  0.4088650000000  0.5341290000000  0.4547640000000 1.0
C      1  0.5389220000000  0.4806190000000  0.4549770000000 1.0
C      1  0.5116040000000  0.5282910000000  0.5705270000000 1.0
C      1  0.5133680000000  0.4097620000000  0.4353430000000 1.0
C      1  0.5118090000000  0.5854470000000  0.4655460000000 1.0
C      1  0.4390130000000  0.5404530000000  0.5062730000000 1.0
C      1  0.4670310000000  0.4941680000000  0.5732300000000 1.0
C      1  0.5803120000000  0.4313830000000  0.5196810000000 1.0
C      1  0.5169120000000  0.5957160000000  0.4390400000000 1.0
C      1  0.4710300000000  0.5655710000000  0.5771280000000 1.0
C      1  0.4667670000000  0.5232150000000  0.4377080000000 1.0
C      1  0.5061850000000  0.4797870000000  0.5377100000000 1.0
C      1  0.4928700000000  0.5604050000000  0.5545430000000 1.0
C      1  0.4543520000000  0.5044720000000  0.3945060000000 1.0
C      1  0.5341800000000  0.4268730000000  0.4402380000000 1.0
C      1  0.5863520000000  0.5410350000000  0.5119790000000 1.0
C      1  0.4888420000000  0.5302280000000  0.5535530000000 1.0
C      1  0.5169410000000  0.5832840000000  0.4142230000000 1.0
C      1  0.5562140000000  0.4194050000000  0.5293720000000 1.0
C      1  0.5295820000000  0.4949720000000  0.4808390000000 1.0
C      1  0.5518900000000  0.4816320000000  0.5558710000000 1.0
C      1  0.5455720000000  0.4994570000000  0.6027930000000 1.0
C      1  0.4700810000000  0.5870170000000  0.4288450000000 1.0
C      1  0.5749660000000  0.5318310000000  0.4394960000000 1.0
C      1  0.4925430000000  0.4099070000000  0.5046590000000 1.0
C      1  0.5429190000000  0.4852990000000  0.5047250000000 1.0
C      1  0.4939410000000  0.5415940000000  0.3953980000000 1.0
C      1  0.4472890000000  0.5821920000000  0.5258500000000 1.0
C      1  0.5288030000000  0.4075210000000  0.4604790000000 1.0
C      1  0.5340980000000  0.5853390000000  0.5378730000000 1.0
C      1  0.5857380000000  0.5450170000000  0.4823350000000 1.0
C      1  0.5313400000000  0.5376220000000  0.4990880000000 1.0
C      1  0.5570310000000  0.4394450000000  0.4823360000000 1.0
C      1  0.4451880000000  0.4882020000000  0.4695250000000 1.0
C      1  0.4226610000000  0.4778340000000  0.5324290000000 1.0
C      1  0.4799820000000  0.4194590000000  0.4571470000000 1.0
C      1  0.5283940000000  0.5479340000000  0.5213250000000 1.0
C      1  0.4208500000000  0.4460040000000  0.4580580000000 1.0
C      1  0.5378380000000  0.5249560000000  0.5623080000000 1.0
C      1  0.4930510000000  0.4631890000000  0.5854610000000 1.0
C      1  0.5167350000000  0.5967870000000  0.5162780000000 1.0
C      1  0.4938190000000  0.5992280000000  0.4202200000000 1.0
C      1  0.4968390000000  0.4128620000000  0.5533110000000 1.0
C      1  0.5544820000000  0.4627560000000  0.4130140000000 1.0
C      1  0.4167120000000  0.4901060000000  0.4679270000000 1.0
C      1  0.4480460000000  0.5520680000000  0.4303490000000 1.0
C      1  0.5517120000000  0.4692730000000  0.6015400000000 1.0
C      1  0.4328670000000  0.4262450000000  0.4749640000000 1.0
C      1  0.4043650000000  0.5139280000000  0.4753650000000 1.0
C      1  0.5344190000000  0.5414060000000  0.4539360000000 1.0
C      1  0.5904770000000  0.4704710000000  0.4615530000000 1.0
C      1  0.4533250000000  0.4743870000000  0.4971160000000 1.0
C      1  0.4058200000000  0.4658610000000  0.4747650000000 1.0
C      1  0.4667610000000  0.5235980000000  0.5720700000000 1.0
C      1  0.5794160000000  0.5599460000000  0.5338850000000 1.0
C      1  0.5854620000000  0.4468070000000  0.4800910000000 1.0
C      1  0.5806770000000  0.5456070000000  0.5579140000000 1.0
C      1  0.4181810000000  0.5419940000000  0.5271210000000 1.0
C      1  0.4964110000000  0.5195060000000  0.4329910000000 1.0
C      1  0.4067070000000  0.4608670000000  0.5151270000000 1.0
C      1  0.5372670000000  0.4920430000000  0.5322680000000 1.0
C      1  0.4506170000000  0.4787570000000  0.4402580000000 1.0
C      1  0.5696550000000  0.5677930000000  0.4751750000000 1.0
C      1  0.6027130000000  0.4971320000000  0.4676410000000 1.0
C      1  0.4748170000000  0.5423440000000  0.5934070000000 1.0
C      1  0.4244540000000  0.4847950000000  0.5727630000000 1.0
C      1  0.4459220000000  0.4895510000000  0.5199410000000 1.0
C      1  0.4375680000000  0.4622750000000  0.5840910000000 1.0
C      1  0.4660540000000  0.4508930000000  0.5414700000000 1.0
C      1  0.3965260000000  0.5060510000000  0.5029420000000 1.0
C      1  0.4902360000000  0.5653590000000  0.4670210000000 1.0
C      1  0.4326040000000  0.4562850000000  0.4329830000000 1.0
C      1  0.4171690000000  0.4337320000000  0.5196090000000 1.0
C      1  0.4638610000000  0.4757490000000  0.3952260000000 1.0
C      1  0.5661220000000  0.4809950000000  0.4552010000000 1.0
C      1  0.4925540000000  0.5407390000000  0.4822290000000 1.0
C      1  0.4678320000000  0.5075070000000  0.5278590000000 1.0
C      1  0.5735900000000  0.5180500000000  0.5240030000000 1.0
C      1  0.5122510000000  0.4332770000000  0.5555260000000 1.0
C      1  0.4601050000000  0.4484450000000  0.5096300000000 1.0
C      1  0.5937330000000  0.5073610000000  0.5581720000000 1.0
C      1  0.4923550000000  0.4955980000000  0.5182450000000 1.0
C      1  0.4634830000000  0.5907980000000  0.5040290000000 1.0
C      1  0.5384940000000  0.5078450000000  0.4060070000000 1.0
C      1  0.5146680000000  0.5077390000000  0.6069220000000 1.0
C      1  0.4273450000000  0.4315880000000  0.5461590000000 1.0
C      1  0.5091430000000  0.5016710000000  0.4144580000000 1.0
C      1  0.4511130000000  0.5771630000000  0.4447560000000 1.0
C      1  0.5282340000000  0.5927960000000  0.4896230000000 1.0
C      1  0.4615280000000  0.5118280000000  0.4640610000000 1.0
C      1  0.5426590000000  0.4454310000000  0.5285710000000 1.0
C      1  0.5342410000000  0.4056840000000  0.5136260000000 1.0
C      1  0.5374420000000  0.4561910000000  0.4367130000000 1.0
C      1  0.4629470000000  0.5316950000000  0.5166280000000 1.0
C      1  0.5133460000000  0.4504660000000  0.5321570000000 1.0
C      1  0.5714020000000  0.5194940000000  0.6006040000000 1.0
C      1  0.5441650000000  0.5219610000000  0.5346760000000 1.0
C      1  0.4844030000000  0.5450590000000  0.5092340000000 1.0
C      1  0.5591270000000  0.5798000000000  0.5246550000000 1.0
C      1  0.4606380000000  0.5742870000000  0.4763310000000 1.0
C      1  0.5113370000000  0.5439900000000  0.4389390000000 1.0
C      1  0.4902190000000  0.4853930000000  0.4001120000000 1.0
C      1  0.4982090000000  0.5621510000000  0.5258460000000 1.0
C      1  0.4983650000000  0.4908090000000  0.4901670000000 1.0
C      1  0.4968200000000  0.4869830000000  0.6012750000000 1.0
C      1  0.5052160000000  0.5365490000000  0.5987200000000 1.0
C      1  0.4557570000000  0.4078790000000  0.4709900000000 1.0
C      1  0.4757640000000  0.5229610000000  0.3901270000000 1.0
END
