TITL C-4164235-1454-770 80.8604101558777 125000 -24276.1804973142 0 0 164 (C1) n - 1
REM
REM in /home/nfs/bkarasulu/CARBON/AIRSS/Generating-Clusters/ReaxFF-fromJPCA2015/Units_Real/with-SteepDescent/Only-C1/SD-CG/Try1-3A/FIRE-CG
REM
REM
REM
REM
REM
REM ./C.cell (11c1c37f851c82e70ff6c80c92926a4b)
REM
REM compiler GCC version 9.2.1 20190827 (Red Hat 9.2.1-1)
REM options -cpp -mtune=generic -march=x86-64 -g -O0 -fpre-include=/usr/include/finclude/math-vector-fortran.h
REM seed 2115363752 2030827370 379402899 789177093 -1895534448 -1660557524 -236521268 -517295596 -626165690 1009143619 1893684673 -1584067717 -606929396 1552258210 277388591 -1229330842 -1415492991 -1016865664 1220060322 1210472369 -1659996967 -928561894 109419808 -479847491 1381141529 -1098902394 -355322759 1056303678 352811358 -407036136 -981191252 -1701220149 -889624681
REM
CELL 1.54180   50.00000   50.00000   50.00000   90.00000   90.00000   90.00000
LATT -1
SFAC C  
C      1  0.5716560000000  0.5553970000000  0.5292060000000 1.0
C      1  0.4150320000000  0.4456070000000  0.4804500000000 1.0
C      1  0.5751280000000  0.5321000000000  0.4371120000000 1.0
C      1  0.5034160000000  0.3847240000000  0.5403430000000 1.0
C      1  0.4931520000000  0.5708560000000  0.5798970000000 1.0
C      1  0.5275810000000  0.4694950000000  0.4904950000000 1.0
C      1  0.4985130000000  0.5549150000000  0.5268380000000 1.0
C      1  0.5867980000000  0.5544310000000  0.4520960000000 1.0
C      1  0.4462990000000  0.4880850000000  0.4636410000000 1.0
C      1  0.5528710000000  0.4585320000000  0.5294900000000 1.0
C      1  0.4548830000000  0.5112930000000  0.5882460000000 1.0
C      1  0.4867220000000  0.4769990000000  0.5787230000000 1.0
C      1  0.5811870000000  0.4277070000000  0.5157590000000 1.0
C      1  0.5124570000000  0.4133140000000  0.5833470000000 1.0
C      1  0.5163470000000  0.5223320000000  0.5009870000000 1.0
C      1  0.4263600000000  0.5410830000000  0.4593460000000 1.0
C      1  0.4553420000000  0.5810230000000  0.4651400000000 1.0
C      1  0.4562520000000  0.5508100000000  0.5538200000000 1.0
C      1  0.5418840000000  0.4355070000000  0.4238330000000 1.0
C      1  0.5816970000000  0.4711810000000  0.4911050000000 1.0
C      1  0.4142650000000  0.5043510000000  0.4332100000000 1.0
C      1  0.5782640000000  0.4492060000000  0.5422050000000 1.0
C      1  0.5546840000000  0.5124820000000  0.4954600000000 1.0
C      1  0.5357080000000  0.6061050000000  0.4726830000000 1.0
C      1  0.5594760000000  0.5735160000000  0.5486770000000 1.0
C      1  0.4646710000000  0.4230810000000  0.5689100000000 1.0
C      1  0.4263850000000  0.4822000000000  0.4467090000000 1.0
C      1  0.5328220000000  0.5388280000000  0.4582230000000 1.0
C      1  0.4922630000000  0.5228150000000  0.4025760000000 1.0
C      1  0.5180940000000  0.5513770000000  0.5043880000000 1.0
C      1  0.4439810000000  0.5098580000000  0.5164050000000 1.0
C      1  0.5021380000000  0.5003950000000  0.5672490000000 1.0
C      1  0.4573620000000  0.5309380000000  0.4236600000000 1.0
C      1  0.4610070000000  0.5627360000000  0.5017190000000 1.0
C      1  0.4763140000000  0.5045460000000  0.3955160000000 1.0
C      1  0.4140260000000  0.5675900000000  0.4973720000000 1.0
C      1  0.4550590000000  0.4655470000000  0.4089040000000 1.0
C      1  0.5390150000000  0.4739270000000  0.4457200000000 1.0
C      1  0.5587100000000  0.5578720000000  0.5018950000000 1.0
C      1  0.5227920000000  0.4946320000000  0.5463050000000 1.0
C      1  0.4702280000000  0.5527450000000  0.5274570000000 1.0
C      1  0.4229290000000  0.4554050000000  0.4532420000000 1.0
C      1  0.5015550000000  0.6041220000000  0.5073460000000 1.0
C      1  0.5024200000000  0.4375540000000  0.5247980000000 1.0
C      1  0.4375510000000  0.4664220000000  0.5706290000000 1.0
C      1  0.5662640000000  0.5391040000000  0.5887380000000 1.0
C      1  0.4880020000000  0.4355490000000  0.4324900000000 1.0
C      1  0.5447890000000  0.5226290000000  0.5998400000000 1.0
C      1  0.5267410000000  0.4267490000000  0.5373920000000 1.0
C      1  0.4723020000000  0.4130180000000  0.5018160000000 1.0
C      1  0.4716530000000  0.5279550000000  0.4765830000000 1.0
C      1  0.5001420000000  0.4288920000000  0.4964250000000 1.0
C      1  0.5802250000000  0.4516180000000  0.4470620000000 1.0
C      1  0.5325860000000  0.4683390000000  0.5463240000000 1.0
C      1  0.4435350000000  0.5197090000000  0.4725860000000 1.0
C      1  0.5432820000000  0.5142300000000  0.5433310000000 1.0
C      1  0.5333820000000  0.4988500000000  0.4839070000000 1.0
C      1  0.4875350000000  0.4068110000000  0.4419980000000 1.0
C      1  0.5084360000000  0.4616690000000  0.5900170000000 1.0
C      1  0.4811520000000  0.5442260000000  0.4309860000000 1.0
C      1  0.4135370000000  0.4570040000000  0.5287290000000 1.0
C      1  0.4672130000000  0.4788340000000  0.5295570000000 1.0
C      1  0.5671480000000  0.5835770000000  0.4901410000000 1.0
C      1  0.5605080000000  0.4191630000000  0.4987340000000 1.0
C      1  0.5489700000000  0.4482000000000  0.5887980000000 1.0
C      1  0.5537060000000  0.4638140000000  0.5016790000000 1.0
C      1  0.4959280000000  0.5103960000000  0.6183720000000 1.0
C      1  0.5992080000000  0.5364200000000  0.4691230000000 1.0
C      1  0.5050110000000  0.5405870000000  0.5504580000000 1.0
C      1  0.5276820000000  0.3972080000000  0.5361560000000 1.0
C      1  0.5542410000000  0.4667230000000  0.4208450000000 1.0
C      1  0.5978610000000  0.4335210000000  0.4936850000000 1.0
C      1  0.4383500000000  0.4342890000000  0.4398620000000 1.0
C      1  0.5958410000000  0.4523590000000  0.4723190000000 1.0
C      1  0.3798170000000  0.5328560000000  0.5078260000000 1.0
C      1  0.4449100000000  0.4215220000000  0.5094610000000 1.0
C      1  0.5898170000000  0.4751860000000  0.5757480000000 1.0
C      1  0.5478660000000  0.6046910000000  0.4985250000000 1.0
C      1  0.4437600000000  0.4394860000000  0.5603580000000 1.0
C      1  0.5319190000000  0.4123240000000  0.5615510000000 1.0
C      1  0.5152550000000  0.5198570000000  0.5948190000000 1.0
C      1  0.5777530000000  0.4760540000000  0.4311780000000 1.0
C      1  0.4578880000000  0.5906990000000  0.4931870000000 1.0
C      1  0.5223060000000  0.4363380000000  0.5979320000000 1.0
C      1  0.5903350000000  0.5340940000000  0.5388670000000 1.0
C      1  0.5341050000000  0.5111350000000  0.4152260000000 1.0
C      1  0.5333870000000  0.4683950000000  0.5751650000000 1.0
C      1  0.4073770000000  0.5364190000000  0.5408380000000 1.0
C      1  0.4916370000000  0.4600420000000  0.4573680000000 1.0
C      1  0.4299340000000  0.4212210000000  0.4844980000000 1.0
C      1  0.4051460000000  0.4617770000000  0.5020250000000 1.0
C      1  0.5142120000000  0.5812050000000  0.5641390000000 1.0
C      1  0.4760730000000  0.5718710000000  0.4446710000000 1.0
C      1  0.4599070000000  0.4411860000000  0.4202760000000 1.0
C      1  0.4840780000000  0.4067990000000  0.5760020000000 1.0
C      1  0.4399550000000  0.4874150000000  0.5323820000000 1.0
C      1  0.4041610000000  0.5403870000000  0.4964910000000 1.0
C      1  0.4173020000000  0.5646970000000  0.5264690000000 1.0
C      1  0.4412360000000  0.4127530000000  0.4583740000000 1.0
C      1  0.4791560000000  0.3827560000000  0.5540620000000 1.0
C      1  0.4746960000000  0.6018030000000  0.5152900000000 1.0
C      1  0.5052870000000  0.4021330000000  0.4625960000000 1.0
C      1  0.4946880000000  0.5456480000000  0.5955060000000 1.0
C      1  0.5344340000000  0.5900780000000  0.5465290000000 1.0
C      1  0.5263400000000  0.4819930000000  0.3870570000000 1.0
C      1  0.5136480000000  0.5029470000000  0.4341860000000 1.0
C      1  0.4894040000000  0.5168830000000  0.5458640000000 1.0
C      1  0.5138810000000  0.4360670000000  0.4147820000000 1.0
C      1  0.4974830000000  0.5109600000000  0.5192250000000 1.0
C      1  0.4803980000000  0.5533380000000  0.4820480000000 1.0
C      1  0.5272910000000  0.6032370000000  0.5195930000000 1.0
C      1  0.5268460000000  0.5847920000000  0.4325360000000 1.0
C      1  0.5620690000000  0.5102190000000  0.5222870000000 1.0
C      1  0.5915340000000  0.4767650000000  0.5464580000000 1.0
C      1  0.5494870000000  0.4180120000000  0.4739120000000 1.0
C      1  0.4030670000000  0.5244670000000  0.4517170000000 1.0
C      1  0.3893060000000  0.4866490000000  0.4908750000000 1.0
C      1  0.5498410000000  0.5943870000000  0.4507900000000 1.0
C      1  0.4997590000000  0.5876800000000  0.4472170000000 1.0
C      1  0.5578570000000  0.4321170000000  0.4472230000000 1.0
C      1  0.4295760000000  0.5674880000000  0.4714000000000 1.0
C      1  0.4850060000000  0.4576730000000  0.5290420000000 1.0
C      1  0.4741990000000  0.5269160000000  0.6059340000000 1.0
C      1  0.5489500000000  0.5588650000000  0.5717810000000 1.0
C      1  0.3842420000000  0.5213370000000  0.5327070000000 1.0
C      1  0.3748280000000  0.5061180000000  0.5070760000000 1.0
C      1  0.4327080000000  0.4363530000000  0.5321310000000 1.0
C      1  0.5228500000000  0.4088310000000  0.4827590000000 1.0
C      1  0.4881300000000  0.5085560000000  0.4669480000000 1.0
C      1  0.5501270000000  0.5374830000000  0.4816720000000 1.0
C      1  0.4581300000000  0.4821490000000  0.5841650000000 1.0
C      1  0.4612800000000  0.5951050000000  0.5423010000000 1.0
C      1  0.4371250000000  0.5128600000000  0.4159210000000 1.0
C      1  0.5167840000000  0.5105360000000  0.3919540000000 1.0
C      1  0.5503540000000  0.4956100000000  0.4594500000000 1.0
C      1  0.5738730000000  0.4489200000000  0.5728720000000 1.0
C      1  0.4188940000000  0.4798730000000  0.5516350000000 1.0
C      1  0.5055890000000  0.4537400000000  0.4825290000000 1.0
C      1  0.5979740000000  0.5098460000000  0.4737460000000 1.0
C      1  0.5354220000000  0.5648560000000  0.4143870000000 1.0
C      1  0.5970710000000  0.4948450000000  0.4985220000000 1.0
C      1  0.5770880000000  0.5031100000000  0.4483880000000 1.0
C      1  0.5828650000000  0.5352450000000  0.5658240000000 1.0
C      1  0.5070280000000  0.5646610000000  0.4809640000000 1.0
C      1  0.4713510000000  0.3878710000000  0.4864080000000 1.0
C      1  0.4187440000000  0.5152540000000  0.5549110000000 1.0
C      1  0.4668840000000  0.5759520000000  0.5643900000000 1.0
C      1  0.5049790000000  0.5262460000000  0.4496070000000 1.0
C      1  0.5111910000000  0.4763770000000  0.4425250000000 1.0
C      1  0.5895800000000  0.5030670000000  0.5268200000000 1.0
C      1  0.4716690000000  0.5021480000000  0.5128410000000 1.0
C      1  0.4647650000000  0.3950350000000  0.4571110000000 1.0
C      1  0.4420080000000  0.5269450000000  0.5675710000000 1.0
C      1  0.5463240000000  0.5391990000000  0.4312680000000 1.0
C      1  0.3940400000000  0.5043630000000  0.4699800000000 1.0
C      1  0.5086060000000  0.5941700000000  0.4763300000000 1.0
C      1  0.5180930000000  0.4578630000000  0.3982240000000 1.0
C      1  0.5334920000000  0.5381810000000  0.5562840000000 1.0
C      1  0.4359180000000  0.5833290000000  0.5373690000000 1.0
C      1  0.4275290000000  0.5220900000000  0.4963700000000 1.0
C      1  0.4509980000000  0.4910810000000  0.3984460000000 1.0
C      1  0.5721960000000  0.5799470000000  0.4618060000000 1.0
C      1  0.5503360000000  0.4894890000000  0.4036200000000 1.0
C      1  0.4740660000000  0.4839990000000  0.4618030000000 1.0
END
