TITL C-4164233-775-434 8.94292686889383 125000 -22853.870874038 0 0 152 (C1) n - 1
REM
REM in /home/nfs/bkarasulu/CARBON/AIRSS/Generating-Clusters/ReaxFF-fromJPCA2015/Units_Real/with-SteepDescent/Only-C1/SD-CG/Try1-3A/FIRE-CG
REM
REM
REM
REM
REM
REM ./C.cell (11c1c37f851c82e70ff6c80c92926a4b)
REM
REM compiler GCC version 9.2.1 20190827 (Red Hat 9.2.1-1)
REM options -cpp -mtune=generic -march=x86-64 -g -O0 -fpre-include=/usr/include/finclude/math-vector-fortran.h
REM seed 1776372052 -193751483 911275659 -1348615063 1420327186 -562341333 -345183675 1826381191 1312537288 331581199 -1812288212 1382551685 2015513439 -2116569559 457391993 -250954398 -115887915 563563146 382351398 -1753095778 1666552641 -951263304 -613042011 61269554 -1258904221 -1220611247 1674168951 -618579227 245829781 992567017 1214246032 155475279 1430403373
REM
CELL 1.54180   50.00000   50.00000   50.00000   90.00000   90.00000   90.00000
LATT -1
SFAC C  
C      1  0.4545550000000  0.4889640000000  0.4698070000000 1.0
C      1  0.5220040000000  0.4719270000000  0.5042590000000 1.0
C      1  0.5501480000000  0.5787420000000  0.5533750000000 1.0
C      1  0.4618410000000  0.5441000000000  0.5048220000000 1.0
C      1  0.5344560000000  0.4189680000000  0.5007690000000 1.0
C      1  0.5415900000000  0.5916540000000  0.4804200000000 1.0
C      1  0.3974260000000  0.4756630000000  0.5006880000000 1.0
C      1  0.4734050000000  0.5085200000000  0.4677680000000 1.0
C      1  0.4514100000000  0.4946740000000  0.5165310000000 1.0
C      1  0.4472600000000  0.4025970000000  0.5087500000000 1.0
C      1  0.5002030000000  0.3837290000000  0.5118490000000 1.0
C      1  0.4072680000000  0.5381730000000  0.4547540000000 1.0
C      1  0.4734470000000  0.4746450000000  0.5949070000000 1.0
C      1  0.5857260000000  0.5498300000000  0.4494340000000 1.0
C      1  0.5225360000000  0.3923950000000  0.4959290000000 1.0
C      1  0.5290520000000  0.4306670000000  0.5544860000000 1.0
C      1  0.5126330000000  0.5451790000000  0.6006140000000 1.0
C      1  0.5659870000000  0.4819120000000  0.4266740000000 1.0
C      1  0.5631570000000  0.4242650000000  0.4945630000000 1.0
C      1  0.4913390000000  0.5911470000000  0.4756300000000 1.0
C      1  0.5194860000000  0.5651750000000  0.4161140000000 1.0
C      1  0.4751520000000  0.4080490000000  0.4408370000000 1.0
C      1  0.4341480000000  0.4194550000000  0.5290740000000 1.0
C      1  0.4977920000000  0.5054900000000  0.4555930000000 1.0
C      1  0.5854890000000  0.5515770000000  0.5234750000000 1.0
C      1  0.4513190000000  0.5901240000000  0.4971050000000 1.0
C      1  0.5089290000000  0.4518780000000  0.4540130000000 1.0
C      1  0.3963640000000  0.4881710000000  0.4753330000000 1.0
C      1  0.5499700000000  0.5135500000000  0.5065640000000 1.0
C      1  0.5110500000000  0.4469560000000  0.5356820000000 1.0
C      1  0.4668930000000  0.5273200000000  0.5988260000000 1.0
C      1  0.6012750000000  0.5127110000000  0.4948780000000 1.0
C      1  0.5192020000000  0.3921380000000  0.4658200000000 1.0
C      1  0.5932940000000  0.4933680000000  0.4746500000000 1.0
C      1  0.4315090000000  0.4498840000000  0.5310450000000 1.0
C      1  0.4720430000000  0.5906720000000  0.5569200000000 1.0
C      1  0.4659400000000  0.5079880000000  0.5359980000000 1.0
C      1  0.4354360000000  0.4906610000000  0.4484090000000 1.0
C      1  0.5691900000000  0.4936240000000  0.5671690000000 1.0
C      1  0.4385400000000  0.5034140000000  0.5805900000000 1.0
C      1  0.5819240000000  0.5073270000000  0.4279840000000 1.0
C      1  0.5481310000000  0.4842490000000  0.5048620000000 1.0
C      1  0.4191000000000  0.4467530000000  0.4502750000000 1.0
C      1  0.4412940000000  0.5327910000000  0.5849940000000 1.0
C      1  0.4830870000000  0.5427230000000  0.4273620000000 1.0
C      1  0.5442460000000  0.5527550000000  0.5654820000000 1.0
C      1  0.4562990000000  0.4937160000000  0.5591720000000 1.0
C      1  0.4794600000000  0.4301700000000  0.4226660000000 1.0
C      1  0.5161230000000  0.5754610000000  0.4719990000000 1.0
C      1  0.5413520000000  0.5161070000000  0.5334320000000 1.0
C      1  0.4414460000000  0.4305320000000  0.4686950000000 1.0
C      1  0.4906170000000  0.5362840000000  0.5836640000000 1.0
C      1  0.5099550000000  0.5770290000000  0.4398510000000 1.0
C      1  0.5715890000000  0.4359230000000  0.4687450000000 1.0
C      1  0.5232780000000  0.4964000000000  0.4647480000000 1.0
C      1  0.5531770000000  0.4303260000000  0.4441640000000 1.0
C      1  0.5251500000000  0.5891080000000  0.5664670000000 1.0
C      1  0.4466230000000  0.4188110000000  0.5556890000000 1.0
C      1  0.5741550000000  0.5735510000000  0.4424410000000 1.0
C      1  0.4333160000000  0.5472750000000  0.5014430000000 1.0
C      1  0.4385490000000  0.4017390000000  0.4809450000000 1.0
C      1  0.4366660000000  0.4498150000000  0.4307280000000 1.0
C      1  0.5276630000000  0.5429150000000  0.3997390000000 1.0
C      1  0.4950290000000  0.4371310000000  0.4748620000000 1.0
C      1  0.4214960000000  0.5231480000000  0.4938110000000 1.0
C      1  0.5138080000000  0.4956520000000  0.6241930000000 1.0
C      1  0.5796780000000  0.4682670000000  0.5785230000000 1.0
C      1  0.4590050000000  0.4494170000000  0.4143010000000 1.0
C      1  0.4756770000000  0.3975200000000  0.5154350000000 1.0
C      1  0.4024250000000  0.5175600000000  0.4750730000000 1.0
C      1  0.5655110000000  0.5750260000000  0.5272590000000 1.0
C      1  0.4757580000000  0.5291610000000  0.4850470000000 1.0
C      1  0.5304580000000  0.4699610000000  0.4611290000000 1.0
C      1  0.4656740000000  0.5611950000000  0.5514510000000 1.0
C      1  0.5686230000000  0.4375520000000  0.5198480000000 1.0
C      1  0.5191530000000  0.5019180000000  0.5813680000000 1.0
C      1  0.5162110000000  0.4424690000000  0.5026550000000 1.0
C      1  0.4967790000000  0.4731130000000  0.6129540000000 1.0
C      1  0.5204070000000  0.4719270000000  0.5772640000000 1.0
C      1  0.5593690000000  0.5858840000000  0.4588910000000 1.0
C      1  0.5785390000000  0.5363900000000  0.4239580000000 1.0
C      1  0.3983060000000  0.4909260000000  0.5388550000000 1.0
C      1  0.4284740000000  0.5377540000000  0.4344690000000 1.0
C      1  0.5462470000000  0.4907190000000  0.5479100000000 1.0
C      1  0.4454210000000  0.5785250000000  0.4697150000000 1.0
C      1  0.4401420000000  0.5114150000000  0.4280990000000 1.0
C      1  0.4671380000000  0.4663660000000  0.5646430000000 1.0
C      1  0.4986640000000  0.4721250000000  0.4065030000000 1.0
C      1  0.5366020000000  0.4102110000000  0.4534730000000 1.0
C      1  0.4436850000000  0.4476050000000  0.5583680000000 1.0
C      1  0.5249000000000  0.5386030000000  0.5461880000000 1.0
C      1  0.4717620000000  0.4015970000000  0.5601720000000 1.0
C      1  0.5004690000000  0.5894720000000  0.5230770000000 1.0
C      1  0.5967480000000  0.4786180000000  0.5255940000000 1.0
C      1  0.4818610000000  0.5721040000000  0.4318900000000 1.0
C      1  0.4192560000000  0.5624710000000  0.5216450000000 1.0
C      1  0.4909710000000  0.3927710000000  0.5407620000000 1.0
C      1  0.4826290000000  0.5245860000000  0.4042260000000 1.0
C      1  0.4165470000000  0.5447950000000  0.5443550000000 1.0
C      1  0.4788820000000  0.5524590000000  0.5268620000000 1.0
C      1  0.4393590000000  0.5500250000000  0.5614340000000 1.0
C      1  0.4995910000000  0.4835320000000  0.5197290000000 1.0
C      1  0.4491920000000  0.4041950000000  0.4546170000000 1.0
C      1  0.5279570000000  0.5656760000000  0.5863870000000 1.0
C      1  0.4108950000000  0.4746470000000  0.4526270000000 1.0
C      1  0.5347510000000  0.4451020000000  0.5792330000000 1.0
C      1  0.5191680000000  0.4905990000000  0.4014780000000 1.0
C      1  0.5796720000000  0.4645460000000  0.4751330000000 1.0
C      1  0.5105010000000  0.5185070000000  0.3972820000000 1.0
C      1  0.5639550000000  0.4430710000000  0.5737840000000 1.0
C      1  0.4940180000000  0.5117410000000  0.5269090000000 1.0
C      1  0.5082900000000  0.5602340000000  0.5234690000000 1.0
C      1  0.5046510000000  0.5301310000000  0.4429500000000 1.0
C      1  0.5252150000000  0.4710030000000  0.5491000000000 1.0
C      1  0.6057650000000  0.5056460000000  0.5228360000000 1.0
C      1  0.5535220000000  0.5839000000000  0.5043990000000 1.0
C      1  0.4617250000000  0.5043370000000  0.4091000000000 1.0
C      1  0.5422560000000  0.4726400000000  0.4119470000000 1.0
C      1  0.5590450000000  0.4710930000000  0.4536480000000 1.0
C      1  0.4514620000000  0.5977470000000  0.5389310000000 1.0
C      1  0.4585230000000  0.4983370000000  0.6018180000000 1.0
C      1  0.5452040000000  0.5166630000000  0.4626730000000 1.0
C      1  0.4261110000000  0.5046660000000  0.5134140000000 1.0
C      1  0.5726460000000  0.5503410000000  0.4764090000000 1.0
C      1  0.5573110000000  0.4312350000000  0.5465770000000 1.0
C      1  0.4698780000000  0.5839960000000  0.4561380000000 1.0
C      1  0.4955250000000  0.4090270000000  0.4619730000000 1.0
C      1  0.5775050000000  0.5088090000000  0.4565430000000 1.0
C      1  0.5010740000000  0.5968540000000  0.5511500000000 1.0
C      1  0.5229840000000  0.5172340000000  0.6057680000000 1.0
C      1  0.5053080000000  0.4462430000000  0.4256520000000 1.0
C      1  0.5170390000000  0.5493630000000  0.4947500000000 1.0
C      1  0.5370800000000  0.4467030000000  0.4240410000000 1.0
C      1  0.5053480000000  0.5207980000000  0.5620610000000 1.0
C      1  0.5913940000000  0.5413280000000  0.4970750000000 1.0
C      1  0.4322630000000  0.5896760000000  0.5197690000000 1.0
C      1  0.4029630000000  0.4657790000000  0.5259530000000 1.0
C      1  0.5734070000000  0.4660160000000  0.5093330000000 1.0
C      1  0.4566490000000  0.4672210000000  0.5161960000000 1.0
C      1  0.4586730000000  0.4676570000000  0.4880820000000 1.0
C      1  0.5951370000000  0.5299200000000  0.5401600000000 1.0
C      1  0.4989290000000  0.5271550000000  0.5006570000000 1.0
C      1  0.5332870000000  0.5313730000000  0.4414930000000 1.0
C      1  0.4706930000000  0.4767410000000  0.4058750000000 1.0
C      1  0.4851760000000  0.4635470000000  0.5353890000000 1.0
C      1  0.4666300000000  0.4443080000000  0.4768590000000 1.0
C      1  0.4103580000000  0.5155490000000  0.5367250000000 1.0
C      1  0.5460800000000  0.5357000000000  0.4863870000000 1.0
C      1  0.4274500000000  0.5595400000000  0.4550900000000 1.0
C      1  0.5492860000000  0.5362910000000  0.4188890000000 1.0
C      1  0.4801110000000  0.5958350000000  0.5020060000000 1.0
C      1  0.5850220000000  0.5195920000000  0.5655990000000 1.0
END
