TITL C-4164245-3996-438 -13.2910913440401 125000 -5039.62081513391 0 0 35 (C1) n - 1
REM
REM in /home/nfs/bkarasulu/CARBON/AIRSS/Generating-Clusters/ReaxFF-fromJPCA2015/Units_Real/with-SteepDescent/Only-C1/SD-CG/Try1-3A/FIRE-CG
REM
REM
REM
REM
REM
REM ./C.cell (11c1c37f851c82e70ff6c80c92926a4b)
REM
REM compiler GCC version 9.2.1 20190827 (Red Hat 9.2.1-1)
REM options -cpp -mtune=generic -march=x86-64 -g -O0 -fpre-include=/usr/include/finclude/math-vector-fortran.h
REM seed -1587103901 2135683797 1255365762 324638429 -679427668 -983998550 1453064889 -1523307858 -1669835905 -905425952 -941210786 -2009491407 -1172266328 359371956 1728929459 1664037951 268021491 859084307 2103096846 -1543867896 962264130 -484100146 909080324 -346897743 -959417681 652781108 -751998584 -53246132 -753596172 -1282263499 -1661030291 -1527397852 -1934591196
REM
CELL 1.54180   50.00000   50.00000   50.00000   90.00000   90.00000   90.00000
LATT -1
SFAC C  
C      1  0.4571300000000  0.4996070000000  0.5098580000000 1.0
C      1  0.5072490000000  0.5134230000000  0.5328100000000 1.0
C      1  0.4756920000000  0.5452960000000  0.5166490000000 1.0
C      1  0.4664380000000  0.5148580000000  0.4606830000000 1.0
C      1  0.5020420000000  0.4501100000000  0.4830550000000 1.0
C      1  0.4610580000000  0.5555020000000  0.4931590000000 1.0
C      1  0.5248530000000  0.5560370000000  0.4835490000000 1.0
C      1  0.5167940000000  0.4539900000000  0.5500770000000 1.0
C      1  0.5100150000000  0.5305930000000  0.4825500000000 1.0
C      1  0.5449610000000  0.5286750000000  0.5375490000000 1.0
C      1  0.5304030000000  0.4609570000000  0.4786940000000 1.0
C      1  0.5192740000000  0.5389560000000  0.5423970000000 1.0
C      1  0.5644930000000  0.5112110000000  0.5314110000000 1.0
C      1  0.4625050000000  0.4765960000000  0.4971770000000 1.0
C      1  0.5394360000000  0.4655940000000  0.5392870000000 1.0
C      1  0.4859760000000  0.4475340000000  0.4588410000000 1.0
C      1  0.5367060000000  0.4688930000000  0.4500630000000 1.0
C      1  0.4596390000000  0.4873430000000  0.4700810000000 1.0
C      1  0.5148050000000  0.4791540000000  0.4331210000000 1.0
C      1  0.4621010000000  0.5114440000000  0.5556350000000 1.0
C      1  0.4610060000000  0.5379610000000  0.4745400000000 1.0
C      1  0.4896740000000  0.4632080000000  0.4353850000000 1.0
C      1  0.5026960000000  0.5591030000000  0.5286350000000 1.0
C      1  0.5571120000000  0.4797640000000  0.5234060000000 1.0
C      1  0.4564720000000  0.5206890000000  0.5277210000000 1.0
C      1  0.4916880000000  0.4696420000000  0.5553100000000 1.0
C      1  0.4962970000000  0.5236180000000  0.5072620000000 1.0
C      1  0.5458470000000  0.4715000000000  0.4993760000000 1.0
C      1  0.4893720000000  0.4986770000000  0.5523550000000 1.0
C      1  0.4914050000000  0.4512650000000  0.5331090000000 1.0
C      1  0.5105450000000  0.5091240000000  0.4350070000000 1.0
C      1  0.4854930000000  0.4572770000000  0.5053870000000 1.0
C      1  0.4955350000000  0.5222300000000  0.4565190000000 1.0
C      1  0.4673130000000  0.4669910000000  0.4514200000000 1.0
C      1  0.5179720000000  0.5731760000000  0.5079210000000 1.0
END
