TITL C-4164243-3780-672 31.8962204766346 125000 -15186.6547380467 0 0 103 (C1) n - 1
REM
REM in /home/nfs/bkarasulu/CARBON/AIRSS/Generating-Clusters/ReaxFF-fromJPCA2015/Units_Real/with-SteepDescent/Only-C1/SD-CG/Try1-3A/FIRE-CG
REM
REM
REM
REM
REM
REM ./C.cell (11c1c37f851c82e70ff6c80c92926a4b)
REM
REM compiler GCC version 9.2.1 20190827 (Red Hat 9.2.1-1)
REM options -cpp -mtune=generic -march=x86-64 -g -O0 -fpre-include=/usr/include/finclude/math-vector-fortran.h
REM seed 333695263 1351249067 1743162243 -1638761524 441130532 -1061861706 1250502826 664528040 -1896900691 -1467323626 1701367761 -929724874 848449700 -654154482 1668557971 1312223982 -1964852861 2118975751 705440995 -1584829022 624237319 1254234980 -810233880 988915540 847577905 473181396 501647497 886669950 -1365514325 1053898311 -540474042 -1634109438 1005319886
REM
CELL 1.54180   50.00000   50.00000   50.00000   90.00000   90.00000   90.00000
LATT -1
SFAC C  
C      1  0.4539680000000  0.4906240000000  0.5693380000000 1.0
C      1  0.4581150000000  0.5759200000000  0.4747680000000 1.0
C      1  0.5287360000000  0.4494560000000  0.5196940000000 1.0
C      1  0.5362550000000  0.4589940000000  0.5476030000000 1.0
C      1  0.4123270000000  0.5114010000000  0.5627930000000 1.0
C      1  0.4634790000000  0.4638810000000  0.5009070000000 1.0
C      1  0.5712500000000  0.5241150000000  0.4393000000000 1.0
C      1  0.5884720000000  0.5121130000000  0.5255240000000 1.0
C      1  0.5318060000000  0.5461580000000  0.5651410000000 1.0
C      1  0.4813340000000  0.5308130000000  0.4317210000000 1.0
C      1  0.4861800000000  0.4689750000000  0.4501410000000 1.0
C      1  0.5505610000000  0.4958000000000  0.5410050000000 1.0
C      1  0.5118950000000  0.4667140000000  0.4116850000000 1.0
C      1  0.5645030000000  0.5571580000000  0.5338620000000 1.0
C      1  0.4653110000000  0.4243970000000  0.5565800000000 1.0
C      1  0.4424430000000  0.4643330000000  0.5666140000000 1.0
C      1  0.4856660000000  0.5133470000000  0.5384340000000 1.0
C      1  0.4397530000000  0.5547750000000  0.5188950000000 1.0
C      1  0.5684710000000  0.4630750000000  0.4693570000000 1.0
C      1  0.4882120000000  0.5809520000000  0.4756600000000 1.0
C      1  0.4135630000000  0.4927450000000  0.5422030000000 1.0
C      1  0.4916720000000  0.4068110000000  0.5165380000000 1.0
C      1  0.4887980000000  0.4123250000000  0.5444130000000 1.0
C      1  0.4971360000000  0.4355110000000  0.5261080000000 1.0
C      1  0.5424210000000  0.4998960000000  0.5128120000000 1.0
C      1  0.5227900000000  0.5056320000000  0.4396050000000 1.0
C      1  0.4317020000000  0.4594460000000  0.4558970000000 1.0
C      1  0.5284140000000  0.4467030000000  0.4619970000000 1.0
C      1  0.5147360000000  0.4740490000000  0.5621560000000 1.0
C      1  0.5737650000000  0.5458970000000  0.4844330000000 1.0
C      1  0.5790580000000  0.4650990000000  0.5176330000000 1.0
C      1  0.5467110000000  0.5180300000000  0.4537690000000 1.0
C      1  0.4650100000000  0.5394390000000  0.5798690000000 1.0
C      1  0.4579360000000  0.5727310000000  0.5039950000000 1.0
C      1  0.5397680000000  0.4697510000000  0.4731680000000 1.0
C      1  0.5938920000000  0.4887690000000  0.5088540000000 1.0
C      1  0.4313220000000  0.5307370000000  0.5051230000000 1.0
C      1  0.5189910000000  0.5710300000000  0.5545520000000 1.0
C      1  0.4894310000000  0.5694920000000  0.5465030000000 1.0
C      1  0.4399170000000  0.4825310000000  0.4995580000000 1.0
C      1  0.5074170000000  0.5737690000000  0.4556310000000 1.0
C      1  0.4410710000000  0.5294780000000  0.5623720000000 1.0
C      1  0.4550730000000  0.5078370000000  0.5453880000000 1.0
C      1  0.4672930000000  0.4492820000000  0.5717440000000 1.0
C      1  0.5658350000000  0.4659870000000  0.4415580000000 1.0
C      1  0.5459880000000  0.4321890000000  0.5016570000000 1.0
C      1  0.4796320000000  0.4860670000000  0.4945580000000 1.0
C      1  0.5337650000000  0.5820140000000  0.5335200000000 1.0
C      1  0.5105920000000  0.5026200000000  0.5571000000000 1.0
C      1  0.4937470000000  0.4990440000000  0.5136740000000 1.0
C      1  0.5562080000000  0.5690730000000  0.4850880000000 1.0
C      1  0.4748940000000  0.4957310000000  0.4687920000000 1.0
C      1  0.5588390000000  0.5393940000000  0.5541120000000 1.0
C      1  0.5177270000000  0.5108060000000  0.5062690000000 1.0
C      1  0.5117960000000  0.4783150000000  0.4373220000000 1.0
C      1  0.5151280000000  0.5244630000000  0.5757270000000 1.0
C      1  0.5634090000000  0.4795590000000  0.4166760000000 1.0
C      1  0.4662730000000  0.5635380000000  0.5635670000000 1.0
C      1  0.5323670000000  0.4741550000000  0.5012180000000 1.0
C      1  0.4422340000000  0.5024410000000  0.4343900000000 1.0
C      1  0.5153730000000  0.5358030000000  0.4963680000000 1.0
C      1  0.4503930000000  0.4328580000000  0.5322870000000 1.0
C      1  0.5328930000000  0.5428230000000  0.4617170000000 1.0
C      1  0.4351260000000  0.5305380000000  0.4759930000000 1.0
C      1  0.5012820000000  0.4434500000000  0.4572890000000 1.0
C      1  0.4682360000000  0.5064760000000  0.4204460000000 1.0
C      1  0.5329970000000  0.5185310000000  0.4134220000000 1.0
C      1  0.4715340000000  0.4497920000000  0.5240720000000 1.0
C      1  0.4475860000000  0.5075760000000  0.4626360000000 1.0
C      1  0.5362530000000  0.5721820000000  0.4638340000000 1.0
C      1  0.4899160000000  0.4676410000000  0.5775380000000 1.0
C      1  0.4733560000000  0.4768300000000  0.4235200000000 1.0
C      1  0.4189600000000  0.4457450000000  0.4948220000000 1.0
C      1  0.5385540000000  0.4667780000000  0.4094030000000 1.0
C      1  0.4450480000000  0.4727760000000  0.4329460000000 1.0
C      1  0.4776590000000  0.4929330000000  0.5858710000000 1.0
C      1  0.5625050000000  0.4714470000000  0.5425090000000 1.0
C      1  0.4341330000000  0.5040730000000  0.5192670000000 1.0
C      1  0.5178410000000  0.5415390000000  0.4174970000000 1.0
C      1  0.5014390000000  0.4187360000000  0.4720760000000 1.0
C      1  0.5851160000000  0.5042020000000  0.4845030000000 1.0
C      1  0.4597560000000  0.4336040000000  0.4856680000000 1.0
C      1  0.4986620000000  0.5508650000000  0.5097720000000 1.0
C      1  0.4944550000000  0.5164330000000  0.4548600000000 1.0
C      1  0.4790250000000  0.4123880000000  0.4904640000000 1.0
C      1  0.5614320000000  0.5099850000000  0.4158670000000 1.0
C      1  0.4877010000000  0.5757720000000  0.5060820000000 1.0
C      1  0.5553380000000  0.5771020000000  0.5156560000000 1.0
C      1  0.5702310000000  0.5222220000000  0.5033530000000 1.0
C      1  0.5699050000000  0.4475360000000  0.4964750000000 1.0
C      1  0.4349690000000  0.4338260000000  0.4715280000000 1.0
C      1  0.4422220000000  0.5558960000000  0.5482870000000 1.0
C      1  0.5857090000000  0.5266970000000  0.4651010000000 1.0
C      1  0.4401620000000  0.5568390000000  0.4614030000000 1.0
C      1  0.5709300000000  0.5114440000000  0.5491080000000 1.0
C      1  0.4243220000000  0.4443230000000  0.5243330000000 1.0
C      1  0.4885980000000  0.5441090000000  0.5320040000000 1.0
C      1  0.4869870000000  0.5212050000000  0.5866980000000 1.0
C      1  0.4986000000000  0.5557700000000  0.4312670000000 1.0
C      1  0.5303880000000  0.4236390000000  0.4783640000000 1.0
C      1  0.4214950000000  0.4639720000000  0.5457420000000 1.0
C      1  0.4204260000000  0.4718880000000  0.4807130000000 1.0
C      1  0.5074280000000  0.5363720000000  0.4706680000000 1.0
END
