TITL C-4164239-2837-764 25.0902420205747 125000 -21382.3498280707 0 0 146 (C1) n - 1
REM
REM in /home/nfs/bkarasulu/CARBON/AIRSS/Generating-Clusters/ReaxFF-fromJPCA2015/Units_Real/with-SteepDescent/Only-C1/SD-CG/Try1-3A/FIRE-CG
REM
REM
REM
REM
REM
REM ./C.cell (11c1c37f851c82e70ff6c80c92926a4b)
REM
REM compiler GCC version 9.2.1 20190827 (Red Hat 9.2.1-1)
REM options -cpp -mtune=generic -march=x86-64 -g -O0 -fpre-include=/usr/include/finclude/math-vector-fortran.h
REM seed 687700925 -1207844212 1712564722 -1283187834 1104842197 1699104307 -1971496066 -1509295573 -784579485 -500462787 769160778 -1862889739 1822486259 1706868221 452700927 -43937183 -166854237 1545285709 1372408305 389376454 -1256276107 1781526039 -1224966285 -485104816 -1617853337 808283405 1129711720 435729156 1552446786 1504475512 -1525736740 1313182881 -1557605035
REM
CELL 1.54180   50.00000   50.00000   50.00000   90.00000   90.00000   90.00000
LATT -1
SFAC C  
C      1  0.5230580000000  0.5323230000000  0.5131850000000 1.0
C      1  0.5551840000000  0.5770080000000  0.4911120000000 1.0
C      1  0.5557960000000  0.4854570000000  0.5675030000000 1.0
C      1  0.4996050000000  0.4419680000000  0.5853740000000 1.0
C      1  0.5412290000000  0.5336700000000  0.5629900000000 1.0
C      1  0.4974140000000  0.5005650000000  0.6033420000000 1.0
C      1  0.4324980000000  0.4293160000000  0.4604020000000 1.0
C      1  0.4421620000000  0.4938720000000  0.5780410000000 1.0
C      1  0.5247000000000  0.5243940000000  0.4370950000000 1.0
C      1  0.5587690000000  0.5710100000000  0.4375060000000 1.0
C      1  0.6032730000000  0.4983040000000  0.5222310000000 1.0
C      1  0.5124090000000  0.5701450000000  0.4435790000000 1.0
C      1  0.5311290000000  0.5232380000000  0.6028220000000 1.0
C      1  0.5282180000000  0.5889770000000  0.4911120000000 1.0
C      1  0.4690320000000  0.4024220000000  0.5338230000000 1.0
C      1  0.5198820000000  0.5885900000000  0.5382750000000 1.0
C      1  0.4278240000000  0.4490680000000  0.4408950000000 1.0
C      1  0.5859310000000  0.5324570000000  0.5492090000000 1.0
C      1  0.4348650000000  0.4272810000000  0.5082260000000 1.0
C      1  0.4380310000000  0.4123120000000  0.4812380000000 1.0
C      1  0.5295300000000  0.5389840000000  0.4103310000000 1.0
C      1  0.4245850000000  0.5493740000000  0.5570850000000 1.0
C      1  0.5610050000000  0.5033750000000  0.4545490000000 1.0
C      1  0.4759160000000  0.4856000000000  0.5978050000000 1.0
C      1  0.4924820000000  0.6039200000000  0.4545400000000 1.0
C      1  0.5924720000000  0.4713980000000  0.5178460000000 1.0
C      1  0.4655430000000  0.5372880000000  0.5816430000000 1.0
C      1  0.5132270000000  0.5017300000000  0.5395250000000 1.0
C      1  0.5092500000000  0.3949180000000  0.5021020000000 1.0
C      1  0.4515270000000  0.4608480000000  0.4268900000000 1.0
C      1  0.5012380000000  0.4777750000000  0.4747430000000 1.0
C      1  0.5397700000000  0.4745030000000  0.5886310000000 1.0
C      1  0.5621990000000  0.4389910000000  0.5385290000000 1.0
C      1  0.5855530000000  0.4566250000000  0.5418850000000 1.0
C      1  0.4504840000000  0.4891100000000  0.4164880000000 1.0
C      1  0.4780980000000  0.5806100000000  0.5118730000000 1.0
C      1  0.5153040000000  0.3967000000000  0.4729920000000 1.0
C      1  0.4125840000000  0.4657430000000  0.5404820000000 1.0
C      1  0.5027490000000  0.4468110000000  0.4181710000000 1.0
C      1  0.4492280000000  0.5727080000000  0.4679490000000 1.0
C      1  0.4038030000000  0.4665920000000  0.4497330000000 1.0
C      1  0.5669960000000  0.5488160000000  0.4523860000000 1.0
C      1  0.5463070000000  0.5196090000000  0.4736050000000 1.0
C      1  0.4196140000000  0.4453540000000  0.5231010000000 1.0
C      1  0.5468350000000  0.4340860000000  0.4266480000000 1.0
C      1  0.4194240000000  0.4968020000000  0.5336690000000 1.0
C      1  0.5944050000000  0.4741860000000  0.4589420000000 1.0
C      1  0.4616580000000  0.4400800000000  0.5073010000000 1.0
C      1  0.4840370000000  0.5643230000000  0.5391140000000 1.0
C      1  0.5546790000000  0.4964830000000  0.5161340000000 1.0
C      1  0.5055790000000  0.5234700000000  0.4017860000000 1.0
C      1  0.5184330000000  0.4499710000000  0.5133410000000 1.0
C      1  0.4586950000000  0.4485770000000  0.5611120000000 1.0
C      1  0.5059670000000  0.4095220000000  0.4483410000000 1.0
C      1  0.4251740000000  0.4687200000000  0.4849550000000 1.0
C      1  0.4199100000000  0.4763140000000  0.5804680000000 1.0
C      1  0.5835670000000  0.4799240000000  0.5604920000000 1.0
C      1  0.5230580000000  0.4094110000000  0.5231530000000 1.0
C      1  0.4242640000000  0.5512430000000  0.4914850000000 1.0
C      1  0.5698630000000  0.5718020000000  0.4653090000000 1.0
C      1  0.5714220000000  0.4455610000000  0.4275230000000 1.0
C      1  0.5158190000000  0.4325090000000  0.5651180000000 1.0
C      1  0.4429030000000  0.5614160000000  0.4424660000000 1.0
C      1  0.5449400000000  0.5175300000000  0.5016540000000 1.0
C      1  0.5651120000000  0.4711800000000  0.5052250000000 1.0
C      1  0.5273250000000  0.4488240000000  0.5850750000000 1.0
C      1  0.4548920000000  0.5331020000000  0.5255690000000 1.0
C      1  0.5336840000000  0.5644420000000  0.4239280000000 1.0
C      1  0.5084640000000  0.5382010000000  0.4884120000000 1.0
C      1  0.4647920000000  0.4982280000000  0.4551960000000 1.0
C      1  0.4790580000000  0.3923920000000  0.5077680000000 1.0
C      1  0.5846740000000  0.5441450000000  0.5223210000000 1.0
C      1  0.4488150000000  0.5869860000000  0.5242420000000 1.0
C      1  0.4725840000000  0.5214400000000  0.4408170000000 1.0
C      1  0.5598010000000  0.4473720000000  0.4789990000000 1.0
C      1  0.4761610000000  0.4953170000000  0.4076300000000 1.0
C      1  0.5251440000000  0.4957540000000  0.6061890000000 1.0
C      1  0.4731860000000  0.4788700000000  0.4729880000000 1.0
C      1  0.5462600000000  0.5433230000000  0.5911400000000 1.0
C      1  0.4263600000000  0.5354470000000  0.5166570000000 1.0
C      1  0.4583080000000  0.5848580000000  0.4439190000000 1.0
C      1  0.4969170000000  0.5254430000000  0.4292490000000 1.0
C      1  0.5960900000000  0.5042460000000  0.5494280000000 1.0
C      1  0.5402690000000  0.4894300000000  0.5410760000000 1.0
C      1  0.4716300000000  0.5825720000000  0.5571850000000 1.0
C      1  0.4009620000000  0.4798770000000  0.4761900000000 1.0
C      1  0.4051420000000  0.5142060000000  0.5142190000000 1.0
C      1  0.4754910000000  0.4577640000000  0.5818570000000 1.0
C      1  0.4262080000000  0.5761540000000  0.5086920000000 1.0
C      1  0.4823180000000  0.5440480000000  0.4843080000000 1.0
C      1  0.3967070000000  0.5102820000000  0.4865490000000 1.0
C      1  0.4082400000000  0.5330150000000  0.4732060000000 1.0
C      1  0.4499930000000  0.5364130000000  0.4296530000000 1.0
C      1  0.4868790000000  0.5851330000000  0.4346410000000 1.0
C      1  0.5210340000000  0.4246640000000  0.4257890000000 1.0
C      1  0.4807380000000  0.4242770000000  0.4507260000000 1.0
C      1  0.5068900000000  0.4299880000000  0.5377840000000 1.0
C      1  0.4714370000000  0.5685960000000  0.4856030000000 1.0
C      1  0.4202060000000  0.5151750000000  0.4522000000000 1.0
C      1  0.4741460000000  0.4910240000000  0.5343250000000 1.0
C      1  0.5921540000000  0.5382860000000  0.4563110000000 1.0
C      1  0.5297910000000  0.5455360000000  0.5382750000000 1.0
C      1  0.4410660000000  0.5545570000000  0.5805280000000 1.0
C      1  0.5876550000000  0.5117580000000  0.4428710000000 1.0
C      1  0.5679910000000  0.5429960000000  0.5696950000000 1.0
C      1  0.5450360000000  0.4578190000000  0.5248960000000 1.0
C      1  0.4984060000000  0.4898580000000  0.5195220000000 1.0
C      1  0.4822860000000  0.4298890000000  0.4810540000000 1.0
C      1  0.5807810000000  0.4516540000000  0.4556910000000 1.0
C      1  0.5986030000000  0.5236000000000  0.5065300000000 1.0
C      1  0.4579850000000  0.5082980000000  0.5945580000000 1.0
C      1  0.5258320000000  0.5368280000000  0.4644570000000 1.0
C      1  0.5523390000000  0.4163890000000  0.5211580000000 1.0
C      1  0.5448340000000  0.4987700000000  0.4311740000000 1.0
C      1  0.5438510000000  0.5712430000000  0.5358830000000 1.0
C      1  0.4295920000000  0.4552040000000  0.5624050000000 1.0
C      1  0.5026920000000  0.4935840000000  0.4039010000000 1.0
C      1  0.4194190000000  0.5067240000000  0.5798190000000 1.0
C      1  0.4728200000000  0.4323860000000  0.5369070000000 1.0
C      1  0.4995080000000  0.5803180000000  0.5585770000000 1.0
C      1  0.4269170000000  0.5728380000000  0.5377270000000 1.0
C      1  0.4754210000000  0.4440550000000  0.4293070000000 1.0
C      1  0.5156980000000  0.4726750000000  0.4230400000000 1.0
C      1  0.6074520000000  0.4977980000000  0.4612140000000 1.0
C      1  0.5652590000000  0.5664420000000  0.5160460000000 1.0
C      1  0.4338460000000  0.5129870000000  0.4262780000000 1.0
C      1  0.5687430000000  0.4956640000000  0.4151520000000 1.0
C      1  0.5173470000000  0.5933480000000  0.4630420000000 1.0
C      1  0.4529900000000  0.4673420000000  0.4950050000000 1.0
C      1  0.4727420000000  0.5342340000000  0.5497500000000 1.0
C      1  0.6046650000000  0.5229570000000  0.4782210000000 1.0
C      1  0.4666150000000  0.5680810000000  0.5809670000000 1.0
C      1  0.4489040000000  0.4911310000000  0.5192150000000 1.0
C      1  0.5116990000000  0.4368480000000  0.4869320000000 1.0
C      1  0.4410100000000  0.5027330000000  0.4691780000000 1.0
C      1  0.5766410000000  0.4692940000000  0.4076790000000 1.0
C      1  0.4882350000000  0.5086740000000  0.5531060000000 1.0
C      1  0.5303400000000  0.4486040000000  0.4684930000000 1.0
C      1  0.5077120000000  0.4734960000000  0.5024780000000 1.0
C      1  0.4174650000000  0.5209560000000  0.5540050000000 1.0
C      1  0.4665640000000  0.4037230000000  0.4837710000000 1.0
C      1  0.5191190000000  0.4705950000000  0.4528600000000 1.0
C      1  0.5085140000000  0.5908490000000  0.5122300000000 1.0
C      1  0.5629900000000  0.4213490000000  0.4942900000000 1.0
C      1  0.4719940000000  0.5261200000000  0.5021670000000 1.0
C      1  0.4514560000000  0.5076400000000  0.4950240000000 1.0
END
