TITL C-4164237-1827-389 18.7988440126559 125000 -4721.71779782431 0 0 33 (C1) n - 1
REM
REM in /home/nfs/bkarasulu/CARBON/AIRSS/Generating-Clusters/ReaxFF-fromJPCA2015/Units_Real/with-SteepDescent/Only-C1/SD-CG/Try1-3A/FIRE-CG
REM
REM
REM
REM
REM
REM ./C.cell (11c1c37f851c82e70ff6c80c92926a4b)
REM
REM compiler GCC version 9.2.1 20190827 (Red Hat 9.2.1-1)
REM options -cpp -mtune=generic -march=x86-64 -g -O0 -fpre-include=/usr/include/finclude/math-vector-fortran.h
REM seed 1614141710 -629962094 771401115 -1556560136 -723639870 904770641 -831984997 -1736216580 999821069 1303361943 1712374931 922200748 16199511 1414126099 1082541061 -1155240301 -1628571915 1584559312 -1955111401 -753832954 -1726627134 -919326291 -1640879860 751933751 -1130612685 735378175 1460010970 1260514614 -1887517472 1177650779 480037718 1088789372 -2084630331
REM
CELL 1.54180   50.00000   50.00000   50.00000   90.00000   90.00000   90.00000
LATT -1
SFAC C  
C      1  0.4535980000000  0.4536800000000  0.4774060000000 1.0
C      1  0.4796350000000  0.5046120000000  0.4538360000000 1.0
C      1  0.4747910000000  0.4819990000000  0.5299050000000 1.0
C      1  0.4451420000000  0.5341220000000  0.5427350000000 1.0
C      1  0.5218650000000  0.4758230000000  0.5339790000000 1.0
C      1  0.5215870000000  0.4629160000000  0.5069290000000 1.0
C      1  0.5571080000000  0.4903990000000  0.4951840000000 1.0
C      1  0.4710040000000  0.5698810000000  0.5316870000000 1.0
C      1  0.4544510000000  0.4695170000000  0.5165120000000 1.0
C      1  0.4748520000000  0.5361920000000  0.5247820000000 1.0
C      1  0.4984730000000  0.4816490000000  0.4465410000000 1.0
C      1  0.5569070000000  0.5198540000000  0.4965340000000 1.0
C      1  0.5477400000000  0.4872920000000  0.5416240000000 1.0
C      1  0.4852390000000  0.5397010000000  0.4745480000000 1.0
C      1  0.4483340000000  0.5609550000000  0.5436250000000 1.0
C      1  0.4985890000000  0.5230390000000  0.5368340000000 1.0
C      1  0.5248200000000  0.4886820000000  0.4580550000000 1.0
C      1  0.5500960000000  0.5332050000000  0.5230940000000 1.0
C      1  0.5480900000000  0.5169300000000  0.5464230000000 1.0
C      1  0.5364680000000  0.4780670000000  0.4829500000000 1.0
C      1  0.5252720000000  0.5343990000000  0.5391990000000 1.0
C      1  0.5582680000000  0.4786210000000  0.5172620000000 1.0
C      1  0.4879370000000  0.4556080000000  0.4394550000000 1.0
C      1  0.4701000000000  0.5293610000000  0.4945230000000 1.0
C      1  0.4963090000000  0.5284260000000  0.4515220000000 1.0
C      1  0.4494360000000  0.4805590000000  0.4887990000000 1.0
C      1  0.4971470000000  0.4932310000000  0.5406310000000 1.0
C      1  0.4641960000000  0.5040390000000  0.4792010000000 1.0
C      1  0.4965130000000  0.4484010000000  0.5027560000000 1.0
C      1  0.4674430000000  0.4450480000000  0.5024580000000 1.0
C      1  0.5256790000000  0.5180080000000  0.4527070000000 1.0
C      1  0.5418380000000  0.5245150000000  0.4737440000000 1.0
C      1  0.4710740000000  0.4512670000000  0.4545600000000 1.0
END
