TITL C-4164246-3563-220 18.542394563813 125000 -24327.8211337147 0 0 163 (C1) n - 1
REM
REM in /home/nfs/bkarasulu/CARBON/AIRSS/Generating-Clusters/ReaxFF-fromJPCA2015/Units_Real/with-SteepDescent/Only-C1/SD-CG/Try1-3A/FIRE-CG
REM
REM
REM
REM
REM
REM ./C.cell (11c1c37f851c82e70ff6c80c92926a4b)
REM
REM compiler GCC version 9.2.1 20190827 (Red Hat 9.2.1-1)
REM options -cpp -mtune=generic -march=x86-64 -g -O0 -fpre-include=/usr/include/finclude/math-vector-fortran.h
REM seed 1641683987 423171418 -156247653 480207474 1693086971 671904663 1946118510 1270634747 1599082259 417215169 329955680 201403486 1423973497 -543713598 -1008450432 2143829324 -1493923302 -1743766000 -604209839 731014651 1365100990 455060984 531154632 -32203917 562973744 -42250151 5341873 1604602719 -417933664 544315640 -1378819004 -1772363158 -812005083
REM
CELL 1.54180   50.00000   50.00000   50.00000   90.00000   90.00000   90.00000
LATT -1
SFAC C  
C      1  0.4693990000000  0.5866790000000  0.4756750000000 1.0
C      1  0.5144440000000  0.4777180000000  0.5243330000000 1.0
C      1  0.5302360000000  0.5197790000000  0.4467940000000 1.0
C      1  0.3941300000000  0.5092500000000  0.4844570000000 1.0
C      1  0.5373960000000  0.5824770000000  0.5632440000000 1.0
C      1  0.4110150000000  0.5117790000000  0.4408500000000 1.0
C      1  0.4981660000000  0.4810240000000  0.4557550000000 1.0
C      1  0.5859400000000  0.5322620000000  0.5325930000000 1.0
C      1  0.4869480000000  0.5890080000000  0.5426050000000 1.0
C      1  0.4586810000000  0.4355220000000  0.5603170000000 1.0
C      1  0.4308250000000  0.4792940000000  0.5237900000000 1.0
C      1  0.5632880000000  0.4971450000000  0.4063000000000 1.0
C      1  0.4256270000000  0.5378250000000  0.4517780000000 1.0
C      1  0.4792380000000  0.4403440000000  0.4369880000000 1.0
C      1  0.5390140000000  0.5553670000000  0.4166000000000 1.0
C      1  0.4191790000000  0.4648670000000  0.5637300000000 1.0
C      1  0.5247110000000  0.4444440000000  0.4902060000000 1.0
C      1  0.5028840000000  0.5349620000000  0.5505320000000 1.0
C      1  0.5677370000000  0.4523570000000  0.4446550000000 1.0
C      1  0.5241060000000  0.5436200000000  0.5151750000000 1.0
C      1  0.5473730000000  0.4271550000000  0.4859360000000 1.0
C      1  0.4484360000000  0.5595540000000  0.5643750000000 1.0
C      1  0.4776370000000  0.4677460000000  0.4450320000000 1.0
C      1  0.4284730000000  0.4903350000000  0.5511280000000 1.0
C      1  0.4871890000000  0.4868990000000  0.3938110000000 1.0
C      1  0.4845360000000  0.4215930000000  0.5639090000000 1.0
C      1  0.5775440000000  0.4622970000000  0.5063930000000 1.0
C      1  0.5456320000000  0.4538460000000  0.5944530000000 1.0
C      1  0.5883870000000  0.5434120000000  0.5055410000000 1.0
C      1  0.5444620000000  0.5421070000000  0.5960480000000 1.0
C      1  0.5545140000000  0.5803700000000  0.5170850000000 1.0
C      1  0.5384290000000  0.5186090000000  0.5139120000000 1.0
C      1  0.4179270000000  0.5688870000000  0.4892860000000 1.0
C      1  0.4591100000000  0.5798070000000  0.5434740000000 1.0
C      1  0.4290330000000  0.5255040000000  0.4977720000000 1.0
C      1  0.5075100000000  0.5867840000000  0.5627780000000 1.0
C      1  0.5444690000000  0.4785720000000  0.4114370000000 1.0
C      1  0.4434880000000  0.4238860000000  0.4668510000000 1.0
C      1  0.5383960000000  0.4787510000000  0.5811380000000 1.0
C      1  0.4497490000000  0.5715470000000  0.4341600000000 1.0
C      1  0.6212720000000  0.4389820000000  0.4921790000000 1.0
C      1  0.5214580000000  0.4453290000000  0.4146430000000 1.0
C      1  0.5594330000000  0.4805630000000  0.5999730000000 1.0
C      1  0.5231840000000  0.5248750000000  0.6075110000000 1.0
C      1  0.4408460000000  0.4860530000000  0.4684940000000 1.0
C      1  0.4745330000000  0.3993280000000  0.5069670000000 1.0
C      1  0.5555850000000  0.5698090000000  0.5442580000000 1.0
C      1  0.4935800000000  0.4858330000000  0.5892010000000 1.0
C      1  0.5153590000000  0.3972250000000  0.4707030000000 1.0
C      1  0.4644530000000  0.4932720000000  0.5887500000000 1.0
C      1  0.5292020000000  0.5000010000000  0.5314820000000 1.0
C      1  0.5950650000000  0.4865700000000  0.5119930000000 1.0
C      1  0.5511150000000  0.5077950000000  0.4904950000000 1.0
C      1  0.5222650000000  0.4753770000000  0.4518070000000 1.0
C      1  0.5239440000000  0.5207830000000  0.3948280000000 1.0
C      1  0.4009050000000  0.4695980000000  0.5178900000000 1.0
C      1  0.4113880000000  0.5402080000000  0.4795630000000 1.0
C      1  0.5014840000000  0.3950720000000  0.5198490000000 1.0
C      1  0.4596950000000  0.4915900000000  0.4037300000000 1.0
C      1  0.4442810000000  0.5830530000000  0.4916940000000 1.0
C      1  0.4651970000000  0.4990910000000  0.5058140000000 1.0
C      1  0.5002190000000  0.4355340000000  0.5846150000000 1.0
C      1  0.5059970000000  0.4086720000000  0.5461710000000 1.0
C      1  0.5488450000000  0.5280650000000  0.4687140000000 1.0
C      1  0.4184800000000  0.4981820000000  0.4156270000000 1.0
C      1  0.4725390000000  0.5454200000000  0.5139710000000 1.0
C      1  0.3936560000000  0.5205710000000  0.5312420000000 1.0
C      1  0.4609840000000  0.4911420000000  0.4483330000000 1.0
C      1  0.5789860000000  0.5699420000000  0.4692450000000 1.0
C      1  0.4982880000000  0.5497760000000  0.5040370000000 1.0
C      1  0.5224710000000  0.3926570000000  0.4998000000000 1.0
C      1  0.4825670000000  0.5105510000000  0.4866360000000 1.0
C      1  0.4124900000000  0.5715800000000  0.5177950000000 1.0
C      1  0.5809620000000  0.5391080000000  0.4611870000000 1.0
C      1  0.5060320000000  0.4275540000000  0.4331040000000 1.0
C      1  0.5749450000000  0.4795100000000  0.4502890000000 1.0
C      1  0.4867020000000  0.4582550000000  0.5979700000000 1.0
C      1  0.5183130000000  0.5696710000000  0.4264160000000 1.0
C      1  0.5993080000000  0.4498530000000  0.4842980000000 1.0
C      1  0.4656810000000  0.4066730000000  0.4775430000000 1.0
C      1  0.5037380000000  0.4649030000000  0.4005760000000 1.0
C      1  0.4072590000000  0.4429650000000  0.5013260000000 1.0
C      1  0.4009290000000  0.4934210000000  0.4610500000000 1.0
C      1  0.5926220000000  0.5038040000000  0.5352940000000 1.0
C      1  0.4637750000000  0.5114600000000  0.4252570000000 1.0
C      1  0.4635810000000  0.5048590000000  0.5349600000000 1.0
C      1  0.5577810000000  0.4796500000000  0.4871220000000 1.0
C      1  0.5340250000000  0.5688860000000  0.5891580000000 1.0
C      1  0.4145630000000  0.5174700000000  0.5541760000000 1.0
C      1  0.5963980000000  0.4739010000000  0.4659480000000 1.0
C      1  0.4327630000000  0.4558260000000  0.4329660000000 1.0
C      1  0.4923880000000  0.5972190000000  0.4899020000000 1.0
C      1  0.4704710000000  0.5203990000000  0.5990180000000 1.0
C      1  0.4944350000000  0.5464980000000  0.5771840000000 1.0
C      1  0.5732920000000  0.5024760000000  0.5847270000000 1.0
C      1  0.4953500000000  0.4742900000000  0.5037670000000 1.0
C      1  0.4410300000000  0.4501880000000  0.5780650000000 1.0
C      1  0.5644250000000  0.5303320000000  0.5780090000000 1.0
C      1  0.5055960000000  0.5708450000000  0.5858140000000 1.0
C      1  0.5747520000000  0.5686450000000  0.4985110000000 1.0
C      1  0.5215190000000  0.6004990000000  0.4824150000000 1.0
C      1  0.5646360000000  0.5844550000000  0.4497260000000 1.0
C      1  0.5339730000000  0.5517950000000  0.4858730000000 1.0
C      1  0.4657830000000  0.4155820000000  0.5263680000000 1.0
C      1  0.5053330000000  0.5323540000000  0.4543870000000 1.0
C      1  0.5300000000000  0.5969950000000  0.5106050000000 1.0
C      1  0.5481970000000  0.4559800000000  0.5445070000000 1.0
C      1  0.4385120000000  0.4969320000000  0.4956580000000 1.0
C      1  0.4820340000000  0.5337040000000  0.4181610000000 1.0
C      1  0.4725150000000  0.5785550000000  0.4463290000000 1.0
C      1  0.4449970000000  0.4341920000000  0.5207370000000 1.0
C      1  0.4224340000000  0.4411490000000  0.4770530000000 1.0
C      1  0.5475520000000  0.4053890000000  0.5059860000000 1.0
C      1  0.5697600000000  0.5449400000000  0.5530870000000 1.0
C      1  0.5318840000000  0.4185090000000  0.5538100000000 1.0
C      1  0.4942440000000  0.4458550000000  0.5314480000000 1.0
C      1  0.5639880000000  0.5428570000000  0.4128630000000 1.0
C      1  0.5362260000000  0.5876860000000  0.4464020000000 1.0
C      1  0.5541030000000  0.4808110000000  0.5562940000000 1.0
C      1  0.4894930000000  0.5609980000000  0.4283530000000 1.0
C      1  0.5502360000000  0.4516590000000  0.4211940000000 1.0
C      1  0.4209610000000  0.4669190000000  0.4591550000000 1.0
C      1  0.4157310000000  0.4310280000000  0.5262710000000 1.0
C      1  0.4514200000000  0.5426200000000  0.4947320000000 1.0
C      1  0.5126360000000  0.5075320000000  0.5529470000000 1.0
C      1  0.5290750000000  0.4342320000000  0.5793800000000 1.0
C      1  0.4970330000000  0.5172290000000  0.3975860000000 1.0
C      1  0.5786400000000  0.5009030000000  0.4301680000000 1.0
C      1  0.5270810000000  0.4157550000000  0.4502970000000 1.0
C      1  0.4660430000000  0.5453800000000  0.5843870000000 1.0
C      1  0.4548970000000  0.4584390000000  0.5345780000000 1.0
C      1  0.5002430000000  0.4808030000000  0.5505610000000 1.0
C      1  0.5226910000000  0.4513510000000  0.5324320000000 1.0
C      1  0.4978400000000  0.4461720000000  0.5016790000000 1.0
C      1  0.4032490000000  0.4518290000000  0.5428730000000 1.0
C      1  0.4771200000000  0.5304560000000  0.5375100000000 1.0
C      1  0.5005450000000  0.4899800000000  0.4816320000000 1.0
C      1  0.5012270000000  0.5970950000000  0.5180310000000 1.0
C      1  0.4020160000000  0.5466810000000  0.5270330000000 1.0
C      1  0.5068780000000  0.5492320000000  0.4767170000000 1.0
C      1  0.4238260000000  0.5629630000000  0.4297380000000 1.0
C      1  0.5957960000000  0.5254250000000  0.4836230000000 1.0
C      1  0.4728380000000  0.4789740000000  0.5438020000000 1.0
C      1  0.5813660000000  0.4907630000000  0.5591590000000 1.0
C      1  0.4526570000000  0.5402380000000  0.4657700000000 1.0
C      1  0.4897540000000  0.4052840000000  0.4644000000000 1.0
C      1  0.4982010000000  0.5104260000000  0.6076380000000 1.0
C      1  0.5805140000000  0.5291580000000  0.4331470000000 1.0
C      1  0.5327290000000  0.4938430000000  0.4329560000000 1.0
C      1  0.4359990000000  0.4741980000000  0.4107730000000 1.0
C      1  0.4777590000000  0.5256600000000  0.4628030000000 1.0
C      1  0.6006420000000  0.4967720000000  0.4854080000000 1.0
C      1  0.5359440000000  0.4658890000000  0.4747180000000 1.0
C      1  0.4580290000000  0.4652390000000  0.5970580000000 1.0
C      1  0.5680360000000  0.4428390000000  0.5282070000000 1.0
C      1  0.4411300000000  0.5838120000000  0.5213010000000 1.0
C      1  0.4505910000000  0.4340680000000  0.4400220000000 1.0
C      1  0.3905200000000  0.4992240000000  0.5108090000000 1.0
C      1  0.5521120000000  0.5223260000000  0.3943120000000 1.0
C      1  0.5346710000000  0.5779540000000  0.4740290000000 1.0
C      1  0.4316700000000  0.5387360000000  0.5593260000000 1.0
C      1  0.5529270000000  0.4292520000000  0.4570910000000 1.0
C      1  0.5534050000000  0.4178820000000  0.5321430000000 1.0
END
