TITL C-4164233-775-519 42.0749337350205 125000 -23195.6226385344 0 0 157 (C1) n - 1
REM
REM in /home/nfs/bkarasulu/CARBON/AIRSS/Generating-Clusters/ReaxFF-fromJPCA2015/Units_Real/with-SteepDescent/Only-C1/SD-CG/Try1-3A/FIRE-CG
REM
REM
REM
REM
REM
REM ./C.cell (11c1c37f851c82e70ff6c80c92926a4b)
REM
REM compiler GCC version 9.2.1 20190827 (Red Hat 9.2.1-1)
REM options -cpp -mtune=generic -march=x86-64 -g -O0 -fpre-include=/usr/include/finclude/math-vector-fortran.h
REM seed -903049418 790349795 2063843364 553472533 143538536 -770004026 -1556228096 90530072 354806418 377670504 -671331416 -1668734461 -154452760 -1025192859 620291686 755962440 2049522791 -343670014 622323590 317070307 634517426 1389617785 947856810 -939534450 -181581558 -1758962046 1859207308 934417710 -1299185158 2017118767 1170642589 -212298318 -363828152
REM
CELL 1.54180   50.00000   50.00000   50.00000   90.00000   90.00000   90.00000
LATT -1
SFAC C  
C      1  0.4766490000000  0.5355030000000  0.4455150000000 1.0
C      1  0.4307360000000  0.5702550000000  0.5067590000000 1.0
C      1  0.4233990000000  0.4910530000000  0.5701840000000 1.0
C      1  0.5940470000000  0.5018680000000  0.5383480000000 1.0
C      1  0.4841010000000  0.4154570000000  0.5218210000000 1.0
C      1  0.5259300000000  0.4115110000000  0.4978980000000 1.0
C      1  0.5790520000000  0.4341780000000  0.4617520000000 1.0
C      1  0.5672460000000  0.5403950000000  0.4247940000000 1.0
C      1  0.4503400000000  0.4701660000000  0.5257730000000 1.0
C      1  0.5670140000000  0.4890150000000  0.5824010000000 1.0
C      1  0.4574580000000  0.4080900000000  0.5391450000000 1.0
C      1  0.5005810000000  0.4596140000000  0.5435590000000 1.0
C      1  0.5446890000000  0.4796480000000  0.4881230000000 1.0
C      1  0.5855910000000  0.5403010000000  0.5138140000000 1.0
C      1  0.4922340000000  0.5827640000000  0.5488980000000 1.0
C      1  0.4471970000000  0.5787610000000  0.5292400000000 1.0
C      1  0.4147760000000  0.4349550000000  0.4594910000000 1.0
C      1  0.4823100000000  0.5898530000000  0.4540300000000 1.0
C      1  0.4543510000000  0.4472070000000  0.4255990000000 1.0
C      1  0.4790550000000  0.5416450000000  0.5185380000000 1.0
C      1  0.4749780000000  0.4672140000000  0.5140800000000 1.0
C      1  0.4154120000000  0.5305000000000  0.5349870000000 1.0
C      1  0.5384010000000  0.5738960000000  0.5641100000000 1.0
C      1  0.4423690000000  0.4718260000000  0.4154380000000 1.0
C      1  0.4412390000000  0.4857740000000  0.5054380000000 1.0
C      1  0.4288440000000  0.5421550000000  0.5598190000000 1.0
C      1  0.4613460000000  0.4926570000000  0.4039720000000 1.0
C      1  0.4744830000000  0.5939000000000  0.5015950000000 1.0
C      1  0.4060970000000  0.5011470000000  0.4923060000000 1.0
C      1  0.5625480000000  0.5730460000000  0.4626770000000 1.0
C      1  0.5033970000000  0.4579990000000  0.5953520000000 1.0
C      1  0.4880170000000  0.5285170000000  0.4705820000000 1.0
C      1  0.5028770000000  0.4129670000000  0.5695800000000 1.0
C      1  0.4892400000000  0.4863250000000  0.4030980000000 1.0
C      1  0.5365660000000  0.5592970000000  0.4716390000000 1.0
C      1  0.5524070000000  0.4964730000000  0.5338660000000 1.0
C      1  0.5603440000000  0.4435680000000  0.4802690000000 1.0
C      1  0.4693050000000  0.4494110000000  0.4781380000000 1.0
C      1  0.5641460000000  0.4366040000000  0.5233330000000 1.0
C      1  0.4752530000000  0.5758220000000  0.5241820000000 1.0
C      1  0.4433610000000  0.4798240000000  0.5898470000000 1.0
C      1  0.5243360000000  0.5879630000000  0.5127460000000 1.0
C      1  0.5327650000000  0.5357620000000  0.5101190000000 1.0
C      1  0.5393220000000  0.5503360000000  0.4235150000000 1.0
C      1  0.5280600000000  0.5418590000000  0.4507140000000 1.0
C      1  0.4906270000000  0.4434540000000  0.5213490000000 1.0
C      1  0.4772360000000  0.5794650000000  0.4270210000000 1.0
C      1  0.4953970000000  0.5336280000000  0.4230940000000 1.0
C      1  0.5088190000000  0.5065420000000  0.5376700000000 1.0
C      1  0.5658530000000  0.5117910000000  0.4205680000000 1.0
C      1  0.5965370000000  0.4817000000000  0.5168460000000 1.0
C      1  0.5511460000000  0.5244580000000  0.5928400000000 1.0
C      1  0.4945600000000  0.4863760000000  0.6038860000000 1.0
C      1  0.4971720000000  0.4587130000000  0.4096160000000 1.0
C      1  0.5800760000000  0.5535340000000  0.4486480000000 1.0
C      1  0.4829520000000  0.4492070000000  0.4342690000000 1.0
C      1  0.5879600000000  0.4488740000000  0.4851150000000 1.0
C      1  0.5109160000000  0.4954000000000  0.4428650000000 1.0
C      1  0.4842300000000  0.4796550000000  0.4485700000000 1.0
C      1  0.5475680000000  0.4320190000000  0.5474010000000 1.0
C      1  0.4317820000000  0.5019350000000  0.4431190000000 1.0
C      1  0.5118220000000  0.4060760000000  0.5231440000000 1.0
C      1  0.5586470000000  0.5446390000000  0.5230250000000 1.0
C      1  0.5316520000000  0.4601660000000  0.5894570000000 1.0
C      1  0.5508270000000  0.4253230000000  0.5008600000000 1.0
C      1  0.4573690000000  0.4925870000000  0.4587060000000 1.0
C      1  0.4843950000000  0.4900180000000  0.4990940000000 1.0
C      1  0.5481040000000  0.5999510000000  0.4961290000000 1.0
C      1  0.4577970000000  0.3986840000000  0.4745430000000 1.0
C      1  0.5768380000000  0.5164310000000  0.5825430000000 1.0
C      1  0.4066030000000  0.4720350000000  0.4851110000000 1.0
C      1  0.4360550000000  0.4020480000000  0.4951010000000 1.0
C      1  0.5860560000000  0.5237520000000  0.5557030000000 1.0
C      1  0.4285860000000  0.5191500000000  0.4181880000000 1.0
C      1  0.5243920000000  0.4141790000000  0.5482680000000 1.0
C      1  0.5333240000000  0.5107960000000  0.5489300000000 1.0
C      1  0.5463930000000  0.5773780000000  0.4256100000000 1.0
C      1  0.5123570000000  0.5191740000000  0.4591600000000 1.0
C      1  0.4139410000000  0.4500490000000  0.5033860000000 1.0
C      1  0.5124930000000  0.4090200000000  0.4714030000000 1.0
C      1  0.5346900000000  0.5286430000000  0.5719440000000 1.0
C      1  0.5748960000000  0.5882880000000  0.4988920000000 1.0
C      1  0.4775100000000  0.4028060000000  0.5608580000000 1.0
C      1  0.4694820000000  0.5119400000000  0.4852340000000 1.0
C      1  0.5515440000000  0.5957420000000  0.4463660000000 1.0
C      1  0.5346990000000  0.6049860000000  0.4697250000000 1.0
C      1  0.4519000000000  0.5214760000000  0.4000680000000 1.0
C      1  0.4602360000000  0.4381640000000  0.5728750000000 1.0
C      1  0.5857070000000  0.4543410000000  0.5132880000000 1.0
C      1  0.4176160000000  0.4274050000000  0.4879210000000 1.0
C      1  0.4194480000000  0.4774110000000  0.4338980000000 1.0
C      1  0.4827970000000  0.4767370000000  0.5602280000000 1.0
C      1  0.4286340000000  0.5475110000000  0.4650690000000 1.0
C      1  0.4269020000000  0.4528220000000  0.5340740000000 1.0
C      1  0.5233650000000  0.4647980000000  0.5010540000000 1.0
C      1  0.5377650000000  0.4777420000000  0.4554190000000 1.0
C      1  0.5934690000000  0.4937660000000  0.4633200000000 1.0
C      1  0.5478760000000  0.4547750000000  0.5650410000000 1.0
C      1  0.5822800000000  0.4921840000000  0.4371390000000 1.0
C      1  0.4510750000000  0.4725310000000  0.4800200000000 1.0
C      1  0.4302290000000  0.5399150000000  0.5057450000000 1.0
C      1  0.4609390000000  0.4652550000000  0.5739950000000 1.0
C      1  0.5349180000000  0.4763550000000  0.4029560000000 1.0
C      1  0.5232010000000  0.5601450000000  0.4974000000000 1.0
C      1  0.5654730000000  0.4417410000000  0.4371280000000 1.0
C      1  0.4495490000000  0.5467170000000  0.4446130000000 1.0
C      1  0.4627120000000  0.5871510000000  0.4755660000000 1.0
C      1  0.4154560000000  0.5274200000000  0.4823960000000 1.0
C      1  0.5255900000000  0.4503930000000  0.4082830000000 1.0
C      1  0.4950110000000  0.4209970000000  0.4515820000000 1.0
C      1  0.5240960000000  0.5666330000000  0.5902040000000 1.0
C      1  0.5127960000000  0.5379060000000  0.5901950000000 1.0
C      1  0.4622970000000  0.5271980000000  0.5390360000000 1.0
C      1  0.5405970000000  0.4865110000000  0.5991570000000 1.0
C      1  0.4078370000000  0.4628960000000  0.4570560000000 1.0
C      1  0.5490000000000  0.5513740000000  0.5649390000000 1.0
C      1  0.5809990000000  0.5190190000000  0.4934420000000 1.0
C      1  0.4652870000000  0.4941980000000  0.6046840000000 1.0
C      1  0.5163870000000  0.4751840000000  0.5265800000000 1.0
C      1  0.5416640000000  0.5026540000000  0.4066830000000 1.0
C      1  0.4563010000000  0.4266070000000  0.4654910000000 1.0
C      1  0.4852510000000  0.3970900000000  0.4648650000000 1.0
C      1  0.5197090000000  0.5843780000000  0.5435150000000 1.0
C      1  0.4911100000000  0.5038370000000  0.5613670000000 1.0
C      1  0.4380180000000  0.4300020000000  0.4424080000000 1.0
C      1  0.4890230000000  0.4358450000000  0.5831720000000 1.0
C      1  0.5170860000000  0.5040490000000  0.6014060000000 1.0
C      1  0.5092670000000  0.5074610000000  0.4141410000000 1.0
C      1  0.5364900000000  0.4372160000000  0.4332270000000 1.0
C      1  0.5619790000000  0.4706820000000  0.4381080000000 1.0
C      1  0.4894610000000  0.5581130000000  0.4089400000000 1.0
C      1  0.4166690000000  0.4983350000000  0.5210320000000 1.0
C      1  0.4594430000000  0.5337810000000  0.4991010000000 1.0
C      1  0.5015450000000  0.6024390000000  0.4963710000000 1.0
C      1  0.5912180000000  0.5628790000000  0.4950910000000 1.0
C      1  0.6006880000000  0.4964640000000  0.4901750000000 1.0
C      1  0.5909490000000  0.5439840000000  0.4731080000000 1.0
C      1  0.5235960000000  0.4517950000000  0.4554900000000 1.0
C      1  0.5551440000000  0.5010760000000  0.5048790000000 1.0
C      1  0.5632030000000  0.4780860000000  0.5553960000000 1.0
C      1  0.5041370000000  0.4511410000000  0.4794580000000 1.0
C      1  0.4375360000000  0.3888780000000  0.5199150000000 1.0
C      1  0.4477130000000  0.5650020000000  0.5550510000000 1.0
C      1  0.4889390000000  0.5421840000000  0.5744840000000 1.0
C      1  0.4371770000000  0.5727020000000  0.4789920000000 1.0
C      1  0.5064360000000  0.5301540000000  0.5206860000000 1.0
C      1  0.4156910000000  0.4796590000000  0.5446330000000 1.0
C      1  0.5055150000000  0.6034490000000  0.4680230000000 1.0
C      1  0.5687520000000  0.5507210000000  0.5494960000000 1.0
C      1  0.4621700000000  0.5497590000000  0.4006220000000 1.0
C      1  0.4957640000000  0.4787560000000  0.4758440000000 1.0
C      1  0.4510800000000  0.5663270000000  0.4225540000000 1.0
C      1  0.4719490000000  0.5222550000000  0.5691000000000 1.0
C      1  0.4748840000000  0.5664790000000  0.5657010000000 1.0
C      1  0.4438030000000  0.4327540000000  0.5499310000000 1.0
C      1  0.4536540000000  0.5188320000000  0.5965300000000 1.0
C      1  0.4303700000000  0.5178150000000  0.5792960000000 1.0
END
