TITL C-4164247-2821-504 -3.40535401616146 125000 -4818.07991728493 0 0 33 (C1) n - 1
REM
REM in /home/nfs/bkarasulu/CARBON/AIRSS/Generating-Clusters/ReaxFF-fromJPCA2015/Units_Real/with-SteepDescent/Only-C1/SD-CG/Try1-3A/FIRE-CG
REM
REM
REM
REM
REM
REM ./C.cell (11c1c37f851c82e70ff6c80c92926a4b)
REM
REM compiler GCC version 9.2.1 20190827 (Red Hat 9.2.1-1)
REM options -cpp -mtune=generic -march=x86-64 -g -O0 -fpre-include=/usr/include/finclude/math-vector-fortran.h
REM seed 2134909090 903717079 1338203129 1487223452 368023755 -463900996 1225827376 486037385 364836664 1968723432 743441994 1600892653 -589201795 -792976516 1005015106 -138857365 1913111859 1570124124 765636116 -1437517609 785422107 -1296137505 -1479952303 -1732995719 -1286570648 662962058 886273787 -1274027959 -423658704 8811554 1809772867 1961583074 -239941453
REM
CELL 1.54180   50.00000   50.00000   50.00000   90.00000   90.00000   90.00000
LATT -1
SFAC C  
C      1  0.5393730000000  0.5089570000000  0.5269370000000 1.0
C      1  0.5468350000000  0.5533590000000  0.5014110000000 1.0
C      1  0.5293530000000  0.4609780000000  0.5074840000000 1.0
C      1  0.4550140000000  0.4810460000000  0.5180970000000 1.0
C      1  0.4560500000000  0.5085280000000  0.5273820000000 1.0
C      1  0.4632270000000  0.5443220000000  0.4893160000000 1.0
C      1  0.5099930000000  0.5431120000000  0.5389450000000 1.0
C      1  0.4642420000000  0.5519850000000  0.4664050000000 1.0
C      1  0.4988210000000  0.4975160000000  0.5531300000000 1.0
C      1  0.5466480000000  0.4773280000000  0.4912910000000 1.0
C      1  0.5216190000000  0.5159690000000  0.5466530000000 1.0
C      1  0.5093570000000  0.4507200000000  0.5262920000000 1.0
C      1  0.4512940000000  0.4676280000000  0.4923740000000 1.0
C      1  0.4747710000000  0.5140730000000  0.5497020000000 1.0
C      1  0.4620720000000  0.5355480000000  0.5155820000000 1.0
C      1  0.5530910000000  0.5272340000000  0.4900560000000 1.0
C      1  0.5390670000000  0.4866140000000  0.4644770000000 1.0
C      1  0.4969600000000  0.5035530000000  0.4398290000000 1.0
C      1  0.5560570000000  0.5027550000000  0.5066690000000 1.0
C      1  0.4959730000000  0.4696010000000  0.5463210000000 1.0
C      1  0.4579560000000  0.4714940000000  0.4628500000000 1.0
C      1  0.5175780000000  0.5192770000000  0.4507480000000 1.0
C      1  0.4741190000000  0.4909640000000  0.4503610000000 1.0
C      1  0.4664410000000  0.4427450000000  0.4934190000000 1.0
C      1  0.5250880000000  0.5737050000000  0.4958290000000 1.0
C      1  0.5266600000000  0.5612710000000  0.5233830000000 1.0
C      1  0.4980530000000  0.4572820000000  0.4556940000000 1.0
C      1  0.4818470000000  0.4409910000000  0.5184360000000 1.0
C      1  0.5417940000000  0.5162900000000  0.4642050000000 1.0
C      1  0.4811220000000  0.5405910000000  0.5386940000000 1.0
C      1  0.4743840000000  0.4451680000000  0.4645520000000 1.0
C      1  0.4697480000000  0.4616100000000  0.5353890000000 1.0
C      1  0.5153950000000  0.4777860000000  0.4480890000000 1.0
END
