TITL C-4164238-4211-395 26.1772063363873 125000 -16362.6060067783 0 0 110 (C1) n - 1
REM
REM in /home/nfs/bkarasulu/CARBON/AIRSS/Generating-Clusters/ReaxFF-fromJPCA2015/Units_Real/with-SteepDescent/Only-C1/SD-CG/Try1-3A/FIRE-CG
REM
REM
REM
REM
REM
REM ./C.cell (11c1c37f851c82e70ff6c80c92926a4b)
REM
REM compiler GCC version 9.2.1 20190827 (Red Hat 9.2.1-1)
REM options -cpp -mtune=generic -march=x86-64 -g -O0 -fpre-include=/usr/include/finclude/math-vector-fortran.h
REM seed -1405405606 -50949154 903113994 -1569450040 -191914138 1302678260 860541129 -344569684 327446486 -1966083800 67671863 -1679584479 -1627979372 664851728 -1475506757 -1373224524 -422295764 1881961840 1990919994 -593168144 -1377600591 -136234165 -532200656 885512336 2023369713 -2063815472 -1953455565 -1192800138 -185620612 -956121427 -1387272153 843977995 1707313613
REM
CELL 1.54180   50.00000   50.00000   50.00000   90.00000   90.00000   90.00000
LATT -1
SFAC C  
C      1  0.4556990000000  0.4321200000000  0.4900730000000 1.0
C      1  0.5664710000000  0.5245320000000  0.4882680000000 1.0
C      1  0.5003560000000  0.4427680000000  0.4766080000000 1.0
C      1  0.5903430000000  0.4802060000000  0.4456630000000 1.0
C      1  0.5502350000000  0.5348230000000  0.4265120000000 1.0
C      1  0.5176440000000  0.5166980000000  0.5067270000000 1.0
C      1  0.5141470000000  0.5218370000000  0.4778430000000 1.0
C      1  0.4635390000000  0.5713730000000  0.5024430000000 1.0
C      1  0.4357930000000  0.5118690000000  0.4442740000000 1.0
C      1  0.5426140000000  0.5373780000000  0.5497330000000 1.0
C      1  0.5713670000000  0.4624010000000  0.4328430000000 1.0
C      1  0.5252080000000  0.5500530000000  0.4363270000000 1.0
C      1  0.5133800000000  0.4905720000000  0.6066750000000 1.0
C      1  0.4805360000000  0.4403600000000  0.5020160000000 1.0
C      1  0.5440940000000  0.4510600000000  0.4247710000000 1.0
C      1  0.4744310000000  0.5334190000000  0.5305000000000 1.0
C      1  0.4085040000000  0.4972400000000  0.5435600000000 1.0
C      1  0.5087820000000  0.4888680000000  0.5101360000000 1.0
C      1  0.5410780000000  0.4426870000000  0.5497480000000 1.0
C      1  0.4562750000000  0.5209330000000  0.4252800000000 1.0
C      1  0.5745210000000  0.4626270000000  0.5126980000000 1.0
C      1  0.4285930000000  0.4361990000000  0.5039140000000 1.0
C      1  0.4520720000000  0.4691890000000  0.5707890000000 1.0
C      1  0.5521730000000  0.3981040000000  0.5146280000000 1.0
C      1  0.4740060000000  0.5434560000000  0.5042860000000 1.0
C      1  0.4831600000000  0.5924300000000  0.5101260000000 1.0
C      1  0.5499390000000  0.4298080000000  0.4730320000000 1.0
C      1  0.5054340000000  0.5705830000000  0.5453370000000 1.0
C      1  0.5275480000000  0.4403410000000  0.5241420000000 1.0
C      1  0.5548670000000  0.5669830000000  0.4966990000000 1.0
C      1  0.4684750000000  0.5009680000000  0.4759740000000 1.0
C      1  0.5677200000000  0.4832170000000  0.5536550000000 1.0
C      1  0.4315170000000  0.4585940000000  0.4605640000000 1.0
C      1  0.5005960000000  0.5134050000000  0.4088680000000 1.0
C      1  0.4738720000000  0.4772230000000  0.4266090000000 1.0
C      1  0.4718850000000  0.5058590000000  0.5379450000000 1.0
C      1  0.4523830000000  0.5668860000000  0.4561250000000 1.0
C      1  0.5278860000000  0.4149530000000  0.5095090000000 1.0
C      1  0.5211910000000  0.5768410000000  0.4684380000000 1.0
C      1  0.4164850000000  0.5060520000000  0.5692800000000 1.0
C      1  0.5418730000000  0.4368740000000  0.4483700000000 1.0
C      1  0.4585750000000  0.4858560000000  0.4986450000000 1.0
C      1  0.4485720000000  0.5735990000000  0.5483510000000 1.0
C      1  0.5337820000000  0.5341960000000  0.5227720000000 1.0
C      1  0.5702560000000  0.4670580000000  0.4623300000000 1.0
C      1  0.5277230000000  0.4671980000000  0.5116010000000 1.0
C      1  0.4715450000000  0.4534190000000  0.5812350000000 1.0
C      1  0.5223170000000  0.4922380000000  0.4082580000000 1.0
C      1  0.4360620000000  0.4437240000000  0.5242960000000 1.0
C      1  0.5020380000000  0.5384440000000  0.4233900000000 1.0
C      1  0.4764460000000  0.5582900000000  0.5514490000000 1.0
C      1  0.4729420000000  0.5484140000000  0.4576270000000 1.0
C      1  0.4742810000000  0.5433610000000  0.4311840000000 1.0
C      1  0.4819030000000  0.5297230000000  0.4785110000000 1.0
C      1  0.5415990000000  0.5098330000000  0.4174020000000 1.0
C      1  0.4523470000000  0.4602630000000  0.5389670000000 1.0
C      1  0.4247590000000  0.5488140000000  0.5145200000000 1.0
C      1  0.4989630000000  0.4640540000000  0.5466520000000 1.0
C      1  0.5528260000000  0.4873200000000  0.4766330000000 1.0
C      1  0.4407920000000  0.5703170000000  0.4826490000000 1.0
C      1  0.5520730000000  0.4773890000000  0.5032510000000 1.0
C      1  0.5802930000000  0.5045000000000  0.5368850000000 1.0
C      1  0.5300790000000  0.5477930000000  0.4640390000000 1.0
C      1  0.4706970000000  0.5883980000000  0.4602560000000 1.0
C      1  0.4920910000000  0.4540330000000  0.4256800000000 1.0
C      1  0.5255420000000  0.4943260000000  0.4687400000000 1.0
C      1  0.5702390000000  0.5317570000000  0.5422460000000 1.0
C      1  0.4763690000000  0.5426650000000  0.5773370000000 1.0
C      1  0.4235100000000  0.4848810000000  0.4498010000000 1.0
C      1  0.4160240000000  0.4555310000000  0.4847660000000 1.0
C      1  0.4558010000000  0.4411120000000  0.4618030000000 1.0
C      1  0.5768870000000  0.4132410000000  0.5057750000000 1.0
C      1  0.5144590000000  0.5155680000000  0.5890400000000 1.0
C      1  0.5073580000000  0.4731210000000  0.4634660000000 1.0
C      1  0.4950960000000  0.4924100000000  0.5497280000000 1.0
C      1  0.4848810000000  0.4849650000000  0.4956540000000 1.0
C      1  0.5740050000000  0.4387130000000  0.4914090000000 1.0
C      1  0.4831590000000  0.4406000000000  0.4513340000000 1.0
C      1  0.4953040000000  0.5854510000000  0.4638490000000 1.0
C      1  0.4284070000000  0.5535130000000  0.5434420000000 1.0
C      1  0.5042700000000  0.5426640000000  0.5835540000000 1.0
C      1  0.4499910000000  0.4883040000000  0.5250630000000 1.0
C      1  0.4531400000000  0.5243020000000  0.5804280000000 1.0
C      1  0.5225980000000  0.4223780000000  0.4817930000000 1.0
C      1  0.4052450000000  0.4801220000000  0.4949310000000 1.0
C      1  0.4206440000000  0.5227900000000  0.4672450000000 1.0
C      1  0.5302030000000  0.5809590000000  0.4969620000000 1.0
C      1  0.4934690000000  0.4373140000000  0.5853950000000 1.0
C      1  0.5647750000000  0.4572520000000  0.5421340000000 1.0
C      1  0.5220180000000  0.5548710000000  0.5624970000000 1.0
C      1  0.5296600000000  0.4731870000000  0.5887860000000 1.0
C      1  0.5445250000000  0.4906980000000  0.5701830000000 1.0
C      1  0.5898710000000  0.5079210000000  0.4568440000000 1.0
C      1  0.5102850000000  0.5843920000000  0.5200000000000 1.0
C      1  0.4805640000000  0.4498820000000  0.5291060000000 1.0
C      1  0.4234370000000  0.5465600000000  0.4870100000000 1.0
C      1  0.5179390000000  0.4521530000000  0.5679500000000 1.0
C      1  0.5592010000000  0.5491300000000  0.4743810000000 1.0
C      1  0.4067110000000  0.4972470000000  0.4711440000000 1.0
C      1  0.4170510000000  0.4908930000000  0.5202310000000 1.0
C      1  0.4430570000000  0.4955020000000  0.5796050000000 1.0
C      1  0.5904870000000  0.5087520000000  0.4879480000000 1.0
C      1  0.4824700000000  0.4844040000000  0.4535310000000 1.0
C      1  0.5711230000000  0.5241430000000  0.4434990000000 1.0
C      1  0.5197490000000  0.5043440000000  0.5620620000000 1.0
C      1  0.5613150000000  0.5409240000000  0.5139960000000 1.0
C      1  0.5184070000000  0.4636290000000  0.4171760000000 1.0
C      1  0.5888030000000  0.4920310000000  0.5117160000000 1.0
C      1  0.4288300000000  0.5329090000000  0.5675060000000 1.0
C      1  0.4734660000000  0.5024640000000  0.4113640000000 1.0
END
