TITL C-4164238-4211-724 54.5780114040234 125000 -21376.0315155517 0 0 145 (C1) n - 1
REM
REM in /home/nfs/bkarasulu/CARBON/AIRSS/Generating-Clusters/ReaxFF-fromJPCA2015/Units_Real/with-SteepDescent/Only-C1/SD-CG/Try1-3A/FIRE-CG
REM
REM
REM
REM
REM
REM ./C.cell (11c1c37f851c82e70ff6c80c92926a4b)
REM
REM compiler GCC version 9.2.1 20190827 (Red Hat 9.2.1-1)
REM options -cpp -mtune=generic -march=x86-64 -g -O0 -fpre-include=/usr/include/finclude/math-vector-fortran.h
REM seed 465799469 -965492424 358239765 -307339425 1495117677 -109414952 1188917219 -1229299186 -610211484 1707793023 1191444104 1384189946 381519083 -1126526523 -1534009165 -1937990915 1083816918 2113531134 621783095 -1590296915 981536807 377043369 -1036537670 -1888978724 1155280221 -1530777315 1109403874 1615073510 2036792629 -357525724 1876344333 -1629120933 496322735
REM
CELL 1.54180   50.00000   50.00000   50.00000   90.00000   90.00000   90.00000
LATT -1
SFAC C  
C      1  0.5361200000000  0.4912070000000  0.5265180000000 1.0
C      1  0.4203600000000  0.4606220000000  0.5114390000000 1.0
C      1  0.5637720000000  0.5345620000000  0.4225610000000 1.0
C      1  0.4136050000000  0.4782910000000  0.4669580000000 1.0
C      1  0.5447210000000  0.5347950000000  0.5212150000000 1.0
C      1  0.5875220000000  0.5326470000000  0.4982790000000 1.0
C      1  0.5296070000000  0.4019400000000  0.5328570000000 1.0
C      1  0.5087720000000  0.4682010000000  0.5556940000000 1.0
C      1  0.5694010000000  0.5613300000000  0.4758680000000 1.0
C      1  0.4707240000000  0.4157740000000  0.4499010000000 1.0
C      1  0.4713800000000  0.5312130000000  0.4932040000000 1.0
C      1  0.5764150000000  0.4771490000000  0.5512050000000 1.0
C      1  0.5612320000000  0.4418600000000  0.5160940000000 1.0
C      1  0.5155870000000  0.4307010000000  0.4242550000000 1.0
C      1  0.5881060000000  0.5022830000000  0.5423520000000 1.0
C      1  0.5217430000000  0.4851710000000  0.4828410000000 1.0
C      1  0.4551290000000  0.4769330000000  0.5443530000000 1.0
C      1  0.4289690000000  0.4961940000000  0.5693760000000 1.0
C      1  0.5450490000000  0.4029710000000  0.4839360000000 1.0
C      1  0.4161720000000  0.5036540000000  0.4532050000000 1.0
C      1  0.4624570000000  0.4643650000000  0.4143550000000 1.0
C      1  0.4785170000000  0.5191340000000  0.5756990000000 1.0
C      1  0.4873770000000  0.5149580000000  0.4105690000000 1.0
C      1  0.4473390000000  0.5427590000000  0.5088070000000 1.0
C      1  0.4113420000000  0.5332580000000  0.5458110000000 1.0
C      1  0.5168270000000  0.4831920000000  0.5964500000000 1.0
C      1  0.4464340000000  0.4301580000000  0.4566380000000 1.0
C      1  0.4234750000000  0.4446210000000  0.5750150000000 1.0
C      1  0.5600480000000  0.5153380000000  0.5799940000000 1.0
C      1  0.5471850000000  0.5099320000000  0.5110730000000 1.0
C      1  0.4468260000000  0.5754400000000  0.4621750000000 1.0
C      1  0.4898610000000  0.5765420000000  0.4258810000000 1.0
C      1  0.4751130000000  0.3891700000000  0.4889120000000 1.0
C      1  0.5382450000000  0.5503560000000  0.4217990000000 1.0
C      1  0.4267800000000  0.5046800000000  0.4250490000000 1.0
C      1  0.4873630000000  0.4305480000000  0.4317630000000 1.0
C      1  0.5078620000000  0.4734220000000  0.3891600000000 1.0
C      1  0.5328680000000  0.5014730000000  0.4191410000000 1.0
C      1  0.5322710000000  0.5557330000000  0.5881920000000 1.0
C      1  0.4986110000000  0.5992260000000  0.4880250000000 1.0
C      1  0.5690640000000  0.5503910000000  0.5186180000000 1.0
C      1  0.4594820000000  0.4923670000000  0.5689740000000 1.0
C      1  0.4982320000000  0.5885140000000  0.5422830000000 1.0
C      1  0.5124070000000  0.4932240000000  0.4578600000000 1.0
C      1  0.5303710000000  0.5411550000000  0.4509050000000 1.0
C      1  0.4829650000000  0.4588870000000  0.4408080000000 1.0
C      1  0.4433460000000  0.5507910000000  0.4296750000000 1.0
C      1  0.5246120000000  0.5973670000000  0.5282640000000 1.0
C      1  0.4225750000000  0.5283660000000  0.4978240000000 1.0
C      1  0.4733340000000  0.4399340000000  0.5670220000000 1.0
C      1  0.5376550000000  0.4476800000000  0.5615640000000 1.0
C      1  0.4484080000000  0.5762460000000  0.5155480000000 1.0
C      1  0.5247420000000  0.4406390000000  0.4760400000000 1.0
C      1  0.4479940000000  0.4481540000000  0.5510250000000 1.0
C      1  0.5076360000000  0.5639930000000  0.5569820000000 1.0
C      1  0.5225760000000  0.4722030000000  0.5097400000000 1.0
C      1  0.5231290000000  0.4208170000000  0.5557530000000 1.0
C      1  0.4196770000000  0.5288290000000  0.4689170000000 1.0
C      1  0.4626480000000  0.5708990000000  0.4365170000000 1.0
C      1  0.4739110000000  0.4839440000000  0.5214770000000 1.0
C      1  0.4335620000000  0.4578080000000  0.4517780000000 1.0
C      1  0.5219360000000  0.4527490000000  0.4055270000000 1.0
C      1  0.5982820000000  0.4834350000000  0.5067340000000 1.0
C      1  0.5472920000000  0.5001870000000  0.4841030000000 1.0
C      1  0.5326320000000  0.5101270000000  0.4467980000000 1.0
C      1  0.4839580000000  0.6190920000000  0.4817570000000 1.0
C      1  0.5342160000000  0.5265640000000  0.5878890000000 1.0
C      1  0.4968630000000  0.4266590000000  0.5610850000000 1.0
C      1  0.4150020000000  0.5595170000000  0.5545110000000 1.0
C      1  0.5089020000000  0.4718300000000  0.4405000000000 1.0
C      1  0.5087870000000  0.3967110000000  0.5128340000000 1.0
C      1  0.4825090000000  0.5386390000000  0.5974230000000 1.0
C      1  0.4895790000000  0.3981830000000  0.4665460000000 1.0
C      1  0.5569190000000  0.5672460000000  0.5687260000000 1.0
C      1  0.5324000000000  0.4307010000000  0.4483100000000 1.0
C      1  0.4127380000000  0.5077370000000  0.5434650000000 1.0
C      1  0.5756220000000  0.5523330000000  0.5503950000000 1.0
C      1  0.5359050000000  0.4723820000000  0.4232800000000 1.0
C      1  0.4633390000000  0.5038250000000  0.4532840000000 1.0
C      1  0.4997890000000  0.5397890000000  0.4554430000000 1.0
C      1  0.5639330000000  0.4657860000000  0.4372600000000 1.0
C      1  0.4659870000000  0.4822160000000  0.4930220000000 1.0
C      1  0.4776060000000  0.4927970000000  0.6221690000000 1.0
C      1  0.5983120000000  0.5100290000000  0.5147900000000 1.0
C      1  0.4802110000000  0.5224970000000  0.6225090000000 1.0
C      1  0.4444270000000  0.4245640000000  0.5028850000000 1.0
C      1  0.5905700000000  0.4648350000000  0.4877530000000 1.0
C      1  0.4448410000000  0.4876360000000  0.4090980000000 1.0
C      1  0.4435720000000  0.5900380000000  0.4868160000000 1.0
C      1  0.5089460000000  0.5959170000000  0.4399980000000 1.0
C      1  0.4437140000000  0.5612110000000  0.5646560000000 1.0
C      1  0.5656670000000  0.4234660000000  0.4731400000000 1.0
C      1  0.5614240000000  0.5721090000000  0.5004930000000 1.0
C      1  0.5555640000000  0.4864350000000  0.5732590000000 1.0
C      1  0.5110390000000  0.5014720000000  0.4006540000000 1.0
C      1  0.5678760000000  0.5897150000000  0.5634800000000 1.0
C      1  0.4650150000000  0.5064800000000  0.4808890000000 1.0
C      1  0.5800860000000  0.4376790000000  0.4938810000000 1.0
C      1  0.4302940000000  0.5520590000000  0.4547940000000 1.0
C      1  0.4596730000000  0.5119290000000  0.4007640000000 1.0
C      1  0.4204520000000  0.4713350000000  0.5760770000000 1.0
C      1  0.5011090000000  0.5293020000000  0.5299150000000 1.0
C      1  0.5065650000000  0.5735310000000  0.4914620000000 1.0
C      1  0.5128820000000  0.5620960000000  0.4173740000000 1.0
C      1  0.4119510000000  0.5065850000000  0.5135410000000 1.0
C      1  0.5040530000000  0.5590230000000  0.5853630000000 1.0
C      1  0.5346320000000  0.5909060000000  0.4546380000000 1.0
C      1  0.4347660000000  0.5787910000000  0.5437590000000 1.0
C      1  0.5449930000000  0.5647960000000  0.4634520000000 1.0
C      1  0.4600880000000  0.6110620000000  0.4791520000000 1.0
C      1  0.4824420000000  0.4672130000000  0.5764400000000 1.0
C      1  0.5203580000000  0.5406810000000  0.5370700000000 1.0
C      1  0.5777310000000  0.4897220000000  0.4461630000000 1.0
C      1  0.4610040000000  0.4014870000000  0.5103720000000 1.0
C      1  0.5622980000000  0.4536690000000  0.5433940000000 1.0
C      1  0.5335930000000  0.5820150000000  0.5054770000000 1.0
C      1  0.5719020000000  0.4854960000000  0.4744030000000 1.0
C      1  0.4495560000000  0.4806680000000  0.4489330000000 1.0
C      1  0.5782060000000  0.5252270000000  0.5598160000000 1.0
C      1  0.4989710000000  0.4514910000000  0.4853210000000 1.0
C      1  0.5607780000000  0.4388130000000  0.4480140000000 1.0
C      1  0.5774580000000  0.5204160000000  0.4444110000000 1.0
C      1  0.4834110000000  0.4641570000000  0.3967920000000 1.0
C      1  0.4813330000000  0.5161150000000  0.5208410000000 1.0
C      1  0.4606120000000  0.5306650000000  0.5324660000000 1.0
C      1  0.5286690000000  0.4889450000000  0.5538290000000 1.0
C      1  0.4927610000000  0.4414890000000  0.5125810000000 1.0
C      1  0.5825840000000  0.5355920000000  0.4707130000000 1.0
C      1  0.4527970000000  0.4381220000000  0.4804830000000 1.0
C      1  0.4981800000000  0.4652700000000  0.5279840000000 1.0
C      1  0.4093370000000  0.4803570000000  0.4967580000000 1.0
C      1  0.5381760000000  0.4652080000000  0.5859410000000 1.0
C      1  0.4858580000000  0.4143690000000  0.5202890000000 1.0
C      1  0.4864800000000  0.5181610000000  0.4402050000000 1.0
C      1  0.4718910000000  0.4590000000000  0.4748700000000 1.0
C      1  0.4390110000000  0.5282720000000  0.4135850000000 1.0
C      1  0.5154490000000  0.3983340000000  0.4838600000000 1.0
C      1  0.4325130000000  0.4402160000000  0.5247080000000 1.0
C      1  0.5378870000000  0.4476140000000  0.5005940000000 1.0
C      1  0.4904410000000  0.4726710000000  0.6046170000000 1.0
C      1  0.5101770000000  0.5098860000000  0.5870640000000 1.0
C      1  0.5515110000000  0.3974560000000  0.5127540000000 1.0
C      1  0.4931780000000  0.5489330000000  0.4810240000000 1.0
C      1  0.4735170000000  0.5841500000000  0.5290120000000 1.0
C      1  0.4634930000000  0.5401070000000  0.5593680000000 1.0
END
