TITL C-4164239-2837-412 12.3581113297355 125000 -25340.8461559561 0 0 168 (C1) n - 1
REM
REM in /home/nfs/bkarasulu/CARBON/AIRSS/Generating-Clusters/ReaxFF-fromJPCA2015/Units_Real/with-SteepDescent/Only-C1/SD-CG/Try1-3A/FIRE-CG
REM
REM
REM
REM
REM
REM ./C.cell (11c1c37f851c82e70ff6c80c92926a4b)
REM
REM compiler GCC version 9.2.1 20190827 (Red Hat 9.2.1-1)
REM options -cpp -mtune=generic -march=x86-64 -g -O0 -fpre-include=/usr/include/finclude/math-vector-fortran.h
REM seed 1642348923 -2056251244 -1127494336 -1982219241 878009597 -1006973332 -1440380357 1005125268 1451399281 -621876523 748263060 -1563490247 -685584623 145064222 -625951292 -406650251 -184267305 687983281 -2031057450 -1120996883 -350558465 -1477761395 726186159 -212873354 -392397503 -289874756 429307959 1309300773 -173270329 -1535620899 2153591 737209945 -1347879510
REM
CELL 1.54180   50.00000   50.00000   50.00000   90.00000   90.00000   90.00000
LATT -1
SFAC C  
C      1  0.4852970000000  0.4884410000000  0.4829620000000 1.0
C      1  0.5274160000000  0.5525250000000  0.4291070000000 1.0
C      1  0.5974030000000  0.5480060000000  0.4824830000000 1.0
C      1  0.5233600000000  0.4246870000000  0.5708050000000 1.0
C      1  0.4532550000000  0.4915150000000  0.4893920000000 1.0
C      1  0.4866800000000  0.5466360000000  0.4585820000000 1.0
C      1  0.5768160000000  0.5808620000000  0.5069760000000 1.0
C      1  0.3976020000000  0.5026490000000  0.5013830000000 1.0
C      1  0.5369960000000  0.6063170000000  0.5210340000000 1.0
C      1  0.4865340000000  0.5108330000000  0.3953910000000 1.0
C      1  0.6142520000000  0.4833860000000  0.4816190000000 1.0
C      1  0.5008200000000  0.4404290000000  0.5818270000000 1.0
C      1  0.4397190000000  0.5918360000000  0.5136900000000 1.0
C      1  0.4614680000000  0.4979370000000  0.4362600000000 1.0
C      1  0.5745030000000  0.5291630000000  0.4358520000000 1.0
C      1  0.5406610000000  0.5089170000000  0.4052890000000 1.0
C      1  0.4897830000000  0.6017110000000  0.4949540000000 1.0
C      1  0.5280710000000  0.5829550000000  0.4480800000000 1.0
C      1  0.4530420000000  0.5959190000000  0.4617070000000 1.0
C      1  0.4961820000000  0.4644580000000  0.5979430000000 1.0
C      1  0.5429640000000  0.5240790000000  0.5941050000000 1.0
C      1  0.4400540000000  0.5947740000000  0.4862740000000 1.0
C      1  0.5208840000000  0.4642440000000  0.4589910000000 1.0
C      1  0.5190700000000  0.6019340000000  0.4976020000000 1.0
C      1  0.5173220000000  0.3983780000000  0.4832510000000 1.0
C      1  0.4741070000000  0.4458610000000  0.4434780000000 1.0
C      1  0.5245000000000  0.5145820000000  0.5341610000000 1.0
C      1  0.5264290000000  0.4290390000000  0.4185880000000 1.0
C      1  0.4766310000000  0.5206800000000  0.5258030000000 1.0
C      1  0.4002900000000  0.4461510000000  0.5052740000000 1.0
C      1  0.4829680000000  0.5586120000000  0.5798160000000 1.0
C      1  0.4587020000000  0.4644060000000  0.4051520000000 1.0
C      1  0.4023870000000  0.5523490000000  0.5145880000000 1.0
C      1  0.5063220000000  0.5929400000000  0.5492730000000 1.0
C      1  0.5651230000000  0.5711150000000  0.4579790000000 1.0
C      1  0.4213080000000  0.5038230000000  0.4136250000000 1.0
C      1  0.5465070000000  0.4517800000000  0.4618260000000 1.0
C      1  0.4864300000000  0.4380430000000  0.5567000000000 1.0
C      1  0.5313720000000  0.5065890000000  0.6156030000000 1.0
C      1  0.4809470000000  0.4480560000000  0.4139940000000 1.0
C      1  0.4331990000000  0.4575870000000  0.4193110000000 1.0
C      1  0.5502080000000  0.5207500000000  0.5449880000000 1.0
C      1  0.5430300000000  0.4069760000000  0.4912140000000 1.0
C      1  0.5221260000000  0.4724610000000  0.3935510000000 1.0
C      1  0.4363460000000  0.5364460000000  0.5906280000000 1.0
C      1  0.5923930000000  0.5093880000000  0.5278450000000 1.0
C      1  0.4062370000000  0.5164050000000  0.5492050000000 1.0
C      1  0.4562390000000  0.4509880000000  0.5200130000000 1.0
C      1  0.4659650000000  0.5364130000000  0.5035580000000 1.0
C      1  0.4361270000000  0.4395020000000  0.5648830000000 1.0
C      1  0.5031820000000  0.5047230000000  0.6235570000000 1.0
C      1  0.6073320000000  0.5041970000000  0.4635570000000 1.0
C      1  0.5211670000000  0.5651760000000  0.5494090000000 1.0
C      1  0.4668350000000  0.4925920000000  0.4079750000000 1.0
C      1  0.4968960000000  0.5804190000000  0.4214280000000 1.0
C      1  0.5020420000000  0.5953430000000  0.4449110000000 1.0
C      1  0.4468360000000  0.5223550000000  0.4443350000000 1.0
C      1  0.5675060000000  0.5767260000000  0.5547350000000 1.0
C      1  0.5129870000000  0.4158580000000  0.4412890000000 1.0
C      1  0.5637040000000  0.5870820000000  0.4801210000000 1.0
C      1  0.5695510000000  0.4413150000000  0.5504140000000 1.0
C      1  0.4773370000000  0.5921270000000  0.5439300000000 1.0
C      1  0.5173520000000  0.4066020000000  0.5474090000000 1.0
C      1  0.4987090000000  0.3880960000000  0.5329890000000 1.0
C      1  0.4877110000000  0.5505850000000  0.4865990000000 1.0
C      1  0.4638420000000  0.4152660000000  0.4548540000000 1.0
C      1  0.5138800000000  0.5009410000000  0.3937670000000 1.0
C      1  0.5260760000000  0.5265330000000  0.4867530000000 1.0
C      1  0.4741630000000  0.5040560000000  0.6138310000000 1.0
C      1  0.3987100000000  0.5625070000000  0.4864620000000 1.0
C      1  0.4402410000000  0.5702960000000  0.4525700000000 1.0
C      1  0.5507830000000  0.4902990000000  0.5017160000000 1.0
C      1  0.4519700000000  0.5223970000000  0.5406830000000 1.0
C      1  0.4820390000000  0.6002260000000  0.4675730000000 1.0
C      1  0.5548640000000  0.5384320000000  0.5225370000000 1.0
C      1  0.4604420000000  0.4724100000000  0.4501880000000 1.0
C      1  0.5257350000000  0.5065340000000  0.5075010000000 1.0
C      1  0.5049570000000  0.4886000000000  0.4621910000000 1.0
C      1  0.5984590000000  0.4806650000000  0.5297760000000 1.0
C      1  0.5040040000000  0.5411320000000  0.5661190000000 1.0
C      1  0.5497250000000  0.4900030000000  0.4737300000000 1.0
C      1  0.5245390000000  0.5118630000000  0.4616430000000 1.0
C      1  0.5579070000000  0.4421880000000  0.5236990000000 1.0
C      1  0.4661890000000  0.5798900000000  0.5686630000000 1.0
C      1  0.5586890000000  0.4268010000000  0.4525690000000 1.0
C      1  0.5038810000000  0.4286560000000  0.5350170000000 1.0
C      1  0.5427610000000  0.5752090000000  0.5698780000000 1.0
C      1  0.5219280000000  0.5151150000000  0.5763990000000 1.0
C      1  0.4255850000000  0.5666960000000  0.5255210000000 1.0
C      1  0.5869660000000  0.4654290000000  0.5518260000000 1.0
C      1  0.5656260000000  0.4621710000000  0.4171230000000 1.0
C      1  0.4469060000000  0.5485110000000  0.5294070000000 1.0
C      1  0.4178250000000  0.4285910000000  0.4899680000000 1.0
C      1  0.5312100000000  0.5548260000000  0.5212710000000 1.0
C      1  0.4952060000000  0.4762010000000  0.5289240000000 1.0
C      1  0.4739170000000  0.3846530000000  0.4990390000000 1.0
C      1  0.5706000000000  0.5093230000000  0.5646910000000 1.0
C      1  0.5880600000000  0.4523690000000  0.4831550000000 1.0
C      1  0.5804950000000  0.5494760000000  0.5593200000000 1.0
C      1  0.4385020000000  0.4754460000000  0.4684640000000 1.0
C      1  0.5495280000000  0.5312360000000  0.4213970000000 1.0
C      1  0.5471350000000  0.4691450000000  0.5785120000000 1.0
C      1  0.4818850000000  0.4572300000000  0.5137720000000 1.0
C      1  0.5155730000000  0.5512710000000  0.4965250000000 1.0
C      1  0.5930200000000  0.5568770000000  0.5099690000000 1.0
C      1  0.4983240000000  0.4364540000000  0.5084490000000 1.0
C      1  0.4195060000000  0.5559930000000  0.4664270000000 1.0
C      1  0.4436500000000  0.4033830000000  0.5280680000000 1.0
C      1  0.4446330000000  0.4218010000000  0.5028460000000 1.0
C      1  0.4153300000000  0.4799880000000  0.4271470000000 1.0
C      1  0.4818830000000  0.5392360000000  0.3990430000000 1.0
C      1  0.5770760000000  0.4262780000000  0.4765670000000 1.0
C      1  0.4389840000000  0.4957400000000  0.5391960000000 1.0
C      1  0.4480700000000  0.5194090000000  0.4891580000000 1.0
C      1  0.5723170000000  0.5140250000000  0.5067640000000 1.0
C      1  0.5729860000000  0.4810240000000  0.5721820000000 1.0
C      1  0.5026950000000  0.3818760000000  0.5042990000000 1.0
C      1  0.5037760000000  0.4406710000000  0.4583700000000 1.0
C      1  0.4560320000000  0.5212880000000  0.6031930000000 1.0
C      1  0.4250260000000  0.4324770000000  0.4632970000000 1.0
C      1  0.4134120000000  0.4552820000000  0.5556430000000 1.0
C      1  0.5480330000000  0.4408400000000  0.5707260000000 1.0
C      1  0.4333030000000  0.5255420000000  0.4065860000000 1.0
C      1  0.3995460000000  0.4555480000000  0.5312700000000 1.0
C      1  0.5544310000000  0.4354670000000  0.4251140000000 1.0
C      1  0.4589340000000  0.5489220000000  0.4409770000000 1.0
C      1  0.5947800000000  0.5198140000000  0.4853910000000 1.0
C      1  0.4338020000000  0.4364420000000  0.4387010000000 1.0
C      1  0.5001780000000  0.4917130000000  0.5063080000000 1.0
C      1  0.5696780000000  0.5324810000000  0.5815430000000 1.0
C      1  0.4411880000000  0.4779520000000  0.5154760000000 1.0
C      1  0.5637380000000  0.4194450000000  0.5027400000000 1.0
C      1  0.5033650000000  0.5576470000000  0.4078930000000 1.0
C      1  0.4130550000000  0.4829910000000  0.4571610000000 1.0
C      1  0.4614990000000  0.4068260000000  0.4829060000000 1.0
C      1  0.4048150000000  0.5052070000000  0.4741110000000 1.0
C      1  0.6049660000000  0.4666060000000  0.5027990000000 1.0
C      1  0.5942400000000  0.5390140000000  0.5347230000000 1.0
C      1  0.4087360000000  0.4736760000000  0.5112260000000 1.0
C      1  0.5434410000000  0.4671390000000  0.5214130000000 1.0
C      1  0.4293260000000  0.5254110000000  0.4683970000000 1.0
C      1  0.5620050000000  0.5909890000000  0.5285740000000 1.0
C      1  0.5219450000000  0.6181720000000  0.5444780000000 1.0
C      1  0.4998360000000  0.5246580000000  0.5418620000000 1.0
C      1  0.5353300000000  0.5944850000000  0.4739830000000 1.0
C      1  0.4304900000000  0.4182040000000  0.5481460000000 1.0
C      1  0.4896710000000  0.4031780000000  0.4514940000000 1.0
C      1  0.5902230000000  0.5044420000000  0.4384250000000 1.0
C      1  0.5802610000000  0.4777150000000  0.4362250000000 1.0
C      1  0.5148130000000  0.4804520000000  0.6138780000000 1.0
C      1  0.5089560000000  0.4486960000000  0.4054870000000 1.0
C      1  0.5496780000000  0.4803020000000  0.4004820000000 1.0
C      1  0.4201490000000  0.5260000000000  0.5688280000000 1.0
C      1  0.5222090000000  0.4740400000000  0.5408120000000 1.0
C      1  0.5830070000000  0.5509090000000  0.4551930000000 1.0
C      1  0.5114010000000  0.5363510000000  0.4476720000000 1.0
C      1  0.4688000000000  0.5974190000000  0.5170440000000 1.0
C      1  0.3986190000000  0.5233220000000  0.5218060000000 1.0
C      1  0.4600990000000  0.4466970000000  0.5491570000000 1.0
C      1  0.5679540000000  0.4711290000000  0.4641960000000 1.0
C      1  0.4689060000000  0.4778150000000  0.5986610000000 1.0
C      1  0.4256680000000  0.4821960000000  0.5630970000000 1.0
C      1  0.4554270000000  0.5605700000000  0.5881310000000 1.0
C      1  0.5260340000000  0.4868880000000  0.5674880000000 1.0
C      1  0.5033470000000  0.4251140000000  0.4832540000000 1.0
C      1  0.4689290000000  0.3869560000000  0.5280030000000 1.0
C      1  0.4474050000000  0.4797740000000  0.5811260000000 1.0
C      1  0.4550600000000  0.5437220000000  0.4101070000000 1.0
END
