TITL C-4164247-2821-84 27.9641517715908 125000 -29634.0918441748 0 0 198 (C1) n - 1
REM
REM in /home/nfs/bkarasulu/CARBON/AIRSS/Generating-Clusters/ReaxFF-fromJPCA2015/Units_Real/with-SteepDescent/Only-C1/SD-CG/Try1-3A/FIRE-CG
REM
REM
REM
REM
REM
REM ./C.cell (11c1c37f851c82e70ff6c80c92926a4b)
REM
REM compiler GCC version 9.2.1 20190827 (Red Hat 9.2.1-1)
REM options -cpp -mtune=generic -march=x86-64 -g -O0 -fpre-include=/usr/include/finclude/math-vector-fortran.h
REM seed 1987088821 577850664 1328319634 1343230175 1942913634 959127170 -712703897 1651944954 -1510517375 1839778046 532179875 1020914632 -280066746 -546266315 1133347697 -1191106549 -389385333 1355714702 438382677 1241441285 -1681059010 -1016843353 2126844302 -465632935 -770441468 -929681342 -714439421 -1555390773 1988975134 -758957855 1614599491 977879524 137936852
REM
CELL 1.54180   50.00000   50.00000   50.00000   90.00000   90.00000   90.00000
LATT -1
SFAC C  
C      1  0.5290480000000  0.5960300000000  0.4271430000000 1.0
C      1  0.4108160000000  0.5001760000000  0.5848260000000 1.0
C      1  0.4846380000000  0.5424700000000  0.4533920000000 1.0
C      1  0.5495270000000  0.4794430000000  0.5112070000000 1.0
C      1  0.4563060000000  0.6113160000000  0.4752760000000 1.0
C      1  0.5466520000000  0.5428510000000  0.5252610000000 1.0
C      1  0.4515200000000  0.5526610000000  0.4509860000000 1.0
C      1  0.4225590000000  0.5328480000000  0.4887920000000 1.0
C      1  0.4648920000000  0.4097210000000  0.5409310000000 1.0
C      1  0.5685720000000  0.4941280000000  0.4717820000000 1.0
C      1  0.4211830000000  0.4180190000000  0.5219310000000 1.0
C      1  0.4526330000000  0.4439480000000  0.4119270000000 1.0
C      1  0.4167420000000  0.5885230000000  0.4515490000000 1.0
C      1  0.5466540000000  0.4997630000000  0.6031200000000 1.0
C      1  0.5176170000000  0.4652840000000  0.4699670000000 1.0
C      1  0.5340070000000  0.5954000000000  0.5392790000000 1.0
C      1  0.4318340000000  0.5625660000000  0.5452950000000 1.0
C      1  0.4385050000000  0.4965470000000  0.5930100000000 1.0
C      1  0.4494420000000  0.6199360000000  0.5007140000000 1.0
C      1  0.3966440000000  0.5273270000000  0.4735960000000 1.0
C      1  0.4733670000000  0.5850130000000  0.5337970000000 1.0
C      1  0.3631190000000  0.4946930000000  0.4910280000000 1.0
C      1  0.4618550000000  0.4618360000000  0.4604920000000 1.0
C      1  0.5087370000000  0.5131770000000  0.5193230000000 1.0
C      1  0.4278590000000  0.4627870000000  0.5673160000000 1.0
C      1  0.5938340000000  0.4964240000000  0.4854010000000 1.0
C      1  0.4848560000000  0.5149590000000  0.4413370000000 1.0
C      1  0.4539290000000  0.4895430000000  0.4662250000000 1.0
C      1  0.5748280000000  0.5844310000000  0.5189130000000 1.0
C      1  0.4902060000000  0.4723660000000  0.3751460000000 1.0
C      1  0.5539160000000  0.4655680000000  0.3983450000000 1.0
C      1  0.4278180000000  0.4831000000000  0.5060600000000 1.0
C      1  0.5058480000000  0.4250190000000  0.5124120000000 1.0
C      1  0.5201910000000  0.5615230000000  0.4872580000000 1.0
C      1  0.4052120000000  0.5172610000000  0.4483920000000 1.0
C      1  0.4331300000000  0.5159700000000  0.4120110000000 1.0
C      1  0.3917420000000  0.5127370000000  0.5439920000000 1.0
C      1  0.5032210000000  0.4900680000000  0.5622830000000 1.0
C      1  0.5442000000000  0.5080700000000  0.4685200000000 1.0
C      1  0.5653630000000  0.4684540000000  0.5703800000000 1.0
C      1  0.4014690000000  0.4899530000000  0.4410350000000 1.0
C      1  0.6012820000000  0.5148610000000  0.5072840000000 1.0
C      1  0.5301420000000  0.3795220000000  0.5229110000000 1.0
C      1  0.5941440000000  0.4515710000000  0.4619490000000 1.0
C      1  0.5042630000000  0.4617330000000  0.6093640000000 1.0
C      1  0.4757930000000  0.4601840000000  0.6024580000000 1.0
C      1  0.4318380000000  0.4607010000000  0.4208280000000 1.0
C      1  0.4801820000000  0.5603680000000  0.4977790000000 1.0
C      1  0.4864200000000  0.5879230000000  0.5619510000000 1.0
C      1  0.4629950000000  0.6029170000000  0.4504860000000 1.0
C      1  0.4073720000000  0.5464370000000  0.5115670000000 1.0
C      1  0.5620500000000  0.4712310000000  0.4869250000000 1.0
C      1  0.4597380000000  0.6102870000000  0.5267330000000 1.0
C      1  0.6153690000000  0.4561310000000  0.5337970000000 1.0
C      1  0.4974740000000  0.4119190000000  0.4576570000000 1.0
C      1  0.4440330000000  0.5659890000000  0.4083010000000 1.0
C      1  0.5445490000000  0.4240710000000  0.4773770000000 1.0
C      1  0.5251410000000  0.5313590000000  0.3955350000000 1.0
C      1  0.3901500000000  0.4833570000000  0.5438090000000 1.0
C      1  0.4067870000000  0.5232640000000  0.5673530000000 1.0
C      1  0.4348950000000  0.4501820000000  0.4481620000000 1.0
C      1  0.5956160000000  0.4400140000000  0.5379760000000 1.0
C      1  0.5714770000000  0.4873940000000  0.5930910000000 1.0
C      1  0.5117400000000  0.4127350000000  0.5930840000000 1.0
C      1  0.4419230000000  0.5022090000000  0.4891160000000 1.0
C      1  0.5188300000000  0.5454940000000  0.5281900000000 1.0
C      1  0.5540740000000  0.5888320000000  0.4381540000000 1.0
C      1  0.4695540000000  0.5241390000000  0.5516440000000 1.0
C      1  0.4609920000000  0.4876060000000  0.6101510000000 1.0
C      1  0.4581240000000  0.5059110000000  0.4444640000000 1.0
C      1  0.5672120000000  0.5273890000000  0.5467880000000 1.0
C      1  0.4632420000000  0.4579340000000  0.5315220000000 1.0
C      1  0.5535010000000  0.5624310000000  0.4261340000000 1.0
C      1  0.4054500000000  0.4416240000000  0.5146680000000 1.0
C      1  0.5519570000000  0.4191250000000  0.4471090000000 1.0
C      1  0.5959000000000  0.4397450000000  0.4865410000000 1.0
C      1  0.5098180000000  0.6021750000000  0.4674540000000 1.0
C      1  0.4929480000000  0.5087570000000  0.5432230000000 1.0
C      1  0.5044800000000  0.4461110000000  0.3810120000000 1.0
C      1  0.5759100000000  0.4426900000000  0.5611240000000 1.0
C      1  0.6307330000000  0.4759740000000  0.5393770000000 1.0
C      1  0.5076170000000  0.6032090000000  0.4970350000000 1.0
C      1  0.6127050000000  0.5587560000000  0.4762980000000 1.0
C      1  0.5673440000000  0.5891630000000  0.4674870000000 1.0
C      1  0.5279790000000  0.4137510000000  0.4295460000000 1.0
C      1  0.6077780000000  0.5439830000000  0.5023670000000 1.0
C      1  0.5204520000000  0.4867380000000  0.6070950000000 1.0
C      1  0.4394890000000  0.4364270000000  0.5707570000000 1.0
C      1  0.5255750000000  0.4549990000000  0.4258700000000 1.0
C      1  0.3903250000000  0.4651320000000  0.5201400000000 1.0
C      1  0.5302500000000  0.4462740000000  0.3967720000000 1.0
C      1  0.3885640000000  0.4782010000000  0.4923960000000 1.0
C      1  0.6021380000000  0.4968430000000  0.4406710000000 1.0
C      1  0.4989990000000  0.5245330000000  0.3880570000000 1.0
C      1  0.4356020000000  0.5255720000000  0.4398540000000 1.0
C      1  0.4735270000000  0.4557590000000  0.4865400000000 1.0
C      1  0.6052700000000  0.4797900000000  0.4637700000000 1.0
C      1  0.4696680000000  0.4104260000000  0.4538920000000 1.0
C      1  0.5575170000000  0.3894670000000  0.5273580000000 1.0
C      1  0.5203130000000  0.4377120000000  0.6024150000000 1.0
C      1  0.4490220000000  0.5395090000000  0.3986890000000 1.0
C      1  0.5154800000000  0.5868200000000  0.5610900000000 1.0
C      1  0.4492490000000  0.5024710000000  0.5490690000000 1.0
C      1  0.5497300000000  0.5413760000000  0.4049590000000 1.0
C      1  0.5320950000000  0.5558030000000  0.4472450000000 1.0
C      1  0.5511830000000  0.4288240000000  0.5627200000000 1.0
C      1  0.5050450000000  0.4186050000000  0.4124550000000 1.0
C      1  0.5362090000000  0.4604840000000  0.5289660000000 1.0
C      1  0.4022310000000  0.4764530000000  0.5694460000000 1.0
C      1  0.4967120000000  0.4702660000000  0.4960260000000 1.0
C      1  0.4453020000000  0.4817370000000  0.5296810000000 1.0
C      1  0.5031150000000  0.3990930000000  0.5702930000000 1.0
C      1  0.6415590000000  0.4985950000000  0.5512420000000 1.0
C      1  0.3753600000000  0.5218710000000  0.4935170000000 1.0
C      1  0.5495230000000  0.4002980000000  0.5535940000000 1.0
C      1  0.4992570000000  0.3899010000000  0.4775630000000 1.0
C      1  0.4912960000000  0.6047370000000  0.4440090000000 1.0
C      1  0.5455870000000  0.5056760000000  0.5446490000000 1.0
C      1  0.5278340000000  0.4445620000000  0.5742160000000 1.0
C      1  0.5595060000000  0.5848540000000  0.5453450000000 1.0
C      1  0.5219830000000  0.3866740000000  0.4958290000000 1.0
C      1  0.4965810000000  0.5475760000000  0.4791080000000 1.0
C      1  0.3856220000000  0.5294070000000  0.5207100000000 1.0
C      1  0.5292350000000  0.5688660000000  0.5799490000000 1.0
C      1  0.4505840000000  0.4007450000000  0.4754970000000 1.0
C      1  0.4702350000000  0.5313060000000  0.5799400000000 1.0
C      1  0.5076090000000  0.5002480000000  0.4388150000000 1.0
C      1  0.5996830000000  0.5252570000000  0.4373440000000 1.0
C      1  0.5255010000000  0.5784990000000  0.4657540000000 1.0
C      1  0.4737850000000  0.3926550000000  0.4929280000000 1.0
C      1  0.4061150000000  0.5746760000000  0.5057880000000 1.0
C      1  0.5918750000000  0.5640850000000  0.5123140000000 1.0
C      1  0.5715140000000  0.4405250000000  0.4429170000000 1.0
C      1  0.5641480000000  0.5405810000000  0.5741400000000 1.0
C      1  0.4206400000000  0.4903140000000  0.4183410000000 1.0
C      1  0.4315680000000  0.6100120000000  0.5242060000000 1.0
C      1  0.5222720000000  0.5445750000000  0.5934740000000 1.0
C      1  0.6100320000000  0.5069620000000  0.5581420000000 1.0
C      1  0.4384470000000  0.4185450000000  0.5466800000000 1.0
C      1  0.4557070000000  0.4481330000000  0.5054120000000 1.0
C      1  0.4631400000000  0.5413300000000  0.5097290000000 1.0
C      1  0.5049700000000  0.5499360000000  0.4351380000000 1.0
C      1  0.5938810000000  0.5147410000000  0.5355050000000 1.0
C      1  0.4802610000000  0.4218230000000  0.5642080000000 1.0
C      1  0.5336420000000  0.6011050000000  0.5096820000000 1.0
C      1  0.5423970000000  0.4530710000000  0.4775940000000 1.0
C      1  0.5079990000000  0.4448300000000  0.4491100000000 1.0
C      1  0.5774150000000  0.4015210000000  0.5076750000000 1.0
C      1  0.4350020000000  0.4089990000000  0.4978350000000 1.0
C      1  0.5606200000000  0.5139780000000  0.4108410000000 1.0
C      1  0.5260840000000  0.4133610000000  0.4963200000000 1.0
C      1  0.4463360000000  0.4844300000000  0.5694130000000 1.0
C      1  0.4896820000000  0.4991710000000  0.5032400000000 1.0
C      1  0.4943390000000  0.5640610000000  0.4125990000000 1.0
C      1  0.4809650000000  0.4092630000000  0.5165010000000 1.0
C      1  0.5449740000000  0.4778140000000  0.5518420000000 1.0
C      1  0.5439600000000  0.4925370000000  0.4011740000000 1.0
C      1  0.5963440000000  0.4267250000000  0.5110900000000 1.0
C      1  0.4642310000000  0.4390620000000  0.5860970000000 1.0
C      1  0.5558570000000  0.4590680000000  0.4276030000000 1.0
C      1  0.4962050000000  0.4948320000000  0.3930440000000 1.0
C      1  0.5573380000000  0.5680770000000  0.5696200000000 1.0
C      1  0.4750900000000  0.5117020000000  0.6158260000000 1.0
C      1  0.5215650000000  0.4923260000000  0.4604870000000 1.0
C      1  0.4843700000000  0.4481080000000  0.5495690000000 1.0
C      1  0.4585300000000  0.5534310000000  0.5357540000000 1.0
C      1  0.5703470000000  0.4020710000000  0.4800860000000 1.0
C      1  0.5921620000000  0.5752350000000  0.4624270000000 1.0
C      1  0.6049440000000  0.5508030000000  0.4496440000000 1.0
C      1  0.4378920000000  0.5553810000000  0.4761270000000 1.0
C      1  0.3978590000000  0.4719590000000  0.4646620000000 1.0
C      1  0.4819620000000  0.4524680000000  0.4387230000000 1.0
C      1  0.5960230000000  0.5007190000000  0.5833560000000 1.0
C      1  0.4738330000000  0.4277410000000  0.4241480000000 1.0
C      1  0.4238510000000  0.5474950000000  0.5688650000000 1.0
C      1  0.5770140000000  0.5091000000000  0.4357770000000 1.0
C      1  0.4876820000000  0.5853560000000  0.5092050000000 1.0
C      1  0.5021440000000  0.5926530000000  0.4189800000000 1.0
C      1  0.5056620000000  0.5017460000000  0.5871850000000 1.0
C      1  0.5151140000000  0.4870930000000  0.4151240000000 1.0
C      1  0.5108560000000  0.4531900000000  0.5169950000000 1.0
C      1  0.5364280000000  0.5033470000000  0.5176760000000 1.0
C      1  0.4946970000000  0.5278100000000  0.5944620000000 1.0
C      1  0.4171510000000  0.4538030000000  0.4678250000000 1.0
C      1  0.4434690000000  0.5796630000000  0.4368980000000 1.0
C      1  0.5459360000000  0.5483230000000  0.4956600000000 1.0
C      1  0.5587210000000  0.5947020000000  0.4950800000000 1.0
C      1  0.5462470000000  0.5366290000000  0.4693660000000 1.0
C      1  0.4203850000000  0.5791490000000  0.4786950000000 1.0
C      1  0.4500020000000  0.5522490000000  0.5838340000000 1.0
C      1  0.5226920000000  0.3887190000000  0.5509320000000 1.0
C      1  0.4658680000000  0.5133970000000  0.5014560000000 1.0
C      1  0.4673710000000  0.5763260000000  0.5809170000000 1.0
C      1  0.4266740000000  0.4549420000000  0.4958340000000 1.0
C      1  0.5070790000000  0.4609400000000  0.5596500000000 1.0
C      1  0.4180220000000  0.5850720000000  0.5299480000000 1.0
C      1  0.5459030000000  0.5284680000000  0.5942360000000 1.0
C      1  0.4786850000000  0.5456340000000  0.3956520000000 1.0
END
