TITL C-4164232-771-24 0.503130459328576 125000 -5283.29271395134 0 0 37 (C1) n - 1
REM
REM in /home/nfs/bkarasulu/CARBON/AIRSS/Generating-Clusters/ReaxFF-fromJPCA2015/Units_Real/with-SteepDescent/Only-C1/SD-CG/Try1-3A/FIRE-CG
REM
REM
REM
REM
REM
REM ./C.cell (11c1c37f851c82e70ff6c80c92926a4b)
REM
REM compiler GCC version 9.2.1 20190827 (Red Hat 9.2.1-1)
REM options -cpp -mtune=generic -march=x86-64 -g -O0 -fpre-include=/usr/include/finclude/math-vector-fortran.h
REM seed 1207534435 -1808128109 -940772698 772577437 -375898850 -1280650903 -2147079528 44888924 -882395866 887587148 1065964948 -924404329 -982107771 -367182030 -1265644009 839345415 -425153566 -1440854312 -185545878 1498025802 1536180353 -1972675935 780194516 537590946 -1877341532 -490856242 -708470500 1039678032 617443369 -1690295767 92986577 -1331055545 -1470509793
REM
CELL 1.54180   50.00000   50.00000   50.00000   90.00000   90.00000   90.00000
LATT -1
SFAC C  
C      1  0.5178980000000  0.4462670000000  0.5231610000000 1.0
C      1  0.4907200000000  0.4913930000000  0.5583270000000 1.0
C      1  0.4733130000000  0.5472440000000  0.4461730000000 1.0
C      1  0.4755320000000  0.5004380000000  0.4431520000000 1.0
C      1  0.5452620000000  0.4585110000000  0.5163530000000 1.0
C      1  0.5614680000000  0.5257960000000  0.4901330000000 1.0
C      1  0.5303990000000  0.4626640000000  0.5426020000000 1.0
C      1  0.5684760000000  0.5279840000000  0.5199680000000 1.0
C      1  0.5151970000000  0.5290380000000  0.5750090000000 1.0
C      1  0.5574460000000  0.4974670000000  0.4798630000000 1.0
C      1  0.4941000000000  0.5159400000000  0.5709850000000 1.0
C      1  0.4908100000000  0.4706500000000  0.4683380000000 1.0
C      1  0.5323110000000  0.4938090000000  0.4630060000000 1.0
C      1  0.5025390000000  0.5162550000000  0.4930580000000 1.0
C      1  0.4446120000000  0.4673780000000  0.4941680000000 1.0
C      1  0.4910680000000  0.4475850000000  0.5104000000000 1.0
C      1  0.5554200000000  0.5223090000000  0.5446890000000 1.0
C      1  0.5190610000000  0.4867490000000  0.5548110000000 1.0
C      1  0.4501030000000  0.5254120000000  0.5060620000000 1.0
C      1  0.5082920000000  0.4923590000000  0.4820170000000 1.0
C      1  0.5514770000000  0.4780620000000  0.4980280000000 1.0
C      1  0.5241240000000  0.4860480000000  0.4357530000000 1.0
C      1  0.4914680000000  0.4436480000000  0.4797600000000 1.0
C      1  0.5424460000000  0.5454220000000  0.4809140000000 1.0
C      1  0.4401060000000  0.4900590000000  0.4754920000000 1.0
C      1  0.4571330000000  0.5196040000000  0.4505150000000 1.0
C      1  0.4947270000000  0.5531500000000  0.4628010000000 1.0
C      1  0.4940410000000  0.4802730000000  0.4393080000000 1.0
C      1  0.4280890000000  0.4525800000000  0.4811120000000 1.0
C      1  0.5145050000000  0.5561910000000  0.4824010000000 1.0
C      1  0.4586460000000  0.5042320000000  0.5220560000000 1.0
C      1  0.5344340000000  0.5117390000000  0.5633410000000 1.0
C      1  0.4975430000000  0.5413080000000  0.5038910000000 1.0
C      1  0.4680010000000  0.4839010000000  0.5381940000000 1.0
C      1  0.4424390000000  0.5167750000000  0.4761130000000 1.0
C      1  0.4685190000000  0.5482140000000  0.5102930000000 1.0
C      1  0.4682760000000  0.4635460000000  0.5177520000000 1.0
END
