TITL C-4164233-775-118 -1.6528671947405 125000 -15572.1688474822 0 0 107 (C1) n - 1
REM
REM in /home/nfs/bkarasulu/CARBON/AIRSS/Generating-Clusters/ReaxFF-fromJPCA2015/Units_Real/with-SteepDescent/Only-C1/SD-CG/Try1-3A/FIRE-CG
REM
REM
REM
REM
REM
REM ./C.cell (11c1c37f851c82e70ff6c80c92926a4b)
REM
REM compiler GCC version 9.2.1 20190827 (Red Hat 9.2.1-1)
REM options -cpp -mtune=generic -march=x86-64 -g -O0 -fpre-include=/usr/include/finclude/math-vector-fortran.h
REM seed 931765534 1078713213 1777745958 636420473 329585415 -1235263794 -925110144 -1922525350 1410063218 1040435811 563464810 -46013000 443417024 -583147659 146200132 -544916713 -1774276006 -1584005082 -2074096239 1290513613 -1696474364 -1188300069 1514938083 895808030 -1814387016 1700437117 -387816190 1819040171 -554092001 1503292880 -1687209825 295967482 -1552347939
REM
CELL 1.54180   50.00000   50.00000   50.00000   90.00000   90.00000   90.00000
LATT -1
SFAC C  
C      1  0.5081800000000  0.4140420000000  0.5071490000000 1.0
C      1  0.4344590000000  0.5321740000000  0.5406000000000 1.0
C      1  0.4537430000000  0.4277250000000  0.4906090000000 1.0
C      1  0.4644230000000  0.4426110000000  0.4345140000000 1.0
C      1  0.5161000000000  0.4988550000000  0.4163080000000 1.0
C      1  0.4903520000000  0.4283090000000  0.4400110000000 1.0
C      1  0.4121390000000  0.4595770000000  0.4940560000000 1.0
C      1  0.4828570000000  0.5886240000000  0.4650910000000 1.0
C      1  0.5305860000000  0.5419380000000  0.4549090000000 1.0
C      1  0.5097080000000  0.5784100000000  0.5269370000000 1.0
C      1  0.5810830000000  0.4722240000000  0.5325470000000 1.0
C      1  0.5937410000000  0.4981090000000  0.5359280000000 1.0
C      1  0.4230980000000  0.4945310000000  0.4616970000000 1.0
C      1  0.5430490000000  0.5169020000000  0.5137110000000 1.0
C      1  0.4513450000000  0.4818680000000  0.4344330000000 1.0
C      1  0.5007000000000  0.5178090000000  0.5424120000000 1.0
C      1  0.4726970000000  0.4738320000000  0.5703400000000 1.0
C      1  0.5115480000000  0.5316220000000  0.4753170000000 1.0
C      1  0.4515900000000  0.5318860000000  0.4383080000000 1.0
C      1  0.4694450000000  0.4726860000000  0.4612590000000 1.0
C      1  0.4929300000000  0.5013640000000  0.5194720000000 1.0
C      1  0.4708240000000  0.4981570000000  0.4768500000000 1.0
C      1  0.4667830000000  0.4009330000000  0.4802680000000 1.0
C      1  0.5341630000000  0.5425980000000  0.5838100000000 1.0
C      1  0.5794540000000  0.5221650000000  0.4890870000000 1.0
C      1  0.5294720000000  0.4406880000000  0.4373420000000 1.0
C      1  0.5361620000000  0.4545070000000  0.4961050000000 1.0
C      1  0.4698290000000  0.4960190000000  0.5052110000000 1.0
C      1  0.4411240000000  0.5087960000000  0.4800990000000 1.0
C      1  0.5073400000000  0.4203500000000  0.4639270000000 1.0
C      1  0.4989120000000  0.6080980000000  0.4828210000000 1.0
C      1  0.5330730000000  0.5837090000000  0.4826230000000 1.0
C      1  0.5016180000000  0.4698090000000  0.5670580000000 1.0
C      1  0.4477100000000  0.3854400000000  0.4893440000000 1.0
C      1  0.5509300000000  0.4267020000000  0.5306630000000 1.0
C      1  0.5573120000000  0.5081680000000  0.4266450000000 1.0
C      1  0.4331980000000  0.5427990000000  0.5150820000000 1.0
C      1  0.4938990000000  0.5462710000000  0.4940910000000 1.0
C      1  0.5485520000000  0.5637340000000  0.4704400000000 1.0
C      1  0.5409160000000  0.4438420000000  0.5517910000000 1.0
C      1  0.5126260000000  0.4446220000000  0.5566940000000 1.0
C      1  0.5147110000000  0.4367170000000  0.4881600000000 1.0
C      1  0.4443500000000  0.4277120000000  0.5186030000000 1.0
C      1  0.4505500000000  0.5546250000000  0.5523670000000 1.0
C      1  0.4346960000000  0.4784950000000  0.5420520000000 1.0
C      1  0.4539890000000  0.4587640000000  0.5536360000000 1.0
C      1  0.4181410000000  0.4416890000000  0.5161580000000 1.0
C      1  0.5386790000000  0.5130880000000  0.5857160000000 1.0
C      1  0.5346970000000  0.5921340000000  0.5734030000000 1.0
C      1  0.5045040000000  0.4519400000000  0.4299620000000 1.0
C      1  0.5635910000000  0.4679740000000  0.4600270000000 1.0
C      1  0.5346730000000  0.4049690000000  0.5217670000000 1.0
C      1  0.5578750000000  0.4978720000000  0.5699520000000 1.0
C      1  0.4780940000000  0.6081570000000  0.5017820000000 1.0
C      1  0.5564230000000  0.5587670000000  0.5388370000000 1.0
C      1  0.4521040000000  0.5842450000000  0.4552840000000 1.0
C      1  0.4807880000000  0.5194220000000  0.4254700000000 1.0
C      1  0.4938250000000  0.5538540000000  0.5246170000000 1.0
C      1  0.4350270000000  0.5051280000000  0.4371230000000 1.0
C      1  0.5580820000000  0.4702890000000  0.5526510000000 1.0
C      1  0.5570210000000  0.5646790000000  0.5109970000000 1.0
C      1  0.4728320000000  0.4683580000000  0.5074790000000 1.0
C      1  0.5682460000000  0.5517740000000  0.4893970000000 1.0
C      1  0.5534180000000  0.5085400000000  0.4883770000000 1.0
C      1  0.5226140000000  0.4692160000000  0.5163990000000 1.0
C      1  0.5184380000000  0.5963590000000  0.5019890000000 1.0
C      1  0.5427890000000  0.4854740000000  0.4191320000000 1.0
C      1  0.4932330000000  0.4327840000000  0.5358300000000 1.0
C      1  0.4334480000000  0.5824190000000  0.4779560000000 1.0
C      1  0.5133460000000  0.4941900000000  0.5557550000000 1.0
C      1  0.4449130000000  0.5351180000000  0.4690450000000 1.0
C      1  0.5756960000000  0.5139550000000  0.5540150000000 1.0
C      1  0.4476650000000  0.5623190000000  0.4363490000000 1.0
C      1  0.4859510000000  0.4927100000000  0.4134340000000 1.0
C      1  0.5345980000000  0.4838990000000  0.5385890000000 1.0
C      1  0.4879720000000  0.5668310000000  0.4787100000000 1.0
C      1  0.4963570000000  0.4573360000000  0.5196430000000 1.0
C      1  0.5730720000000  0.4681290000000  0.5058260000000 1.0
C      1  0.5777920000000  0.4547350000000  0.4811480000000 1.0
C      1  0.4629770000000  0.4350240000000  0.5397100000000 1.0
C      1  0.5903200000000  0.5045480000000  0.5083960000000 1.0
C      1  0.4694610000000  0.5674850000000  0.5334520000000 1.0
C      1  0.5083400000000  0.5237620000000  0.4289610000000 1.0
C      1  0.4976340000000  0.4707470000000  0.4524010000000 1.0
C      1  0.4238130000000  0.4645510000000  0.4671280000000 1.0
C      1  0.5500530000000  0.4595220000000  0.4346470000000 1.0
C      1  0.4394490000000  0.4452510000000  0.4505510000000 1.0
C      1  0.5124050000000  0.5923120000000  0.5529390000000 1.0
C      1  0.4657570000000  0.5483500000000  0.5776750000000 1.0
C      1  0.5606570000000  0.5300110000000  0.5343420000000 1.0
C      1  0.5483270000000  0.5258680000000  0.4389790000000 1.0
C      1  0.4617610000000  0.4546780000000  0.4846250000000 1.0
C      1  0.4977870000000  0.3999090000000  0.4827350000000 1.0
C      1  0.5168150000000  0.4866390000000  0.4648140000000 1.0
C      1  0.4322060000000  0.5534330000000  0.4884620000000 1.0
C      1  0.4991300000000  0.5070570000000  0.4712890000000 1.0
C      1  0.4820670000000  0.5239140000000  0.5800390000000 1.0
C      1  0.5612470000000  0.4414300000000  0.5017670000000 1.0
C      1  0.4420750000000  0.5046900000000  0.5516220000000 1.0
C      1  0.4642400000000  0.5016200000000  0.5701040000000 1.0
C      1  0.5114840000000  0.5251860000000  0.5877930000000 1.0
C      1  0.4689450000000  0.4687910000000  0.4166640000000 1.0
C      1  0.5149600000000  0.5196280000000  0.5171650000000 1.0
C      1  0.5449340000000  0.4876860000000  0.4702170000000 1.0
C      1  0.4635730000000  0.5965670000000  0.5231280000000 1.0
C      1  0.5426120000000  0.5641040000000  0.5652890000000 1.0
C      1  0.4150990000000  0.4700610000000  0.5219050000000 1.0
END
