TITL C-4164241-3639-561 -2.33740538487042 125000 -14664.8617200025 0 0 98 (C1) n - 1
REM
REM in /home/nfs/bkarasulu/CARBON/AIRSS/Generating-Clusters/ReaxFF-fromJPCA2015/Units_Real/with-SteepDescent/Only-C1/SD-CG/Try1-3A/FIRE-CG
REM
REM
REM
REM
REM
REM ./C.cell (11c1c37f851c82e70ff6c80c92926a4b)
REM
REM compiler GCC version 9.2.1 20190827 (Red Hat 9.2.1-1)
REM options -cpp -mtune=generic -march=x86-64 -g -O0 -fpre-include=/usr/include/finclude/math-vector-fortran.h
REM seed -1156022545 -2009880750 -114130395 1087856399 997926160 -775773315 -898000671 1280214985 -2083666318 -1229679341 1571219590 -1805687904 -1233468828 1628535733 -315258643 -725591971 -1101362797 -1185532166 2014125270 -179138823 -1576002347 1568195443 -856833862 -1049154646 1268956896 -1573085303 2126198148 569684436 575734444 -617255216 -295855667 -1762347467 1257394208
REM
CELL 1.54180   50.00000   50.00000   50.00000   90.00000   90.00000   90.00000
LATT -1
SFAC C  
C      1  0.5147830000000  0.4945830000000  0.5480210000000 1.0
C      1  0.5130180000000  0.4606590000000  0.4207140000000 1.0
C      1  0.5168470000000  0.5642160000000  0.4456640000000 1.0
C      1  0.4888800000000  0.5721800000000  0.5389690000000 1.0
C      1  0.4809770000000  0.4954630000000  0.4955850000000 1.0
C      1  0.4854890000000  0.4233470000000  0.4862330000000 1.0
C      1  0.5733790000000  0.4651500000000  0.5065410000000 1.0
C      1  0.3993860000000  0.4741690000000  0.5130440000000 1.0
C      1  0.5654560000000  0.4747390000000  0.4483740000000 1.0
C      1  0.4411400000000  0.4921030000000  0.5795900000000 1.0
C      1  0.5295840000000  0.4510600000000  0.5615200000000 1.0
C      1  0.4445070000000  0.5528860000000  0.5192090000000 1.0
C      1  0.5987220000000  0.5136320000000  0.5331870000000 1.0
C      1  0.5878520000000  0.5348160000000  0.4870760000000 1.0
C      1  0.5650260000000  0.4672490000000  0.5355200000000 1.0
C      1  0.4629630000000  0.5562810000000  0.5417260000000 1.0
C      1  0.4869840000000  0.5634680000000  0.4379300000000 1.0
C      1  0.5244190000000  0.4873360000000  0.4262050000000 1.0
C      1  0.4820670000000  0.5076850000000  0.5911300000000 1.0
C      1  0.5694440000000  0.5559610000000  0.4985080000000 1.0
C      1  0.5211160000000  0.4428680000000  0.4428570000000 1.0
C      1  0.4710080000000  0.4283340000000  0.4603980000000 1.0
C      1  0.4804690000000  0.5620580000000  0.4824470000000 1.0
C      1  0.4501360000000  0.4496630000000  0.4628370000000 1.0
C      1  0.5475300000000  0.4541980000000  0.4628400000000 1.0
C      1  0.5754790000000  0.5152530000000  0.5516020000000 1.0
C      1  0.5230010000000  0.5492660000000  0.5136220000000 1.0
C      1  0.4754370000000  0.4924110000000  0.4039070000000 1.0
C      1  0.5475030000000  0.4447560000000  0.5407870000000 1.0
C      1  0.5098670000000  0.5328030000000  0.4083950000000 1.0
C      1  0.5608300000000  0.4898070000000  0.5534530000000 1.0
C      1  0.5971150000000  0.5115180000000  0.5034820000000 1.0
C      1  0.3972230000000  0.4922960000000  0.5299990000000 1.0
C      1  0.5346570000000  0.4909460000000  0.5674770000000 1.0
C      1  0.5575680000000  0.4458150000000  0.4920590000000 1.0
C      1  0.5539550000000  0.5128110000000  0.4817680000000 1.0
C      1  0.5092500000000  0.5008740000000  0.5062370000000 1.0
C      1  0.5043620000000  0.5290180000000  0.5093830000000 1.0
C      1  0.4704040000000  0.5089180000000  0.5379310000000 1.0
C      1  0.4358450000000  0.4993510000000  0.4537750000000 1.0
C      1  0.4733950000000  0.5328720000000  0.4378570000000 1.0
C      1  0.4377050000000  0.4517480000000  0.4899870000000 1.0
C      1  0.5293570000000  0.4727220000000  0.4722420000000 1.0
C      1  0.4476840000000  0.4722970000000  0.4454360000000 1.0
C      1  0.4954830000000  0.4326270000000  0.4467760000000 1.0
C      1  0.4597590000000  0.4723610000000  0.4187040000000 1.0
C      1  0.5755050000000  0.5200230000000  0.4643380000000 1.0
C      1  0.4864400000000  0.4657830000000  0.4084130000000 1.0
C      1  0.4620400000000  0.4906550000000  0.5159990000000 1.0
C      1  0.4472520000000  0.5265440000000  0.4504280000000 1.0
C      1  0.5112670000000  0.4795180000000  0.5262580000000 1.0
C      1  0.4935570000000  0.5855530000000  0.5142060000000 1.0
C      1  0.5292340000000  0.5438700000000  0.4285010000000 1.0
C      1  0.5362690000000  0.5550540000000  0.5613090000000 1.0
C      1  0.4150330000000  0.5019090000000  0.4746790000000 1.0
C      1  0.5179820000000  0.4691220000000  0.5789490000000 1.0
C      1  0.4127620000000  0.4595980000000  0.4979520000000 1.0
C      1  0.4373690000000  0.5424870000000  0.4728520000000 1.0
C      1  0.5179550000000  0.5069730000000  0.4475680000000 1.0
C      1  0.5898410000000  0.4849400000000  0.4921700000000 1.0
C      1  0.5234290000000  0.4096780000000  0.5103440000000 1.0
C      1  0.5033260000000  0.4674130000000  0.4693310000000 1.0
C      1  0.4963570000000  0.5370910000000  0.4840360000000 1.0
C      1  0.4230850000000  0.5001660000000  0.5597580000000 1.0
C      1  0.4492740000000  0.4629200000000  0.5159810000000 1.0
C      1  0.4821180000000  0.4247860000000  0.5649300000000 1.0
C      1  0.5845510000000  0.4896330000000  0.4639150000000 1.0
C      1  0.4226310000000  0.5334630000000  0.5179740000000 1.0
C      1  0.4892530000000  0.4796290000000  0.5867880000000 1.0
C      1  0.5446820000000  0.4306980000000  0.5128730000000 1.0
C      1  0.5661050000000  0.5499020000000  0.5251650000000 1.0
C      1  0.4863520000000  0.4911000000000  0.4679330000000 1.0
C      1  0.4994000000000  0.5847940000000  0.4864910000000 1.0
C      1  0.4836490000000  0.5200620000000  0.4121690000000 1.0
C      1  0.4585620000000  0.4427040000000  0.5349090000000 1.0
C      1  0.4734340000000  0.5841480000000  0.4322700000000 1.0
C      1  0.5016670000000  0.4541830000000  0.5191440000000 1.0
C      1  0.5630090000000  0.5435210000000  0.5509150000000 1.0
C      1  0.4864260000000  0.4302890000000  0.5321740000000 1.0
C      1  0.5527390000000  0.4941440000000  0.4303480000000 1.0
C      1  0.5403610000000  0.5612650000000  0.4924410000000 1.0
C      1  0.5239860000000  0.5742630000000  0.4720330000000 1.0
C      1  0.4568420000000  0.5302030000000  0.5534910000000 1.0
C      1  0.5175830000000  0.5632230000000  0.5395600000000 1.0
C      1  0.5211410000000  0.5420230000000  0.5807450000000 1.0
C      1  0.5336490000000  0.4962060000000  0.4865980000000 1.0
C      1  0.4938640000000  0.5180960000000  0.4601850000000 1.0
C      1  0.4975690000000  0.5160790000000  0.5465340000000 1.0
C      1  0.4942330000000  0.4093140000000  0.5105670000000 1.0
C      1  0.4101320000000  0.5157550000000  0.5397270000000 1.0
C      1  0.4608790000000  0.4444410000000  0.5648550000000 1.0
C      1  0.4525510000000  0.5590920000000  0.4910310000000 1.0
C      1  0.4995540000000  0.5268680000000  0.5754450000000 1.0
C      1  0.4178430000000  0.5280690000000  0.4899380000000 1.0
C      1  0.4971130000000  0.4493400000000  0.4919370000000 1.0
C      1  0.4560500000000  0.5173460000000  0.5809430000000 1.0
C      1  0.5433880000000  0.5210170000000  0.4416310000000 1.0
C      1  0.4636450000000  0.4704740000000  0.5802640000000 1.0
END
