TITL C-4164241-3639-268 20.0956454943437 125000 -19897.1342566242 0 0 134 (C1) n - 1
REM
REM in /home/nfs/bkarasulu/CARBON/AIRSS/Generating-Clusters/ReaxFF-fromJPCA2015/Units_Real/with-SteepDescent/Only-C1/SD-CG/Try1-3A/FIRE-CG
REM
REM
REM
REM
REM
REM ./C.cell (11c1c37f851c82e70ff6c80c92926a4b)
REM
REM compiler GCC version 9.2.1 20190827 (Red Hat 9.2.1-1)
REM options -cpp -mtune=generic -march=x86-64 -g -O0 -fpre-include=/usr/include/finclude/math-vector-fortran.h
REM seed -448639048 590929952 1127753146 1127645055 1326683833 -425803148 -1311526001 -1309257211 -837044151 1421787657 -425059604 606472478 -70275141 260721691 1959580297 -2096196582 928460244 -401696364 213786747 -1897705359 -1289654381 1913110380 -1637431688 2107706634 1303523069 875120113 103212170 -36794037 -211737278 -1757086315 1374001312 -2061684871 -1691558200
REM
CELL 1.54180   50.00000   50.00000   50.00000   90.00000   90.00000   90.00000
LATT -1
SFAC C  
C      1  0.5213800000000  0.4812160000000  0.5155520000000 1.0
C      1  0.4812560000000  0.5382520000000  0.5949260000000 1.0
C      1  0.5809430000000  0.4729710000000  0.4696000000000 1.0
C      1  0.4424230000000  0.5233080000000  0.5735700000000 1.0
C      1  0.5289080000000  0.5513090000000  0.4705050000000 1.0
C      1  0.5043420000000  0.3945530000000  0.5342030000000 1.0
C      1  0.5543850000000  0.4349320000000  0.4286100000000 1.0
C      1  0.5638960000000  0.4990990000000  0.5197560000000 1.0
C      1  0.4412680000000  0.5242840000000  0.4356390000000 1.0
C      1  0.4354550000000  0.5401330000000  0.4607640000000 1.0
C      1  0.5303570000000  0.4505470000000  0.4727320000000 1.0
C      1  0.4513000000000  0.5831950000000  0.5019880000000 1.0
C      1  0.5333110000000  0.5397830000000  0.4249170000000 1.0
C      1  0.5019480000000  0.5202380000000  0.4913020000000 1.0
C      1  0.5026110000000  0.5657050000000  0.4760800000000 1.0
C      1  0.4497930000000  0.5135790000000  0.5192120000000 1.0
C      1  0.5546170000000  0.5883060000000  0.5140620000000 1.0
C      1  0.5334910000000  0.4365530000000  0.5428710000000 1.0
C      1  0.5770350000000  0.4530180000000  0.4244030000000 1.0
C      1  0.4381110000000  0.4558240000000  0.5809140000000 1.0
C      1  0.5759390000000  0.4504420000000  0.5186450000000 1.0
C      1  0.4784820000000  0.4075080000000  0.5351350000000 1.0
C      1  0.4964500000000  0.4804010000000  0.4677670000000 1.0
C      1  0.5531990000000  0.4464240000000  0.5626890000000 1.0
C      1  0.4710400000000  0.4550520000000  0.5096890000000 1.0
C      1  0.4698760000000  0.5593500000000  0.5788480000000 1.0
C      1  0.4836550000000  0.5842890000000  0.5438210000000 1.0
C      1  0.5221300000000  0.6031970000000  0.4793200000000 1.0
C      1  0.5547090000000  0.5666690000000  0.4725320000000 1.0
C      1  0.5486080000000  0.5916830000000  0.4853860000000 1.0
C      1  0.4866520000000  0.4238400000000  0.4859110000000 1.0
C      1  0.5434490000000  0.5603790000000  0.5588990000000 1.0
C      1  0.5493450000000  0.4751620000000  0.4751640000000 1.0
C      1  0.4090420000000  0.4971450000000  0.4712810000000 1.0
C      1  0.4708940000000  0.5672860000000  0.4288560000000 1.0
C      1  0.4661270000000  0.5948960000000  0.4755960000000 1.0
C      1  0.4780630000000  0.4263190000000  0.4225640000000 1.0
C      1  0.5035520000000  0.4166270000000  0.4359290000000 1.0
C      1  0.4614090000000  0.4504480000000  0.4262270000000 1.0
C      1  0.4021030000000  0.5080220000000  0.5169990000000 1.0
C      1  0.4635270000000  0.5387520000000  0.4202640000000 1.0
C      1  0.4923830000000  0.5627650000000  0.5265400000000 1.0
C      1  0.4739360000000  0.4894420000000  0.4541950000000 1.0
C      1  0.4445900000000  0.4376250000000  0.4447600000000 1.0
C      1  0.5472240000000  0.5064720000000  0.4652120000000 1.0
C      1  0.5814820000000  0.4751010000000  0.5289720000000 1.0
C      1  0.4540040000000  0.4989250000000  0.4945650000000 1.0
C      1  0.4704380000000  0.4275480000000  0.5587990000000 1.0
C      1  0.4674800000000  0.4103770000000  0.5085330000000 1.0
C      1  0.5147610000000  0.5608630000000  0.4279180000000 1.0
C      1  0.4601380000000  0.5494740000000  0.4694860000000 1.0
C      1  0.5305720000000  0.5219100000000  0.4009710000000 1.0
C      1  0.5309390000000  0.4244930000000  0.4323970000000 1.0
C      1  0.5119950000000  0.4676340000000  0.4242660000000 1.0
C      1  0.4909930000000  0.4680550000000  0.5417170000000 1.0
C      1  0.5284300000000  0.3965850000000  0.5169590000000 1.0
C      1  0.5318510000000  0.5979840000000  0.5279000000000 1.0
C      1  0.4587890000000  0.5731190000000  0.4541800000000 1.0
C      1  0.4216980000000  0.5423610000000  0.4860620000000 1.0
C      1  0.4829620000000  0.5226030000000  0.4089460000000 1.0
C      1  0.4988290000000  0.5919500000000  0.4634850000000 1.0
C      1  0.4621650000000  0.4128800000000  0.4437750000000 1.0
C      1  0.4656350000000  0.4630670000000  0.5922920000000 1.0
C      1  0.5550440000000  0.5260890000000  0.3915520000000 1.0
C      1  0.4567580000000  0.4705940000000  0.4940980000000 1.0
C      1  0.5055090000000  0.4889490000000  0.5938470000000 1.0
C      1  0.4815110000000  0.5313030000000  0.4725750000000 1.0
C      1  0.4630950000000  0.5158750000000  0.5932230000000 1.0
C      1  0.4161340000000  0.4579520000000  0.5132730000000 1.0
C      1  0.5146510000000  0.4537800000000  0.5259230000000 1.0
C      1  0.4335020000000  0.4600920000000  0.5375960000000 1.0
C      1  0.5883810000000  0.4692880000000  0.4446040000000 1.0
C      1  0.4215810000000  0.4801940000000  0.4534490000000 1.0
C      1  0.5275610000000  0.5323010000000  0.5294310000000 1.0
C      1  0.5713820000000  0.4894140000000  0.5744390000000 1.0
C      1  0.4993300000000  0.5768110000000  0.5023620000000 1.0
C      1  0.4266280000000  0.5041440000000  0.5591690000000 1.0
C      1  0.5106580000000  0.5363050000000  0.5895980000000 1.0
C      1  0.5840300000000  0.5360550000000  0.5402630000000 1.0
C      1  0.5387330000000  0.4173490000000  0.4982030000000 1.0
C      1  0.6041760000000  0.5303490000000  0.5204180000000 1.0
C      1  0.5496470000000  0.5105100000000  0.5687080000000 1.0
C      1  0.5085890000000  0.4580040000000  0.5903140000000 1.0
C      1  0.5292790000000  0.4075710000000  0.5435390000000 1.0
C      1  0.5594150000000  0.4736490000000  0.4156700000000 1.0
C      1  0.4867930000000  0.4091630000000  0.4593300000000 1.0
C      1  0.5474540000000  0.4807220000000  0.5037800000000 1.0
C      1  0.5188720000000  0.5598820000000  0.5740230000000 1.0
C      1  0.4750070000000  0.5169110000000  0.5355120000000 1.0
C      1  0.4882020000000  0.4945830000000  0.5399280000000 1.0
C      1  0.6067460000000  0.5093390000000  0.4964340000000 1.0
C      1  0.5322380000000  0.5266420000000  0.4521560000000 1.0
C      1  0.4838820000000  0.4436840000000  0.5826220000000 1.0
C      1  0.4986750000000  0.5352000000000  0.5351690000000 1.0
C      1  0.4564710000000  0.5859390000000  0.5311260000000 1.0
C      1  0.5996140000000  0.4907520000000  0.4773280000000 1.0
C      1  0.5334580000000  0.4790500000000  0.4119780000000 1.0
C      1  0.5927410000000  0.5475480000000  0.5018500000000 1.0
C      1  0.5404760000000  0.5710620000000  0.5321670000000 1.0
C      1  0.5287640000000  0.5313510000000  0.4989340000000 1.0
C      1  0.4388020000000  0.4958240000000  0.4339720000000 1.0
C      1  0.4238380000000  0.4398560000000  0.4893300000000 1.0
C      1  0.4427090000000  0.4278540000000  0.5721440000000 1.0
C      1  0.5770900000000  0.4670500000000  0.5570130000000 1.0
C      1  0.5340910000000  0.4526910000000  0.5803380000000 1.0
C      1  0.4926180000000  0.4824580000000  0.4109720000000 1.0
C      1  0.4635110000000  0.5098140000000  0.4707070000000 1.0
C      1  0.5125640000000  0.6029360000000  0.5064220000000 1.0
C      1  0.5228320000000  0.5105920000000  0.5872360000000 1.0
C      1  0.4767730000000  0.4903110000000  0.5966760000000 1.0
C      1  0.5719760000000  0.5458160000000  0.4832960000000 1.0
C      1  0.4932000000000  0.5741890000000  0.5692220000000 1.0
C      1  0.4024850000000  0.4817960000000  0.5076520000000 1.0
C      1  0.4261260000000  0.4748130000000  0.5612310000000 1.0
C      1  0.4632120000000  0.4527640000000  0.5372660000000 1.0
C      1  0.5421020000000  0.5084040000000  0.5387550000000 1.0
C      1  0.5781000000000  0.5337570000000  0.3876110000000 1.0
C      1  0.4259000000000  0.5131420000000  0.5326200000000 1.0
C      1  0.5036070000000  0.5065480000000  0.3981600000000 1.0
C      1  0.4393230000000  0.5631600000000  0.5370830000000 1.0
C      1  0.5618610000000  0.4320710000000  0.5074490000000 1.0
C      1  0.5637640000000  0.5394310000000  0.5596130000000 1.0
C      1  0.5164170000000  0.4371940000000  0.4949840000000 1.0
C      1  0.4472340000000  0.5498290000000  0.5621410000000 1.0
C      1  0.5565220000000  0.5191030000000  0.4895950000000 1.0
C      1  0.4270070000000  0.4509310000000  0.4626920000000 1.0
C      1  0.4970930000000  0.5803060000000  0.4330720000000 1.0
C      1  0.5113970000000  0.4603940000000  0.4533950000000 1.0
C      1  0.5031050000000  0.4921450000000  0.4945650000000 1.0
C      1  0.4337090000000  0.5603870000000  0.5063010000000 1.0
C      1  0.4660190000000  0.4791230000000  0.4269290000000 1.0
C      1  0.4701030000000  0.4481680000000  0.4826210000000 1.0
C      1  0.4404210000000  0.4177570000000  0.5004500000000 1.0
C      1  0.4031270000000  0.5190460000000  0.4888390000000 1.0
END
