TITL C-4164232-771-120 0.147751778538371 125000 -13538.9150682399 0 0 91 (C1) n - 1
REM
REM in /home/nfs/bkarasulu/CARBON/AIRSS/Generating-Clusters/ReaxFF-fromJPCA2015/Units_Real/with-SteepDescent/Only-C1/SD-CG/Try1-3A/FIRE-CG
REM
REM
REM
REM
REM
REM ./C.cell (11c1c37f851c82e70ff6c80c92926a4b)
REM
REM compiler GCC version 9.2.1 20190827 (Red Hat 9.2.1-1)
REM options -cpp -mtune=generic -march=x86-64 -g -O0 -fpre-include=/usr/include/finclude/math-vector-fortran.h
REM seed 352934467 1240284552 -1921256348 -30648517 -357785353 -209376812 1048382883 -389453764 770313720 -1090073885 1489411442 -222041191 1062522576 -1306213752 615946 -216937704 642396671 1098712802 1583236925 1564391680 1534415237 -351728773 89288207 -1767003370 -1743555530 1613454756 -1940614709 324139286 -1660828576 -279641484 84032702 -85106185 655755670
REM
CELL 1.54180   50.00000   50.00000   50.00000   90.00000   90.00000   90.00000
LATT -1
SFAC C  
C      1  0.5673850000000  0.5150640000000  0.5222120000000 1.0
C      1  0.5612680000000  0.5534570000000  0.4817220000000 1.0
C      1  0.5381600000000  0.4700450000000  0.4630940000000 1.0
C      1  0.5061420000000  0.4790520000000  0.5012430000000 1.0
C      1  0.5352420000000  0.4339020000000  0.5365200000000 1.0
C      1  0.4488080000000  0.4808630000000  0.5679340000000 1.0
C      1  0.4283660000000  0.4947350000000  0.5211940000000 1.0
C      1  0.4792280000000  0.4825250000000  0.5326860000000 1.0
C      1  0.5365220000000  0.5067550000000  0.4268050000000 1.0
C      1  0.5411270000000  0.4949220000000  0.4802350000000 1.0
C      1  0.5164550000000  0.5441490000000  0.4719750000000 1.0
C      1  0.4628950000000  0.4291130000000  0.4751370000000 1.0
C      1  0.4709240000000  0.5747020000000  0.5332260000000 1.0
C      1  0.4405550000000  0.4580130000000  0.5513320000000 1.0
C      1  0.4682700000000  0.4922920000000  0.4299110000000 1.0
C      1  0.5482500000000  0.4754260000000  0.5331210000000 1.0
C      1  0.4979070000000  0.4609790000000  0.5812760000000 1.0
C      1  0.4317670000000  0.5152550000000  0.4557910000000 1.0
C      1  0.5114460000000  0.4433480000000  0.5474360000000 1.0
C      1  0.4157270000000  0.4728410000000  0.5052940000000 1.0
C      1  0.5556230000000  0.5219960000000  0.4437600000000 1.0
C      1  0.4236960000000  0.4536450000000  0.5268720000000 1.0
C      1  0.5115360000000  0.5678310000000  0.4377350000000 1.0
C      1  0.5201800000000  0.4897620000000  0.5622490000000 1.0
C      1  0.5062420000000  0.4269900000000  0.4902130000000 1.0
C      1  0.4862650000000  0.4541340000000  0.5360940000000 1.0
C      1  0.5309140000000  0.4793250000000  0.4348090000000 1.0
C      1  0.4712420000000  0.4672910000000  0.5778710000000 1.0
C      1  0.5123270000000  0.4459360000000  0.4676330000000 1.0
C      1  0.4775970000000  0.5632210000000  0.4878300000000 1.0
C      1  0.5167800000000  0.5044460000000  0.4918190000000 1.0
C      1  0.4641050000000  0.5464720000000  0.5335360000000 1.0
C      1  0.4752170000000  0.4991920000000  0.4779170000000 1.0
C      1  0.4573870000000  0.4962000000000  0.5187440000000 1.0
C      1  0.5788380000000  0.4542930000000  0.5081060000000 1.0
C      1  0.5666810000000  0.5051990000000  0.4958120000000 1.0
C      1  0.5677740000000  0.4613170000000  0.4610360000000 1.0
C      1  0.5443500000000  0.5436220000000  0.4603030000000 1.0
C      1  0.4399480000000  0.4927010000000  0.4403550000000 1.0
C      1  0.4404650000000  0.4656330000000  0.4549550000000 1.0
C      1  0.5051030000000  0.4706190000000  0.4261590000000 1.0
C      1  0.4497340000000  0.5125070000000  0.5653500000000 1.0
C      1  0.4637580000000  0.4214940000000  0.5226960000000 1.0
C      1  0.4610780000000  0.5535740000000  0.4525930000000 1.0
C      1  0.4945070000000  0.5249580000000  0.5495460000000 1.0
C      1  0.5421730000000  0.4443760000000  0.4941220000000 1.0
C      1  0.4797960000000  0.5377400000000  0.5052260000000 1.0
C      1  0.5064500000000  0.5722110000000  0.4688800000000 1.0
C      1  0.4993230000000  0.4980420000000  0.5444790000000 1.0
C      1  0.4185590000000  0.5231460000000  0.5247990000000 1.0
C      1  0.4244690000000  0.4688900000000  0.4781550000000 1.0
C      1  0.5610400000000  0.4496040000000  0.5322000000000 1.0
C      1  0.4641170000000  0.4467080000000  0.4522160000000 1.0
C      1  0.5701620000000  0.4421060000000  0.4830730000000 1.0
C      1  0.4925020000000  0.4942860000000  0.4133130000000 1.0
C      1  0.5063580000000  0.5306690000000  0.4949020000000 1.0
C      1  0.5302380000000  0.5161170000000  0.5706770000000 1.0
C      1  0.5787530000000  0.5300390000000  0.4808350000000 1.0
C      1  0.4356810000000  0.5343300000000  0.4790560000000 1.0
C      1  0.4931010000000  0.4522630000000  0.4475730000000 1.0
C      1  0.5571610000000  0.5198450000000  0.5610400000000 1.0
C      1  0.5114820000000  0.5171380000000  0.4162680000000 1.0
C      1  0.5203250000000  0.5622780000000  0.5472830000000 1.0
C      1  0.5126870000000  0.5389350000000  0.5644870000000 1.0
C      1  0.4614510000000  0.5163830000000  0.4965820000000 1.0
C      1  0.5453080000000  0.5689950000000  0.5020460000000 1.0
C      1  0.5437330000000  0.5599710000000  0.5301290000000 1.0
C      1  0.4515980000000  0.5637560000000  0.4762160000000 1.0
C      1  0.5287370000000  0.4235880000000  0.5095480000000 1.0
C      1  0.4125470000000  0.5368710000000  0.5002250000000 1.0
C      1  0.4762330000000  0.5362130000000  0.4383630000000 1.0
C      1  0.5616100000000  0.5383190000000  0.5380120000000 1.0
C      1  0.5793190000000  0.5123920000000  0.4578450000000 1.0
C      1  0.5225690000000  0.4593470000000  0.5661370000000 1.0
C      1  0.5016890000000  0.5448160000000  0.4231860000000 1.0
C      1  0.5863810000000  0.4793370000000  0.4948410000000 1.0
C      1  0.4803750000000  0.5083510000000  0.4512290000000 1.0
C      1  0.4428820000000  0.4384090000000  0.5113000000000 1.0
C      1  0.4801890000000  0.4737360000000  0.4907100000000 1.0
C      1  0.4588220000000  0.4531190000000  0.4921110000000 1.0
C      1  0.5642780000000  0.4975800000000  0.5429550000000 1.0
C      1  0.4732540000000  0.5278440000000  0.5682390000000 1.0
C      1  0.4404650000000  0.5324440000000  0.5441800000000 1.0
C      1  0.5224850000000  0.5839440000000  0.4922880000000 1.0
C      1  0.5853810000000  0.4837630000000  0.4660520000000 1.0
C      1  0.5313020000000  0.4675960000000  0.5102150000000 1.0
C      1  0.5000180000000  0.5803010000000  0.5372490000000 1.0
C      1  0.5013970000000  0.5926800000000  0.5106760000000 1.0
C      1  0.4791520000000  0.4181060000000  0.4971100000000 1.0
C      1  0.4729940000000  0.5841980000000  0.5047520000000 1.0
C      1  0.4636620000000  0.4394220000000  0.5470860000000 1.0
END
