TITL C-4164237-1827-490 32.154347039331 125000 -22432.9854701635 0 0 151 (C1) n - 1
REM
REM in /home/nfs/bkarasulu/CARBON/AIRSS/Generating-Clusters/ReaxFF-fromJPCA2015/Units_Real/with-SteepDescent/Only-C1/SD-CG/Try1-3A/FIRE-CG
REM
REM
REM
REM
REM
REM ./C.cell (11c1c37f851c82e70ff6c80c92926a4b)
REM
REM compiler GCC version 9.2.1 20190827 (Red Hat 9.2.1-1)
REM options -cpp -mtune=generic -march=x86-64 -g -O0 -fpre-include=/usr/include/finclude/math-vector-fortran.h
REM seed -569320598 949297796 2088925041 991453596 13689625 1744300426 1660037543 -960548857 1370139627 -1990657668 -1919223115 819404685 -172204212 1644812876 1472871296 -1002270847 594282904 -147346989 349948474 -1395307096 585558129 1285803463 805158400 483829719 1441256083 -846708186 -1583764349 -1447295548 -782809314 369930244 1625997676 -777753457 1154461800
REM
CELL 1.54180   50.00000   50.00000   50.00000   90.00000   90.00000   90.00000
LATT -1
SFAC C  
C      1  0.4896340000000  0.4995530000000  0.5591750000000 1.0
C      1  0.4346550000000  0.5247630000000  0.5532200000000 1.0
C      1  0.4263810000000  0.5309950000000  0.4373400000000 1.0
C      1  0.4490450000000  0.5207130000000  0.4215200000000 1.0
C      1  0.5291030000000  0.4166710000000  0.5086780000000 1.0
C      1  0.4998210000000  0.5484710000000  0.4526980000000 1.0
C      1  0.4292980000000  0.4256820000000  0.5404940000000 1.0
C      1  0.5199930000000  0.3963720000000  0.4709510000000 1.0
C      1  0.5267340000000  0.4459290000000  0.4411850000000 1.0
C      1  0.5318660000000  0.5641650000000  0.5046450000000 1.0
C      1  0.5208480000000  0.5378540000000  0.5902110000000 1.0
C      1  0.4362990000000  0.5519540000000  0.5620370000000 1.0
C      1  0.5589890000000  0.4367980000000  0.5723980000000 1.0
C      1  0.5953030000000  0.5136510000000  0.4872830000000 1.0
C      1  0.5094980000000  0.5211020000000  0.4590240000000 1.0
C      1  0.6032610000000  0.4676220000000  0.4777380000000 1.0
C      1  0.4642370000000  0.5358350000000  0.5021270000000 1.0
C      1  0.5570890000000  0.5448470000000  0.4063680000000 1.0
C      1  0.5588190000000  0.4852080000000  0.5505510000000 1.0
C      1  0.5682340000000  0.4523170000000  0.4510150000000 1.0
C      1  0.4750050000000  0.5521200000000  0.4661100000000 1.0
C      1  0.5036580000000  0.4221500000000  0.5597460000000 1.0
C      1  0.4140860000000  0.4713520000000  0.5444390000000 1.0
C      1  0.3994690000000  0.5231940000000  0.5187870000000 1.0
C      1  0.4343140000000  0.5723890000000  0.4913790000000 1.0
C      1  0.5246270000000  0.5087870000000  0.5066630000000 1.0
C      1  0.4155380000000  0.5532330000000  0.4785870000000 1.0
C      1  0.4122660000000  0.4454550000000  0.5288740000000 1.0
C      1  0.4586280000000  0.4581520000000  0.5735790000000 1.0
C      1  0.4967720000000  0.4744870000000  0.5476300000000 1.0
C      1  0.5811470000000  0.5526760000000  0.5218020000000 1.0
C      1  0.5413570000000  0.4984990000000  0.4180750000000 1.0
C      1  0.4702060000000  0.4641390000000  0.4735540000000 1.0
C      1  0.5528250000000  0.4228590000000  0.5470030000000 1.0
C      1  0.5013580000000  0.5239430000000  0.5486730000000 1.0
C      1  0.5189770000000  0.5089050000000  0.5986010000000 1.0
C      1  0.5763220000000  0.4363770000000  0.5007030000000 1.0
C      1  0.5605560000000  0.5608690000000  0.4281450000000 1.0
C      1  0.4785710000000  0.4194140000000  0.4731380000000 1.0
C      1  0.5043490000000  0.4725000000000  0.4078320000000 1.0
C      1  0.4209960000000  0.4462660000000  0.4687130000000 1.0
C      1  0.4891780000000  0.4206050000000  0.5329590000000 1.0
C      1  0.4247450000000  0.5678070000000  0.5401740000000 1.0
C      1  0.4408660000000  0.5803040000000  0.5184780000000 1.0
C      1  0.4728110000000  0.5183660000000  0.5223630000000 1.0
C      1  0.4737500000000  0.5109990000000  0.6003990000000 1.0
C      1  0.4420950000000  0.4645060000000  0.5090330000000 1.0
C      1  0.5498790000000  0.4520880000000  0.4257170000000 1.0
C      1  0.4608190000000  0.4494670000000  0.5263000000000 1.0
C      1  0.5689540000000  0.5448940000000  0.4518000000000 1.0
C      1  0.4582470000000  0.4669460000000  0.4297680000000 1.0
C      1  0.5858930000000  0.4953400000000  0.5088450000000 1.0
C      1  0.4886810000000  0.4449810000000  0.4804210000000 1.0
C      1  0.4390060000000  0.5031850000000  0.5709690000000 1.0
C      1  0.4816570000000  0.5582390000000  0.5072480000000 1.0
C      1  0.4306270000000  0.5092960000000  0.4840610000000 1.0
C      1  0.4900080000000  0.4971510000000  0.4103820000000 1.0
C      1  0.5143910000000  0.5709430000000  0.4419840000000 1.0
C      1  0.4747150000000  0.5675890000000  0.4118910000000 1.0
C      1  0.5137000000000  0.6010540000000  0.5088100000000 1.0
C      1  0.5432420000000  0.4672120000000  0.5258820000000 1.0
C      1  0.5420960000000  0.4143460000000  0.4823460000000 1.0
C      1  0.4590990000000  0.5603710000000  0.5797840000000 1.0
C      1  0.4437490000000  0.4592960000000  0.4819540000000 1.0
C      1  0.4980910000000  0.5537610000000  0.3986920000000 1.0
C      1  0.5148970000000  0.5257580000000  0.4870800000000 1.0
C      1  0.5269910000000  0.4728760000000  0.4585420000000 1.0
C      1  0.4978240000000  0.5959210000000  0.4524630000000 1.0
C      1  0.4064480000000  0.5266270000000  0.4897370000000 1.0
C      1  0.4462040000000  0.5798730000000  0.4477700000000 1.0
C      1  0.4289640000000  0.4103780000000  0.5125700000000 1.0
C      1  0.5678970000000  0.5785360000000  0.5174720000000 1.0
C      1  0.5279350000000  0.5761830000000  0.5549050000000 1.0
C      1  0.4847930000000  0.4873970000000  0.4813260000000 1.0
C      1  0.5662970000000  0.5810790000000  0.4886520000000 1.0
C      1  0.5064660000000  0.4452620000000  0.5783670000000 1.0
C      1  0.5798910000000  0.5586910000000  0.4750480000000 1.0
C      1  0.5912960000000  0.4740180000000  0.4536080000000 1.0
C      1  0.4810090000000  0.4553960000000  0.4153490000000 1.0
C      1  0.4657930000000  0.5025000000000  0.5761480000000 1.0
C      1  0.4218100000000  0.5074780000000  0.4547490000000 1.0
C      1  0.4723110000000  0.5862230000000  0.4359220000000 1.0
C      1  0.4534870000000  0.4378980000000  0.5528020000000 1.0
C      1  0.5106680000000  0.4225870000000  0.4315800000000 1.0
C      1  0.4678880000000  0.4967340000000  0.4309540000000 1.0
C      1  0.5664600000000  0.4828630000000  0.4920380000000 1.0
C      1  0.5590420000000  0.4405010000000  0.5243630000000 1.0
C      1  0.5141110000000  0.5989260000000  0.4801350000000 1.0
C      1  0.5648970000000  0.4303500000000  0.4748100000000 1.0
C      1  0.5186150000000  0.3948380000000  0.4414590000000 1.0
C      1  0.5078730000000  0.5495630000000  0.5017110000000 1.0
C      1  0.5665200000000  0.5459650000000  0.5725010000000 1.0
C      1  0.5377400000000  0.5811190000000  0.4808370000000 1.0
C      1  0.5366480000000  0.5036100000000  0.4473360000000 1.0
C      1  0.4820450000000  0.5073910000000  0.4599980000000 1.0
C      1  0.5898560000000  0.5411390000000  0.4957090000000 1.0
C      1  0.5020590000000  0.5227640000000  0.3993820000000 1.0
C      1  0.5355470000000  0.4519430000000  0.5826130000000 1.0
C      1  0.4951690000000  0.4909620000000  0.6000790000000 1.0
C      1  0.4858020000000  0.4645930000000  0.5859810000000 1.0
C      1  0.4935390000000  0.3967870000000  0.5151740000000 1.0
C      1  0.6008760000000  0.4742130000000  0.5239060000000 1.0
C      1  0.4079300000000  0.5462510000000  0.5320900000000 1.0
C      1  0.5604780000000  0.5242770000000  0.5896230000000 1.0
C      1  0.5345180000000  0.4709020000000  0.4088330000000 1.0
C      1  0.5171230000000  0.4582630000000  0.5366480000000 1.0
C      1  0.4444780000000  0.4457620000000  0.4444320000000 1.0
C      1  0.5535120000000  0.4700630000000  0.4707320000000 1.0
C      1  0.4783810000000  0.5782930000000  0.5684330000000 1.0
C      1  0.5268330000000  0.4807130000000  0.5042990000000 1.0
C      1  0.4826880000000  0.4276670000000  0.4251780000000 1.0
C      1  0.5271460000000  0.4080220000000  0.5505130000000 1.0
C      1  0.5104500000000  0.4362120000000  0.5195070000000 1.0
C      1  0.5740330000000  0.5361670000000  0.5449940000000 1.0
C      1  0.4241070000000  0.4868270000000  0.5037120000000 1.0
C      1  0.4641690000000  0.5268060000000  0.4740830000000 1.0
C      1  0.4634990000000  0.4239730000000  0.4468820000000 1.0
C      1  0.3979920000000  0.4667640000000  0.4633660000000 1.0
C      1  0.4749730000000  0.4935240000000  0.5092570000000 1.0
C      1  0.4167000000000  0.4340930000000  0.5007470000000 1.0
C      1  0.3980940000000  0.4949590000000  0.4641400000000 1.0
C      1  0.5382880000000  0.5831250000000  0.5271660000000 1.0
C      1  0.4753810000000  0.5391310000000  0.5930370000000 1.0
C      1  0.5270780000000  0.5206730000000  0.5339560000000 1.0
C      1  0.4993910000000  0.5369590000000  0.3761140000000 1.0
C      1  0.5478520000000  0.4776880000000  0.5780320000000 1.0
C      1  0.4349440000000  0.4743320000000  0.5649630000000 1.0
C      1  0.5383260000000  0.5566850000000  0.5739650000000 1.0
C      1  0.4971250000000  0.5426800000000  0.5738930000000 1.0
C      1  0.4940110000000  0.3977180000000  0.4859230000000 1.0
C      1  0.5008370000000  0.5889070000000  0.5550430000000 1.0
C      1  0.4262270000000  0.5568800000000  0.4518300000000 1.0
C      1  0.4596300000000  0.5448990000000  0.4154790000000 1.0
C      1  0.5878550000000  0.4728170000000  0.5500610000000 1.0
C      1  0.5861710000000  0.4502190000000  0.5685700000000 1.0
C      1  0.4703890000000  0.5823660000000  0.5181370000000 1.0
C      1  0.5110040000000  0.4696190000000  0.4824280000000 1.0
C      1  0.5472090000000  0.5002640000000  0.5977400000000 1.0
C      1  0.5882650000000  0.5025570000000  0.4603500000000 1.0
C      1  0.3967650000000  0.4941550000000  0.5341450000000 1.0
C      1  0.5633020000000  0.5163110000000  0.4533030000000 1.0
C      1  0.4798110000000  0.4704640000000  0.5257740000000 1.0
C      1  0.5542300000000  0.5145850000000  0.5427170000000 1.0
C      1  0.5514580000000  0.5210600000000  0.4046500000000 1.0
C      1  0.4583860000000  0.5760900000000  0.4736360000000 1.0
C      1  0.5207710000000  0.3938140000000  0.5253520000000 1.0
C      1  0.6015330000000  0.4540350000000  0.5025510000000 1.0
C      1  0.4922550000000  0.5995940000000  0.5276230000000 1.0
C      1  0.3927860000000  0.4813330000000  0.5079550000000 1.0
C      1  0.4505250000000  0.5153990000000  0.5339440000000 1.0
C      1  0.5389940000000  0.5701470000000  0.4301640000000 1.0
END
