TITL C-4164242-3624-282 -5.30748006472342 125000 -10843.5609983804 0 0 73 (C1) n - 1
REM
REM in /home/nfs/bkarasulu/CARBON/AIRSS/Generating-Clusters/ReaxFF-fromJPCA2015/Units_Real/with-SteepDescent/Only-C1/SD-CG/Try1-3A/FIRE-CG
REM
REM
REM
REM
REM
REM ./C.cell (11c1c37f851c82e70ff6c80c92926a4b)
REM
REM compiler GCC version 9.2.1 20190827 (Red Hat 9.2.1-1)
REM options -cpp -mtune=generic -march=x86-64 -g -O0 -fpre-include=/usr/include/finclude/math-vector-fortran.h
REM seed -944221116 640150571 -1151688179 -1362086171 -1559060778 2094532183 -890049285 -294130970 -954721351 1558003800 -1996961077 697678219 -1948823868 911580944 -314289346 1773361551 -981586301 -272507330 -268524830 -1726819651 1297597913 -721219179 1757788608 561906760 1066014094 823907102 -986062722 -1658617037 1970613642 -1922393283 1124792080 1278260085 -255139263
REM
CELL 1.54180   50.00000   50.00000   50.00000   90.00000   90.00000   90.00000
LATT -1
SFAC C  
C      1  0.5315750000000  0.5595280000000  0.5000920000000 1.0
C      1  0.4285540000000  0.4456050000000  0.5241730000000 1.0
C      1  0.4951170000000  0.5475510000000  0.4530030000000 1.0
C      1  0.5423920000000  0.5424640000000  0.5428030000000 1.0
C      1  0.4299980000000  0.5394290000000  0.4928720000000 1.0
C      1  0.4569090000000  0.5162720000000  0.4470300000000 1.0
C      1  0.5719500000000  0.4872900000000  0.4756360000000 1.0
C      1  0.4876430000000  0.5028700000000  0.5324710000000 1.0
C      1  0.5366570000000  0.5251880000000  0.4181670000000 1.0
C      1  0.5789220000000  0.5364870000000  0.4845300000000 1.0
C      1  0.5203270000000  0.4654580000000  0.5558120000000 1.0
C      1  0.4703810000000  0.5735930000000  0.5533810000000 1.0
C      1  0.5303010000000  0.4269450000000  0.4863590000000 1.0
C      1  0.4478810000000  0.4373460000000  0.5005190000000 1.0
C      1  0.4671850000000  0.5418710000000  0.4598760000000 1.0
C      1  0.5614190000000  0.4660680000000  0.4587040000000 1.0
C      1  0.4439210000000  0.4545990000000  0.5501300000000 1.0
C      1  0.4943670000000  0.4318010000000  0.5281020000000 1.0
C      1  0.5225240000000  0.4295260000000  0.5144950000000 1.0
C      1  0.4715080000000  0.4964340000000  0.5626360000000 1.0
C      1  0.4332250000000  0.5002130000000  0.4570350000000 1.0
C      1  0.4688990000000  0.4637650000000  0.5581930000000 1.0
C      1  0.4986810000000  0.5583590000000  0.5906220000000 1.0
C      1  0.5015340000000  0.5005470000000  0.4607230000000 1.0
C      1  0.4768500000000  0.4613810000000  0.4657170000000 1.0
C      1  0.4868280000000  0.5114960000000  0.4203880000000 1.0
C      1  0.5043350000000  0.4211420000000  0.4714760000000 1.0
C      1  0.4830930000000  0.4178940000000  0.4893570000000 1.0
C      1  0.5432690000000  0.5449160000000  0.4408390000000 1.0
C      1  0.5133430000000  0.4916140000000  0.5423970000000 1.0
C      1  0.4939310000000  0.5051440000000  0.5813190000000 1.0
C      1  0.5524080000000  0.5597170000000  0.5211970000000 1.0
C      1  0.5291240000000  0.5028280000000  0.4975890000000 1.0
C      1  0.5126540000000  0.5441340000000  0.5481500000000 1.0
C      1  0.4782700000000  0.4958340000000  0.4420450000000 1.0
C      1  0.5563120000000  0.4927430000000  0.5003950000000 1.0
C      1  0.4500010000000  0.4548140000000  0.4774830000000 1.0
C      1  0.5723760000000  0.5393690000000  0.5133120000000 1.0
C      1  0.5442320000000  0.4724740000000  0.4345020000000 1.0
C      1  0.5619340000000  0.4920930000000  0.5291700000000 1.0
C      1  0.5400580000000  0.4978900000000  0.4242190000000 1.0
C      1  0.5129770000000  0.4843830000000  0.4821330000000 1.0
C      1  0.5167740000000  0.5306800000000  0.4985790000000 1.0
C      1  0.5174550000000  0.4920680000000  0.5711990000000 1.0
C      1  0.5618170000000  0.5211680000000  0.5347140000000 1.0
C      1  0.5410660000000  0.4477350000000  0.5198950000000 1.0
C      1  0.5246630000000  0.4502820000000  0.4447150000000 1.0
C      1  0.4028550000000  0.4503690000000  0.5211920000000 1.0
C      1  0.5093120000000  0.5204760000000  0.4110450000000 1.0
C      1  0.4383520000000  0.5316470000000  0.5402960000000 1.0
C      1  0.4306270000000  0.5190850000000  0.5145740000000 1.0
C      1  0.4442630000000  0.4944040000000  0.5049930000000 1.0
C      1  0.4232190000000  0.5207590000000  0.4729870000000 1.0
C      1  0.5210950000000  0.5629610000000  0.4491690000000 1.0
C      1  0.5663800000000  0.5385350000000  0.4572310000000 1.0
C      1  0.4464610000000  0.5136920000000  0.5617180000000 1.0
C      1  0.4721310000000  0.4888540000000  0.5104970000000 1.0
C      1  0.4869720000000  0.4738300000000  0.4906000000000 1.0
C      1  0.4956690000000  0.5330230000000  0.5229740000000 1.0
C      1  0.4975830000000  0.4439570000000  0.4532380000000 1.0
C      1  0.4989420000000  0.5686020000000  0.5613820000000 1.0
C      1  0.4582810000000  0.5480530000000  0.4869830000000 1.0
C      1  0.5302560000000  0.5687290000000  0.4748060000000 1.0
C      1  0.4361120000000  0.4808440000000  0.4800070000000 1.0
C      1  0.5480720000000  0.4670820000000  0.5377610000000 1.0
C      1  0.5058510000000  0.5318510000000  0.5795150000000 1.0
C      1  0.4933660000000  0.4501100000000  0.5491040000000 1.0
C      1  0.4554400000000  0.5568260000000  0.5342670000000 1.0
C      1  0.4699040000000  0.4215920000000  0.5130830000000 1.0
C      1  0.5057680000000  0.5266200000000  0.4700220000000 1.0
C      1  0.5435740000000  0.4435400000000  0.4657700000000 1.0
C      1  0.4732040000000  0.5497960000000  0.5121560000000 1.0
C      1  0.5806730000000  0.5137540000000  0.4664730000000 1.0
END
