TITL C-4164243-3780-7 -34.4483291422024 125000 -14072.7483161144 0 0 95 (C1) n - 1
REM
REM in /home/nfs/bkarasulu/CARBON/AIRSS/Generating-Clusters/ReaxFF-fromJPCA2015/Units_Real/with-SteepDescent/Only-C1/SD-CG/Try1-3A/FIRE-CG
REM
REM
REM
REM
REM
REM ./C.cell (11c1c37f851c82e70ff6c80c92926a4b)
REM
REM compiler GCC version 9.2.1 20190827 (Red Hat 9.2.1-1)
REM options -cpp -mtune=generic -march=x86-64 -g -O0 -fpre-include=/usr/include/finclude/math-vector-fortran.h
REM seed -366936404 -424401250 1526762081 2082915434 -999462267 -1068400698 1364168367 1587463574 -820855582 1739270864 -1740965602 -51278520 -674265582 1243718962 512682063 1177441734 -63424045 -1359303853 1707786849 -1558832177 -95886471 -98542394 -1840546101 1217360316 -1123835101 -453673114 -298892839 -1343965495 11335223 -1131602447 -1572617327 1468616554 1448715077
REM
CELL 1.54180   50.00000   50.00000   50.00000   90.00000   90.00000   90.00000
LATT -1
SFAC C  
C      1  0.4967490000000  0.5827970000000  0.5362130000000 1.0
C      1  0.5075690000000  0.4853880000000  0.5158740000000 1.0
C      1  0.5412970000000  0.5772010000000  0.4949220000000 1.0
C      1  0.4458520000000  0.5775380000000  0.4977860000000 1.0
C      1  0.5532370000000  0.4576140000000  0.5580430000000 1.0
C      1  0.5074110000000  0.4400040000000  0.5468110000000 1.0
C      1  0.4755810000000  0.4174410000000  0.5314330000000 1.0
C      1  0.5242830000000  0.5422350000000  0.4293250000000 1.0
C      1  0.5647910000000  0.4620830000000  0.4581040000000 1.0
C      1  0.5267180000000  0.4477230000000  0.5672750000000 1.0
C      1  0.4471360000000  0.4568620000000  0.5215000000000 1.0
C      1  0.4882510000000  0.4654480000000  0.4606620000000 1.0
C      1  0.4691860000000  0.5418520000000  0.5672700000000 1.0
C      1  0.5622970000000  0.5466570000000  0.4561930000000 1.0
C      1  0.5250630000000  0.4878920000000  0.4266010000000 1.0
C      1  0.5615240000000  0.5597820000000  0.5024360000000 1.0
C      1  0.5493700000000  0.5323860000000  0.4358760000000 1.0
C      1  0.5221210000000  0.4730550000000  0.5818310000000 1.0
C      1  0.5616690000000  0.4538310000000  0.5303630000000 1.0
C      1  0.4397100000000  0.4951670000000  0.4476800000000 1.0
C      1  0.5092780000000  0.5115120000000  0.4754050000000 1.0
C      1  0.4691670000000  0.5557170000000  0.4490940000000 1.0
C      1  0.4232280000000  0.4701500000000  0.5112850000000 1.0
C      1  0.5484840000000  0.5410740000000  0.5612990000000 1.0
C      1  0.4892100000000  0.4949520000000  0.4631400000000 1.0
C      1  0.5174720000000  0.5147030000000  0.5533390000000 1.0
C      1  0.4727600000000  0.5347850000000  0.4323400000000 1.0
C      1  0.6012800000000  0.4690310000000  0.4747760000000 1.0
C      1  0.5186100000000  0.4379250000000  0.5179600000000 1.0
C      1  0.4887310000000  0.4070670000000  0.4835940000000 1.0
C      1  0.5180130000000  0.4632680000000  0.5015840000000 1.0
C      1  0.4403160000000  0.4490490000000  0.4663730000000 1.0
C      1  0.5510010000000  0.4352000000000  0.4604000000000 1.0
C      1  0.5187550000000  0.5613420000000  0.4523110000000 1.0
C      1  0.4809920000000  0.4887460000000  0.5095090000000 1.0
C      1  0.5783630000000  0.4715980000000  0.4839510000000 1.0
C      1  0.5221530000000  0.4304960000000  0.4478290000000 1.0
C      1  0.4981810000000  0.5329250000000  0.4901620000000 1.0
C      1  0.4299420000000  0.5609890000000  0.4825470000000 1.0
C      1  0.5288430000000  0.4758880000000  0.4780570000000 1.0
C      1  0.4229560000000  0.4972030000000  0.5209750000000 1.0
C      1  0.5391810000000  0.4748640000000  0.4502940000000 1.0
C      1  0.5452420000000  0.4977050000000  0.5095160000000 1.0
C      1  0.5566350000000  0.5223630000000  0.5177740000000 1.0
C      1  0.4770610000000  0.4865120000000  0.4142580000000 1.0
C      1  0.5038190000000  0.4918530000000  0.5438160000000 1.0
C      1  0.4717620000000  0.4920150000000  0.5798900000000 1.0
C      1  0.4916780000000  0.5827260000000  0.4888170000000 1.0
C      1  0.5514950000000  0.4315100000000  0.4875270000000 1.0
C      1  0.5086600000000  0.5209720000000  0.5813850000000 1.0
C      1  0.4508230000000  0.4837210000000  0.5613400000000 1.0
C      1  0.5599230000000  0.5091560000000  0.5617240000000 1.0
C      1  0.4736380000000  0.5186850000000  0.5022150000000 1.0
C      1  0.4963630000000  0.4796660000000  0.5699370000000 1.0
C      1  0.5367790000000  0.5038250000000  0.4818880000000 1.0
C      1  0.4669110000000  0.5908330000000  0.5004480000000 1.0
C      1  0.4431040000000  0.4559980000000  0.4390850000000 1.0
C      1  0.4689410000000  0.4631080000000  0.5041000000000 1.0
C      1  0.4499730000000  0.4783120000000  0.4241460000000 1.0
C      1  0.5150150000000  0.5149470000000  0.4212840000000 1.0
C      1  0.4940920000000  0.5600740000000  0.4690730000000 1.0
C      1  0.5681470000000  0.4793200000000  0.5161780000000 1.0
C      1  0.5020170000000  0.4716460000000  0.4184670000000 1.0
C      1  0.5124620000000  0.5776740000000  0.5101350000000 1.0
C      1  0.5424670000000  0.5689200000000  0.4665850000000 1.0
C      1  0.5631190000000  0.5223590000000  0.4716680000000 1.0
C      1  0.4683160000000  0.5344740000000  0.5266570000000 1.0
C      1  0.4206110000000  0.5125140000000  0.4931240000000 1.0
C      1  0.4670350000000  0.4549610000000  0.4773230000000 1.0
C      1  0.4722450000000  0.5886810000000  0.5250200000000 1.0
C      1  0.4731030000000  0.4229040000000  0.5030090000000 1.0
C      1  0.4102720000000  0.5407560000000  0.4932750000000 1.0
C      1  0.4623460000000  0.5035860000000  0.4622010000000 1.0
C      1  0.4463080000000  0.5452730000000  0.4631600000000 1.0
C      1  0.5731700000000  0.5345290000000  0.4963900000000 1.0
C      1  0.4937000000000  0.5424260000000  0.5355980000000 1.0
C      1  0.5492100000000  0.4319540000000  0.5149710000000 1.0
C      1  0.4784960000000  0.4382820000000  0.5512770000000 1.0
C      1  0.4199740000000  0.4919380000000  0.4692510000000 1.0
C      1  0.5353130000000  0.5329430000000  0.5352810000000 1.0
C      1  0.4208360000000  0.4667710000000  0.4817330000000 1.0
C      1  0.5052880000000  0.4171750000000  0.4642960000000 1.0
C      1  0.4781180000000  0.5207220000000  0.5850160000000 1.0
C      1  0.5263830000000  0.5568550000000  0.5694960000000 1.0
C      1  0.5122400000000  0.5454820000000  0.5132990000000 1.0
C      1  0.4846190000000  0.5149280000000  0.4164360000000 1.0
C      1  0.4524770000000  0.5209700000000  0.4808110000000 1.0
C      1  0.5766170000000  0.4962900000000  0.5430880000000 1.0
C      1  0.4966050000000  0.5619120000000  0.5583230000000 1.0
C      1  0.5012880000000  0.4501530000000  0.4389240000000 1.0
C      1  0.5487940000000  0.4836420000000  0.5721770000000 1.0
C      1  0.4560220000000  0.4578140000000  0.5489790000000 1.0
C      1  0.4976530000000  0.4113990000000  0.5132430000000 1.0
C      1  0.4363360000000  0.5042340000000  0.5454710000000 1.0
C      1  0.4497680000000  0.5310950000000  0.5484980000000 1.0
END
