TITL C-4164233-775-239 240.315481259154 125000 -25800.4280108264 0 0 176 (C1) n - 1
REM
REM in /home/nfs/bkarasulu/CARBON/AIRSS/Generating-Clusters/ReaxFF-fromJPCA2015/Units_Real/with-SteepDescent/Only-C1/SD-CG/Try1-3A/FIRE-CG
REM
REM
REM
REM
REM
REM ./C.cell (11c1c37f851c82e70ff6c80c92926a4b)
REM
REM compiler GCC version 9.2.1 20190827 (Red Hat 9.2.1-1)
REM options -cpp -mtune=generic -march=x86-64 -g -O0 -fpre-include=/usr/include/finclude/math-vector-fortran.h
REM seed 800700921 554937509 -701988669 -1320980842 834362849 1663971586 -260433274 -1947143930 283243760 110266151 -1425489111 -1316789508 135482295 6808434 -974426367 -1814288614 1211495766 -922068014 -1424031963 -583728213 -2018297031 -452460130 -1488933243 -1050959391 28487206 1758535097 -1174841231 1821852857 1970867922 -1131952378 -1813915620 -899098357 942735192
REM
CELL 1.54180   50.00000   50.00000   50.00000   90.00000   90.00000   90.00000
LATT -1
SFAC C  
C      1  0.5614570000000  0.5899810000000  0.5005690000000 1.0
C      1  0.5270990000000  0.4568770000000  0.5865420000000 1.0
C      1  0.4935250000000  0.5361010000000  0.3994360000000 1.0
C      1  0.5028970000000  0.5033470000000  0.4270250000000 1.0
C      1  0.4678810000000  0.5199270000000  0.4002450000000 1.0
C      1  0.5050710000000  0.5942010000000  0.4502710000000 1.0
C      1  0.5319840000000  0.5031370000000  0.5988930000000 1.0
C      1  0.4367630000000  0.4304210000000  0.4708360000000 1.0
C      1  0.4494560000000  0.5094420000000  0.6014430000000 1.0
C      1  0.5723640000000  0.4263760000000  0.4581710000000 1.0
C      1  0.3876220000000  0.5100940000000  0.5127080000000 1.0
C      1  0.5124550000000  0.4243350000000  0.4145440000000 1.0
C      1  0.5191150000000  0.5391280000000  0.5535170000000 1.0
C      1  0.4210280000000  0.5664890000000  0.5157550000000 1.0
C      1  0.4722210000000  0.5886160000000  0.5025940000000 1.0
C      1  0.5463410000000  0.4792740000000  0.5880670000000 1.0
C      1  0.4451170000000  0.5116870000000  0.4200590000000 1.0
C      1  0.4699440000000  0.4048600000000  0.5380110000000 1.0
C      1  0.4220250000000  0.4868520000000  0.5073600000000 1.0
C      1  0.5410060000000  0.4202200000000  0.4205220000000 1.0
C      1  0.4965660000000  0.6115180000000  0.4719180000000 1.0
C      1  0.4435070000000  0.5751720000000  0.4392790000000 1.0
C      1  0.5015020000000  0.4605380000000  0.5988470000000 1.0
C      1  0.4829120000000  0.4650610000000  0.5015510000000 1.0
C      1  0.4215940000000  0.5265830000000  0.4296050000000 1.0
C      1  0.3944450000000  0.5264950000000  0.4897600000000 1.0
C      1  0.4003730000000  0.4447870000000  0.4822510000000 1.0
C      1  0.4804050000000  0.4294810000000  0.4457970000000 1.0
C      1  0.5258710000000  0.5475670000000  0.4516510000000 1.0
C      1  0.5520530000000  0.5998040000000  0.5286330000000 1.0
C      1  0.4572480000000  0.4626640000000  0.4082320000000 1.0
C      1  0.4553160000000  0.5012580000000  0.4762300000000 1.0
C      1  0.4403370000000  0.4573830000000  0.4818150000000 1.0
C      1  0.5310500000000  0.4620590000000  0.5159670000000 1.0
C      1  0.5476000000000  0.5615000000000  0.5111730000000 1.0
C      1  0.5441350000000  0.5312750000000  0.4631500000000 1.0
C      1  0.5383760000000  0.5187790000000  0.5546380000000 1.0
C      1  0.5680390000000  0.5586410000000  0.5581440000000 1.0
C      1  0.4630660000000  0.5413670000000  0.4988540000000 1.0
C      1  0.5181750000000  0.4102950000000  0.5542590000000 1.0
C      1  0.4144020000000  0.4771610000000  0.5637890000000 1.0
C      1  0.4683120000000  0.5641200000000  0.4285560000000 1.0
C      1  0.4280540000000  0.5098790000000  0.5210780000000 1.0
C      1  0.5941070000000  0.5579300000000  0.4663120000000 1.0
C      1  0.6075750000000  0.4752120000000  0.5275320000000 1.0
C      1  0.5358340000000  0.3946710000000  0.5136340000000 1.0
C      1  0.5009230000000  0.5257390000000  0.4467650000000 1.0
C      1  0.4773860000000  0.5137400000000  0.6076020000000 1.0
C      1  0.5608600000000  0.5100760000000  0.4234000000000 1.0
C      1  0.4982740000000  0.3968980000000  0.5372360000000 1.0
C      1  0.4853810000000  0.5948730000000  0.5507190000000 1.0
C      1  0.5250180000000  0.6075720000000  0.5224980000000 1.0
C      1  0.4021380000000  0.5040860000000  0.4732190000000 1.0
C      1  0.4490550000000  0.5771890000000  0.5181240000000 1.0
C      1  0.6003580000000  0.5272360000000  0.4657630000000 1.0
C      1  0.5417470000000  0.5277110000000  0.4094780000000 1.0
C      1  0.4770420000000  0.4117840000000  0.4876650000000 1.0
C      1  0.4208080000000  0.4448990000000  0.5311170000000 1.0
C      1  0.6112040000000  0.5147470000000  0.4891110000000 1.0
C      1  0.5769210000000  0.5048730000000  0.5263910000000 1.0
C      1  0.4473330000000  0.5729970000000  0.5758210000000 1.0
C      1  0.5183430000000  0.6119650000000  0.4931050000000 1.0
C      1  0.6181910000000  0.5011510000000  0.5146870000000 1.0
C      1  0.5112520000000  0.5915700000000  0.5439390000000 1.0
C      1  0.5386820000000  0.5954280000000  0.4823830000000 1.0
C      1  0.4335720000000  0.5221830000000  0.5758240000000 1.0
C      1  0.4153150000000  0.5514630000000  0.5409900000000 1.0
C      1  0.5411410000000  0.4107940000000  0.5369110000000 1.0
C      1  0.4566880000000  0.5503160000000  0.5267540000000 1.0
C      1  0.4357750000000  0.4143240000000  0.4964010000000 1.0
C      1  0.4126960000000  0.5060090000000  0.5634970000000 1.0
C      1  0.5336730000000  0.4638240000000  0.4085710000000 1.0
C      1  0.4322950000000  0.4620210000000  0.5824500000000 1.0
C      1  0.5083340000000  0.3868460000000  0.5117340000000 1.0
C      1  0.4977010000000  0.5027360000000  0.5235830000000 1.0
C      1  0.5352990000000  0.5553530000000  0.4194740000000 1.0
C      1  0.5274800000000  0.5775790000000  0.5657160000000 1.0
C      1  0.5136110000000  0.4269890000000  0.4912120000000 1.0
C      1  0.5643790000000  0.5361400000000  0.5788510000000 1.0
C      1  0.4534310000000  0.5844990000000  0.4651720000000 1.0
C      1  0.5006010000000  0.5044480000000  0.4678290000000 1.0
C      1  0.4594760000000  0.5111760000000  0.5548560000000 1.0
C      1  0.5878390000000  0.4806040000000  0.4885610000000 1.0
C      1  0.5210640000000  0.4403720000000  0.5609950000000 1.0
C      1  0.4706820000000  0.5594690000000  0.4743660000000 1.0
C      1  0.5055960000000  0.5610700000000  0.4099090000000 1.0
C      1  0.4851430000000  0.4830470000000  0.4347140000000 1.0
C      1  0.4570400000000  0.4537620000000  0.5047980000000 1.0
C      1  0.4527850000000  0.5018390000000  0.5284900000000 1.0
C      1  0.4513840000000  0.5236390000000  0.4586270000000 1.0
C      1  0.4301420000000  0.4858660000000  0.4793420000000 1.0
C      1  0.4758230000000  0.4872260000000  0.5604490000000 1.0
C      1  0.4771630000000  0.5398380000000  0.6009360000000 1.0
C      1  0.4141300000000  0.4310140000000  0.5060750000000 1.0
C      1  0.4728200000000  0.4613400000000  0.5485310000000 1.0
C      1  0.6035230000000  0.5158740000000  0.5354140000000 1.0
C      1  0.4652560000000  0.5902380000000  0.5616680000000 1.0
C      1  0.4021980000000  0.4653770000000  0.5399540000000 1.0
C      1  0.4928090000000  0.5716880000000  0.4884550000000 1.0
C      1  0.5546010000000  0.4462520000000  0.4221040000000 1.0
C      1  0.3942590000000  0.4819220000000  0.5164030000000 1.0
C      1  0.5518800000000  0.4752890000000  0.4700700000000 1.0
C      1  0.5846040000000  0.4363730000000  0.5082290000000 1.0
C      1  0.5057220000000  0.4471850000000  0.5143960000000 1.0
C      1  0.4923390000000  0.5807080000000  0.4264780000000 1.0
C      1  0.4614010000000  0.4178340000000  0.4644370000000 1.0
C      1  0.4379690000000  0.4828370000000  0.4187060000000 1.0
C      1  0.5780070000000  0.4787380000000  0.4599950000000 1.0
C      1  0.4735360000000  0.5403540000000  0.4474580000000 1.0
C      1  0.5696880000000  0.4238370000000  0.4872990000000 1.0
C      1  0.5788940000000  0.5101960000000  0.4504910000000 1.0
C      1  0.4975090000000  0.4462380000000  0.5438230000000 1.0
C      1  0.5869310000000  0.4684580000000  0.5479660000000 1.0
C      1  0.5173310000000  0.5753470000000  0.4702720000000 1.0
C      1  0.5256800000000  0.4937560000000  0.5561890000000 1.0
C      1  0.4682350000000  0.5614560000000  0.5897900000000 1.0
C      1  0.5787660000000  0.5662410000000  0.4433350000000 1.0
C      1  0.6094660000000  0.5406380000000  0.5227360000000 1.0
C      1  0.4069100000000  0.5048680000000  0.4448290000000 1.0
C      1  0.4328720000000  0.5445600000000  0.4701870000000 1.0
C      1  0.4494090000000  0.4526140000000  0.5316030000000 1.0
C      1  0.4683550000000  0.6055370000000  0.4784670000000 1.0
C      1  0.4057850000000  0.5216450000000  0.5381110000000 1.0
C      1  0.5193740000000  0.5034200000000  0.4885450000000 1.0
C      1  0.4954260000000  0.5312770000000  0.5355970000000 1.0
C      1  0.4625870000000  0.4210690000000  0.5603930000000 1.0
C      1  0.4291830000000  0.5510320000000  0.5655460000000 1.0
C      1  0.5617930000000  0.5674580000000  0.4282180000000 1.0
C      1  0.4890390000000  0.5379530000000  0.5083120000000 1.0
C      1  0.5733530000000  0.4507190000000  0.4434620000000 1.0
C      1  0.5535470000000  0.5837670000000  0.5538670000000 1.0
C      1  0.5029410000000  0.4938950000000  0.6020760000000 1.0
C      1  0.5070680000000  0.4345800000000  0.4644310000000 1.0
C      1  0.5756310000000  0.4448730000000  0.5356870000000 1.0
C      1  0.4762120000000  0.4856040000000  0.4623010000000 1.0
C      1  0.5215580000000  0.5516640000000  0.5791440000000 1.0
C      1  0.5467360000000  0.4403730000000  0.5363870000000 1.0
C      1  0.5070970000000  0.4514540000000  0.4031850000000 1.0
C      1  0.5356010000000  0.3952340000000  0.4627220000000 1.0
C      1  0.6005180000000  0.5592860000000  0.5078400000000 1.0
C      1  0.5200940000000  0.4869020000000  0.5285060000000 1.0
C      1  0.4742050000000  0.4566890000000  0.4307000000000 1.0
C      1  0.4793930000000  0.4465720000000  0.5893630000000 1.0
C      1  0.4244420000000  0.5526620000000  0.4424670000000 1.0
C      1  0.5422970000000  0.4096940000000  0.4897130000000 1.0
C      1  0.5296000000000  0.5489150000000  0.5012660000000 1.0
C      1  0.4403900000000  0.4808080000000  0.6032770000000 1.0
C      1  0.5385730000000  0.5314030000000  0.5927360000000 1.0
C      1  0.4156650000000  0.4777030000000  0.4372210000000 1.0
C      1  0.4932880000000  0.3891750000000  0.4862360000000 1.0
C      1  0.5536010000000  0.5199930000000  0.5308290000000 1.0
C      1  0.5149080000000  0.4624490000000  0.4646990000000 1.0
C      1  0.6017350000000  0.4598820000000  0.5034360000000 1.0
C      1  0.4825280000000  0.4659070000000  0.3918340000000 1.0
C      1  0.4143210000000  0.5492590000000  0.4927000000000 1.0
C      1  0.5631070000000  0.5478450000000  0.5325990000000 1.0
C      1  0.5483160000000  0.4872120000000  0.4139090000000 1.0
C      1  0.4084400000000  0.4554690000000  0.4562050000000 1.0
C      1  0.5732530000000  0.4827080000000  0.5714470000000 1.0
C      1  0.5352900000000  0.4652070000000  0.4857110000000 1.0
C      1  0.5884370000000  0.5745300000000  0.4896840000000 1.0
C      1  0.5111140000000  0.5359910000000  0.4910920000000 1.0
C      1  0.4890850000000  0.4678720000000  0.4754710000000 1.0
C      1  0.5011690000000  0.4936880000000  0.5723260000000 1.0
C      1  0.4982190000000  0.4076140000000  0.4346810000000 1.0
C      1  0.5621630000000  0.5151940000000  0.4745010000000 1.0
C      1  0.4740640000000  0.4958390000000  0.5087870000000 1.0
C      1  0.5802810000000  0.5101160000000  0.5763250000000 1.0
C      1  0.4605980000000  0.4037200000000  0.5083590000000 1.0
C      1  0.4800560000000  0.4963220000000  0.3882580000000 1.0
C      1  0.5149400000000  0.5158820000000  0.4032840000000 1.0
C      1  0.5530160000000  0.4077420000000  0.4437850000000 1.0
C      1  0.4704950000000  0.5370210000000  0.5482050000000 1.0
C      1  0.5074670000000  0.3927830000000  0.4589420000000 1.0
C      1  0.5694120000000  0.4984550000000  0.4999430000000 1.0
C      1  0.4542190000000  0.4381780000000  0.5810620000000 1.0
END
