TITL C-4164247-2821-335 12.0666007248117 125000 -16946.3664948748 0 0 115 (C1) n - 1
REM
REM in /home/nfs/bkarasulu/CARBON/AIRSS/Generating-Clusters/ReaxFF-fromJPCA2015/Units_Real/with-SteepDescent/Only-C1/SD-CG/Try1-3A/FIRE-CG
REM
REM
REM
REM
REM
REM ./C.cell (11c1c37f851c82e70ff6c80c92926a4b)
REM
REM compiler GCC version 9.2.1 20190827 (Red Hat 9.2.1-1)
REM options -cpp -mtune=generic -march=x86-64 -g -O0 -fpre-include=/usr/include/finclude/math-vector-fortran.h
REM seed -1207871778 2118344801 -26881268 -1227836373 -275982821 -625744174 773093550 1492382332 -96905991 967435425 -781840683 -1633401312 -1211948767 885800229 -1712683605 1462602033 -1525076576 -1502640736 1625276803 -622836940 74465428 -423639628 -98066323 1733272501 802781004 499192487 -1510329926 -1243181701 1992551827 -1653515053 1095335690 1137830109 987551168
REM
CELL 1.54180   50.00000   50.00000   50.00000   90.00000   90.00000   90.00000
LATT -1
SFAC C  
C      1  0.4148170000000  0.5036180000000  0.4656430000000 1.0
C      1  0.4496330000000  0.4876390000000  0.4315450000000 1.0
C      1  0.4866540000000  0.5785380000000  0.5470300000000 1.0
C      1  0.4959460000000  0.4647550000000  0.4693230000000 1.0
C      1  0.4882500000000  0.5881080000000  0.5188170000000 1.0
C      1  0.5899110000000  0.4837640000000  0.4925490000000 1.0
C      1  0.5279800000000  0.5156720000000  0.5098580000000 1.0
C      1  0.4389710000000  0.5693280000000  0.4833090000000 1.0
C      1  0.5688410000000  0.5737310000000  0.5404220000000 1.0
C      1  0.4835500000000  0.4297530000000  0.5068500000000 1.0
C      1  0.5477320000000  0.5425890000000  0.4274650000000 1.0
C      1  0.5426500000000  0.5036470000000  0.4868080000000 1.0
C      1  0.5167760000000  0.4845870000000  0.5939450000000 1.0
C      1  0.4763070000000  0.4989690000000  0.4384370000000 1.0
C      1  0.5810020000000  0.5655210000000  0.4789860000000 1.0
C      1  0.5728320000000  0.5000710000000  0.4381380000000 1.0
C      1  0.4578750000000  0.4434150000000  0.4596180000000 1.0
C      1  0.4820560000000  0.4837160000000  0.3977980000000 1.0
C      1  0.5175930000000  0.4552830000000  0.4220320000000 1.0
C      1  0.5270560000000  0.4176000000000  0.4581750000000 1.0
C      1  0.4282410000000  0.4576610000000  0.5537660000000 1.0
C      1  0.5104300000000  0.4785080000000  0.4048780000000 1.0
C      1  0.6126940000000  0.5166170000000  0.4826880000000 1.0
C      1  0.5691160000000  0.4401020000000  0.5069770000000 1.0
C      1  0.5395510000000  0.4759210000000  0.4845650000000 1.0
C      1  0.4619650000000  0.4679690000000  0.4139750000000 1.0
C      1  0.5062130000000  0.4659620000000  0.5279500000000 1.0
C      1  0.4592460000000  0.5359440000000  0.5710740000000 1.0
C      1  0.6153950000000  0.4914270000000  0.4833680000000 1.0
C      1  0.4200810000000  0.4503820000000  0.4842940000000 1.0
C      1  0.5603510000000  0.5513300000000  0.5598560000000 1.0
C      1  0.5714060000000  0.5368970000000  0.4736600000000 1.0
C      1  0.5055490000000  0.5125260000000  0.5938240000000 1.0
C      1  0.4787360000000  0.5169510000000  0.5815600000000 1.0
C      1  0.5054520000000  0.5789920000000  0.4682870000000 1.0
C      1  0.5683190000000  0.5300980000000  0.5431280000000 1.0
C      1  0.4677450000000  0.5452020000000  0.5160270000000 1.0
C      1  0.5756420000000  0.5106700000000  0.4970290000000 1.0
C      1  0.4755080000000  0.4492910000000  0.4831710000000 1.0
C      1  0.4956390000000  0.4934580000000  0.4606440000000 1.0
C      1  0.5070850000000  0.4230980000000  0.5510730000000 1.0
C      1  0.4088240000000  0.5182310000000  0.5124460000000 1.0
C      1  0.5345010000000  0.5416760000000  0.5190660000000 1.0
C      1  0.5540090000000  0.5647540000000  0.5162070000000 1.0
C      1  0.4886920000000  0.5919840000000  0.4907240000000 1.0
C      1  0.5254240000000  0.5257340000000  0.5764510000000 1.0
C      1  0.4084170000000  0.4774820000000  0.5445160000000 1.0
C      1  0.5138680000000  0.5688750000000  0.5540280000000 1.0
C      1  0.4593410000000  0.4792300000000  0.5180430000000 1.0
C      1  0.4755560000000  0.5127750000000  0.3946080000000 1.0
C      1  0.4645610000000  0.5783820000000  0.4780240000000 1.0
C      1  0.4236430000000  0.4987400000000  0.5565810000000 1.0
C      1  0.5079170000000  0.4083640000000  0.4726110000000 1.0
C      1  0.4714220000000  0.5455660000000  0.4415830000000 1.0
C      1  0.5269070000000  0.4844310000000  0.5384410000000 1.0
C      1  0.4251140000000  0.5459860000000  0.5375680000000 1.0
C      1  0.5447450000000  0.4829600000000  0.5813860000000 1.0
C      1  0.5572550000000  0.5797190000000  0.4897570000000 1.0
C      1  0.4652470000000  0.4302020000000  0.5306370000000 1.0
C      1  0.4219370000000  0.5316360000000  0.4632020000000 1.0
C      1  0.5323300000000  0.5535360000000  0.5706350000000 1.0
C      1  0.5361890000000  0.5022720000000  0.5609480000000 1.0
C      1  0.4954820000000  0.4715830000000  0.5787290000000 1.0
C      1  0.4422640000000  0.4486730000000  0.5285800000000 1.0
C      1  0.5368180000000  0.4513390000000  0.4825790000000 1.0
C      1  0.5537000000000  0.4400300000000  0.5583300000000 1.0
C      1  0.5189790000000  0.5503000000000  0.4290030000000 1.0
C      1  0.4642520000000  0.5622590000000  0.5593280000000 1.0
C      1  0.4129320000000  0.4954390000000  0.4977040000000 1.0
C      1  0.5335820000000  0.5733290000000  0.4725140000000 1.0
C      1  0.4786680000000  0.5238610000000  0.4226810000000 1.0
C      1  0.5513790000000  0.4312450000000  0.4506250000000 1.0
C      1  0.4891630000000  0.4796080000000  0.5084750000000 1.0
C      1  0.4623240000000  0.4848380000000  0.5470030000000 1.0
C      1  0.4295150000000  0.4542430000000  0.4593520000000 1.0
C      1  0.5855410000000  0.4632390000000  0.5140400000000 1.0
C      1  0.4499640000000  0.5615860000000  0.5341990000000 1.0
C      1  0.4881970000000  0.4014320000000  0.4912560000000 1.0
C      1  0.4433440000000  0.4982180000000  0.5009640000000 1.0
C      1  0.5481960000000  0.4702940000000  0.5273450000000 1.0
C      1  0.4971210000000  0.4497520000000  0.4430670000000 1.0
C      1  0.4700550000000  0.4465470000000  0.4331980000000 1.0
C      1  0.4838100000000  0.5091540000000  0.4796430000000 1.0
C      1  0.5301090000000  0.4977620000000  0.4127570000000 1.0
C      1  0.5013410000000  0.5065740000000  0.5146590000000 1.0
C      1  0.4160210000000  0.4462730000000  0.5107430000000 1.0
C      1  0.4505210000000  0.4693330000000  0.5687100000000 1.0
C      1  0.4890610000000  0.5290820000000  0.5282400000000 1.0
C      1  0.4511230000000  0.5323900000000  0.4594560000000 1.0
C      1  0.4266300000000  0.4834630000000  0.4496420000000 1.0
C      1  0.5300680000000  0.4276890000000  0.5660630000000 1.0
C      1  0.4034350000000  0.4715980000000  0.5159730000000 1.0
C      1  0.5751920000000  0.4790640000000  0.5376680000000 1.0
C      1  0.5114320000000  0.4371290000000  0.5244550000000 1.0
C      1  0.5687770000000  0.5284530000000  0.4435930000000 1.0
C      1  0.5586930000000  0.4326120000000  0.4802800000000 1.0
C      1  0.4171150000000  0.5524620000000  0.4850810000000 1.0
C      1  0.5510370000000  0.4821080000000  0.4268790000000 1.0
C      1  0.4953670000000  0.5326960000000  0.4782750000000 1.0
C      1  0.4740440000000  0.4518890000000  0.5755730000000 1.0
C      1  0.4838990000000  0.4945050000000  0.5632710000000 1.0
C      1  0.4109720000000  0.5413890000000  0.5131210000000 1.0
C      1  0.4784090000000  0.4301280000000  0.5566260000000 1.0
C      1  0.5758970000000  0.5098650000000  0.5271050000000 1.0
C      1  0.5462720000000  0.4403240000000  0.5269450000000 1.0
C      1  0.4338140000000  0.5251040000000  0.5579820000000 1.0
C      1  0.5403500000000  0.5448960000000  0.4724910000000 1.0
C      1  0.4969620000000  0.5602540000000  0.4462250000000 1.0
C      1  0.5624720000000  0.4667960000000  0.5653610000000 1.0
C      1  0.5447630000000  0.4539240000000  0.4319980000000 1.0
C      1  0.5115340000000  0.5475820000000  0.5339530000000 1.0
C      1  0.5284250000000  0.5273110000000  0.4125750000000 1.0
C      1  0.4758340000000  0.5520200000000  0.4895020000000 1.0
C      1  0.4570260000000  0.5124310000000  0.4805160000000 1.0
C      1  0.5214220000000  0.5240790000000  0.4696640000000 1.0
END
