TITL C-4164235-1454-322 -13.240764733232 125000 -8869.18124957227 0 0 60 (C1) n - 1
REM
REM in /home/nfs/bkarasulu/CARBON/AIRSS/Generating-Clusters/ReaxFF-fromJPCA2015/Units_Real/with-SteepDescent/Only-C1/SD-CG/Try1-3A/FIRE-CG
REM
REM
REM
REM
REM
REM ./C.cell (11c1c37f851c82e70ff6c80c92926a4b)
REM
REM compiler GCC version 9.2.1 20190827 (Red Hat 9.2.1-1)
REM options -cpp -mtune=generic -march=x86-64 -g -O0 -fpre-include=/usr/include/finclude/math-vector-fortran.h
REM seed -1162877780 -220609372 -472186384 -373716187 311559364 -263303583 -2109636964 1493213926 2101482870 -1363068311 1839371512 -1552034642 200908633 20669014 -1796458809 -1856764362 -976742097 1625928825 -215712931 -1241046952 1040751449 -1740033938 186443155 -1434453842 1484402672 1174986320 946933169 -818338525 -2052546294 -854049353 -353661341 1355263193 1193953999
REM
CELL 1.54180   50.00000   50.00000   50.00000   90.00000   90.00000   90.00000
LATT -1
SFAC C  
C      1  0.5342840000000  0.5565000000000  0.5405590000000 1.0
C      1  0.4533740000000  0.5284000000000  0.4532260000000 1.0
C      1  0.4567390000000  0.4913460000000  0.5359880000000 1.0
C      1  0.4694830000000  0.4657910000000  0.5278120000000 1.0
C      1  0.5743590000000  0.4861470000000  0.5051020000000 1.0
C      1  0.5220780000000  0.4499750000000  0.5334410000000 1.0
C      1  0.5176930000000  0.4500330000000  0.5687520000000 1.0
C      1  0.5048520000000  0.5258430000000  0.4389740000000 1.0
C      1  0.4628170000000  0.5142250000000  0.4917170000000 1.0
C      1  0.4526880000000  0.4739700000000  0.4239620000000 1.0
C      1  0.5261480000000  0.5673120000000  0.4889900000000 1.0
C      1  0.5426600000000  0.5287810000000  0.5497870000000 1.0
C      1  0.4560920000000  0.4506620000000  0.5061740000000 1.0
C      1  0.4762390000000  0.5186950000000  0.4374080000000 1.0
C      1  0.5615160000000  0.5259000000000  0.4816900000000 1.0
C      1  0.5052090000000  0.5084810000000  0.5213790000000 1.0
C      1  0.5556690000000  0.4698920000000  0.4894660000000 1.0
C      1  0.5205740000000  0.5014670000000  0.4330080000000 1.0
C      1  0.5418730000000  0.4665740000000  0.5719800000000 1.0
C      1  0.4982560000000  0.4648350000000  0.5217490000000 1.0
C      1  0.4978880000000  0.5112630000000  0.5493830000000 1.0
C      1  0.5259050000000  0.4356450000000  0.5064280000000 1.0
C      1  0.4283410000000  0.4454430000000  0.4653140000000 1.0
C      1  0.5620650000000  0.5144630000000  0.5341580000000 1.0
C      1  0.5478320000000  0.4642290000000  0.5436720000000 1.0
C      1  0.5013070000000  0.4691890000000  0.5842330000000 1.0
C      1  0.4462190000000  0.5053360000000  0.4696720000000 1.0
C      1  0.5067650000000  0.5621610000000  0.5428950000000 1.0
C      1  0.4723760000000  0.4334550000000  0.4883040000000 1.0
C      1  0.4441720000000  0.5028530000000  0.5117400000000 1.0
C      1  0.4296310000000  0.4897650000000  0.4898270000000 1.0
C      1  0.5078710000000  0.5277850000000  0.5028040000000 1.0
C      1  0.5089710000000  0.5668850000000  0.4673960000000 1.0
C      1  0.5266050000000  0.5074050000000  0.5031520000000 1.0
C      1  0.4815220000000  0.5589940000000  0.4771540000000 1.0
C      1  0.5730100000000  0.5161890000000  0.5050490000000 1.0
C      1  0.4378650000000  0.4572210000000  0.4412670000000 1.0
C      1  0.4528410000000  0.4314900000000  0.4685390000000 1.0
C      1  0.4325170000000  0.4606940000000  0.4910570000000 1.0
C      1  0.5032410000000  0.4752480000000  0.4352900000000 1.0
C      1  0.4809090000000  0.5575950000000  0.5439860000000 1.0
C      1  0.5491010000000  0.5316700000000  0.4575850000000 1.0
C      1  0.5297150000000  0.4829420000000  0.4883150000000 1.0
C      1  0.5224490000000  0.5141090000000  0.5657340000000 1.0
C      1  0.4783440000000  0.4906860000000  0.4294600000000 1.0
C      1  0.4686920000000  0.5131160000000  0.5509520000000 1.0
C      1  0.4450190000000  0.5549030000000  0.4953960000000 1.0
C      1  0.5029580000000  0.4405820000000  0.4814760000000 1.0
C      1  0.5063220000000  0.4535810000000  0.4537530000000 1.0
C      1  0.4479000000000  0.5511490000000  0.5212920000000 1.0
C      1  0.4537990000000  0.5539530000000  0.4681950000000 1.0
C      1  0.5252780000000  0.4893710000000  0.5814400000000 1.0
C      1  0.5487000000000  0.5066850000000  0.4392230000000 1.0
C      1  0.5346030000000  0.5652750000000  0.5136090000000 1.0
C      1  0.5218510000000  0.5449070000000  0.4534240000000 1.0
C      1  0.5657080000000  0.4851190000000  0.5332300000000 1.0
C      1  0.5039730000000  0.4689860000000  0.4929160000000 1.0
C      1  0.4842360000000  0.5337720000000  0.4909310000000 1.0
C      1  0.4584760000000  0.5413130000000  0.5458680000000 1.0
C      1  0.5524240000000  0.4397440000000  0.4947200000000 1.0
END
