TITL C-4164243-3780-722 -5.14133674508609e-08 125000 -3837.81612693908 0 0 27 (C1) n - 1
REM
REM in /home/nfs/bkarasulu/CARBON/AIRSS/Generating-Clusters/ReaxFF-fromJPCA2015/Units_Real/with-SteepDescent/Only-C1/SD-CG/Try1-3A/FIRE-CG
REM
REM
REM
REM
REM
REM ./C.cell (11c1c37f851c82e70ff6c80c92926a4b)
REM
REM compiler GCC version 9.2.1 20190827 (Red Hat 9.2.1-1)
REM options -cpp -mtune=generic -march=x86-64 -g -O0 -fpre-include=/usr/include/finclude/math-vector-fortran.h
REM seed -1152136401 766075163 -1805590839 397759124 1358941308 -7628476 1524169592 1597277666 2002884320 -1905825072 -1789528170 -1342995672 -1712841805 -966887608 -1357292691 -299834585 1094847886 -837579038 507618087 1946559083 845054896 1072391157 -50460855 -1808410578 -643732951 130860001 667762078 1329252313 907245759 -1273734669 558396096 1425360924 -675465987
REM
CELL 1.54180   50.00000   50.00000   50.00000   90.00000   90.00000   90.00000
LATT -1
SFAC C  
C      1  0.4510040000000  0.4727930000000  0.5294120000000 1.0
C      1  0.4725430000000  0.5294160000000  0.4915630000000 1.0
C      1  0.4779610000000  0.5201230000000  0.5410040000000 1.0
C      1  0.4997110000000  0.4640200000000  0.4942370000000 1.0
C      1  0.4939130000000  0.4906210000000  0.5407710000000 1.0
C      1  0.5343050000000  0.5222350000000  0.5484020000000 1.0
C      1  0.4468310000000  0.4942210000000  0.5121020000000 1.0
C      1  0.5050210000000  0.4832310000000  0.5158000000000 1.0
C      1  0.5198880000000  0.5044920000000  0.5027420000000 1.0
C      1  0.5141480000000  0.4679340000000  0.4446600000000 1.0
C      1  0.5380850000000  0.4883030000000  0.4838280000000 1.0
C      1  0.5594320000000  0.5272480000000  0.4985010000000 1.0
C      1  0.4609660000000  0.5200190000000  0.5175840000000 1.0
C      1  0.4549140000000  0.4860350000000  0.4856710000000 1.0
C      1  0.5209620000000  0.4667980000000  0.4738450000000 1.0
C      1  0.5474120000000  0.5520840000000  0.4851720000000 1.0
C      1  0.5014550000000  0.5269110000000  0.4830010000000 1.0
C      1  0.4708870000000  0.4618240000000  0.4893080000000 1.0
C      1  0.4663070000000  0.4526410000000  0.5167120000000 1.0
C      1  0.5409860000000  0.5182810000000  0.5190340000000 1.0
C      1  0.5006410000000  0.4940960000000  0.4383520000000 1.0
C      1  0.4640030000000  0.5102670000000  0.4714140000000 1.0
C      1  0.4758330000000  0.4681250000000  0.5406460000000 1.0
C      1  0.4888170000000  0.5138930000000  0.4564480000000 1.0
C      1  0.5631780000000  0.5037820000000  0.4795520000000 1.0
C      1  0.5189080000000  0.5516620000000  0.4787470000000 1.0
C      1  0.5118870000000  0.5089460000000  0.5614940000000 1.0
END
