TITL C-4164245-3996-217 38.7540955704582 125000 -24680.39435849 0 0 165 (C1) n - 1
REM
REM in /home/nfs/bkarasulu/CARBON/AIRSS/Generating-Clusters/ReaxFF-fromJPCA2015/Units_Real/with-SteepDescent/Only-C1/SD-CG/Try1-3A/FIRE-CG
REM
REM
REM
REM
REM
REM ./C.cell (11c1c37f851c82e70ff6c80c92926a4b)
REM
REM compiler GCC version 9.2.1 20190827 (Red Hat 9.2.1-1)
REM options -cpp -mtune=generic -march=x86-64 -g -O0 -fpre-include=/usr/include/finclude/math-vector-fortran.h
REM seed 865459602 1416689341 -1089819525 1507890117 -28039834 845616847 1864363971 1554738234 -404719397 -949419380 1674148799 -1013077859 -1261650113 1880352339 1344485000 1550277068 313156910 -1409627258 -353630213 -1325904110 -475996121 -1901265850 -239690289 1559371442 -683444818 2131658333 27844856 1676452060 -970063369 889382900 -1533649408 -1765292510 -1309095216
REM
CELL 1.54180   50.00000   50.00000   50.00000   90.00000   90.00000   90.00000
LATT -1
SFAC C  
C      1  0.4221230000000  0.4977850000000  0.5428960000000 1.0
C      1  0.4884500000000  0.5817140000000  0.5218790000000 1.0
C      1  0.4720140000000  0.5699680000000  0.5673320000000 1.0
C      1  0.5422910000000  0.5020300000000  0.4878450000000 1.0
C      1  0.4528940000000  0.5402960000000  0.5201850000000 1.0
C      1  0.4419770000000  0.5855940000000  0.4968550000000 1.0
C      1  0.4473370000000  0.4417440000000  0.5811970000000 1.0
C      1  0.5243210000000  0.5983770000000  0.5080920000000 1.0
C      1  0.4919550000000  0.4817660000000  0.4350380000000 1.0
C      1  0.4860170000000  0.5296760000000  0.4732680000000 1.0
C      1  0.5459780000000  0.5294690000000  0.4791040000000 1.0
C      1  0.4622110000000  0.4079620000000  0.4472290000000 1.0
C      1  0.5202530000000  0.3896930000000  0.5092280000000 1.0
C      1  0.5875500000000  0.4491910000000  0.5174650000000 1.0
C      1  0.5436260000000  0.4872300000000  0.5372690000000 1.0
C      1  0.4710770000000  0.4568360000000  0.4721600000000 1.0
C      1  0.4932720000000  0.5238900000000  0.4999240000000 1.0
C      1  0.4464830000000  0.5433340000000  0.4161680000000 1.0
C      1  0.4367620000000  0.5211900000000  0.5032870000000 1.0
C      1  0.4879210000000  0.4375310000000  0.5640130000000 1.0
C      1  0.4685130000000  0.4879480000000  0.5600020000000 1.0
C      1  0.5559990000000  0.4910710000000  0.5111180000000 1.0
C      1  0.5980910000000  0.5263280000000  0.5250660000000 1.0
C      1  0.5283490000000  0.4845500000000  0.4708610000000 1.0
C      1  0.4365290000000  0.4320230000000  0.5092190000000 1.0
C      1  0.5052160000000  0.4380770000000  0.4886150000000 1.0
C      1  0.4063790000000  0.5089600000000  0.4370800000000 1.0
C      1  0.4516890000000  0.4024140000000  0.4739780000000 1.0
C      1  0.5313910000000  0.5464810000000  0.5099110000000 1.0
C      1  0.4470950000000  0.4865470000000  0.5838290000000 1.0
C      1  0.4145420000000  0.4393360000000  0.4684950000000 1.0
C      1  0.4542120000000  0.4754650000000  0.5084610000000 1.0
C      1  0.5711600000000  0.5315510000000  0.4661400000000 1.0
C      1  0.5394920000000  0.4316920000000  0.5548620000000 1.0
C      1  0.4444980000000  0.5564880000000  0.4665130000000 1.0
C      1  0.5083330000000  0.4972140000000  0.5939630000000 1.0
C      1  0.5447690000000  0.6013040000000  0.4821450000000 1.0
C      1  0.5095900000000  0.5340260000000  0.4193320000000 1.0
C      1  0.5194670000000  0.4532580000000  0.5086460000000 1.0
C      1  0.4294600000000  0.4635620000000  0.5745050000000 1.0
C      1  0.3953710000000  0.5485300000000  0.5256200000000 1.0
C      1  0.5818140000000  0.5371350000000  0.5744520000000 1.0
C      1  0.4927940000000  0.5827910000000  0.5522630000000 1.0
C      1  0.5378270000000  0.4038700000000  0.4675420000000 1.0
C      1  0.4892090000000  0.5170590000000  0.4039090000000 1.0
C      1  0.5126630000000  0.5164140000000  0.5697760000000 1.0
C      1  0.4217520000000  0.4366640000000  0.4402770000000 1.0
C      1  0.4671680000000  0.5262890000000  0.5991400000000 1.0
C      1  0.5605910000000  0.5589700000000  0.5806940000000 1.0
C      1  0.6010530000000  0.4984510000000  0.5305640000000 1.0
C      1  0.5160210000000  0.4389250000000  0.4609420000000 1.0
C      1  0.5361280000000  0.5123300000000  0.5486410000000 1.0
C      1  0.4596730000000  0.4508770000000  0.4169940000000 1.0
C      1  0.5213000000000  0.5839920000000  0.5577860000000 1.0
C      1  0.5078340000000  0.4449240000000  0.4080780000000 1.0
C      1  0.4907450000000  0.5768230000000  0.4677070000000 1.0
C      1  0.4284820000000  0.4183740000000  0.4846000000000 1.0
C      1  0.5736330000000  0.5411840000000  0.5282780000000 1.0
C      1  0.5660020000000  0.5216420000000  0.4179130000000 1.0
C      1  0.5989110000000  0.5662570000000  0.5013340000000 1.0
C      1  0.4919690000000  0.4052330000000  0.4432090000000 1.0
C      1  0.5667780000000  0.5916200000000  0.5386540000000 1.0
C      1  0.4946930000000  0.6063920000000  0.5056090000000 1.0
C      1  0.6049500000000  0.5380670000000  0.4992870000000 1.0
C      1  0.3826150000000  0.4889330000000  0.5450510000000 1.0
C      1  0.4179750000000  0.5012570000000  0.5131720000000 1.0
C      1  0.5565560000000  0.4555700000000  0.4379750000000 1.0
C      1  0.4900280000000  0.4883000000000  0.4064970000000 1.0
C      1  0.4730340000000  0.4622410000000  0.4440480000000 1.0
C      1  0.5908720000000  0.5762590000000  0.4751410000000 1.0
C      1  0.5824220000000  0.5479160000000  0.4254920000000 1.0
C      1  0.4048480000000  0.5579000000000  0.5048700000000 1.0
C      1  0.5811390000000  0.4604670000000  0.5434550000000 1.0
C      1  0.4826310000000  0.5129720000000  0.5556190000000 1.0
C      1  0.4589700000000  0.4264910000000  0.5597980000000 1.0
C      1  0.5219130000000  0.3977270000000  0.5376550000000 1.0
C      1  0.4053640000000  0.4666860000000  0.4748430000000 1.0
C      1  0.5388770000000  0.5919980000000  0.4562080000000 1.0
C      1  0.5319170000000  0.5322250000000  0.4550790000000 1.0
C      1  0.5463130000000  0.5349980000000  0.5333580000000 1.0
C      1  0.5500520000000  0.4085600000000  0.5397850000000 1.0
C      1  0.5092650000000  0.5322020000000  0.5175280000000 1.0
C      1  0.4745290000000  0.4601350000000  0.5222040000000 1.0
C      1  0.4546300000000  0.5005130000000  0.4944850000000 1.0
C      1  0.4984510000000  0.5808060000000  0.4399750000000 1.0
C      1  0.5042790000000  0.5037060000000  0.5163250000000 1.0
C      1  0.5146610000000  0.5705440000000  0.5099020000000 1.0
C      1  0.4730340000000  0.5548190000000  0.4736160000000 1.0
C      1  0.4902490000000  0.4783620000000  0.4786640000000 1.0
C      1  0.4383030000000  0.4727100000000  0.4145050000000 1.0
C      1  0.3977280000000  0.5101490000000  0.5552040000000 1.0
C      1  0.4497480000000  0.5075960000000  0.4504840000000 1.0
C      1  0.4479470000000  0.4534680000000  0.4917360000000 1.0
C      1  0.4683110000000  0.4508680000000  0.6000670000000 1.0
C      1  0.5599530000000  0.4464020000000  0.4824430000000 1.0
C      1  0.4230180000000  0.5560470000000  0.5544600000000 1.0
C      1  0.4604800000000  0.5202380000000  0.4057900000000 1.0
C      1  0.4470890000000  0.4262210000000  0.4309220000000 1.0
C      1  0.5387410000000  0.5179220000000  0.4104070000000 1.0
C      1  0.5467320000000  0.4341100000000  0.4588310000000 1.0
C      1  0.4513990000000  0.5789490000000  0.4482970000000 1.0
C      1  0.5058300000000  0.4785150000000  0.5033460000000 1.0
C      1  0.4354670000000  0.5316740000000  0.4543740000000 1.0
C      1  0.3989380000000  0.5410430000000  0.5523390000000 1.0
C      1  0.5058230000000  0.4292760000000  0.4354680000000 1.0
C      1  0.5668840000000  0.5817520000000  0.5650780000000 1.0
C      1  0.5976920000000  0.4936950000000  0.4814960000000 1.0
C      1  0.4035810000000  0.4783030000000  0.5018030000000 1.0
C      1  0.4409530000000  0.5174690000000  0.5926200000000 1.0
C      1  0.4681100000000  0.5264180000000  0.5382980000000 1.0
C      1  0.5442760000000  0.3996520000000  0.4953730000000 1.0
C      1  0.4203730000000  0.5339930000000  0.4296500000000 1.0
C      1  0.5473130000000  0.4454170000000  0.5078430000000 1.0
C      1  0.5163310000000  0.4696230000000  0.5932850000000 1.0
C      1  0.4557710000000  0.5718030000000  0.5198180000000 1.0
C      1  0.4484220000000  0.4985430000000  0.4227590000000 1.0
C      1  0.5444870000000  0.4687870000000  0.5833330000000 1.0
C      1  0.5258220000000  0.4660440000000  0.4043460000000 1.0
C      1  0.5957280000000  0.5219620000000  0.4771590000000 1.0
C      1  0.4823280000000  0.4363330000000  0.5064550000000 1.0
C      1  0.4662420000000  0.4772140000000  0.6065790000000 1.0
C      1  0.4847820000000  0.4603470000000  0.3997950000000 1.0
C      1  0.4818790000000  0.5501230000000  0.5860150000000 1.0
C      1  0.5432780000000  0.4887020000000  0.4039730000000 1.0
C      1  0.5381310000000  0.5951940000000  0.5368950000000 1.0
C      1  0.5855790000000  0.5681630000000  0.5292680000000 1.0
C      1  0.5513200000000  0.4606660000000  0.5538730000000 1.0
C      1  0.4991030000000  0.3859450000000  0.4891040000000 1.0
C      1  0.5856980000000  0.4886630000000  0.5079840000000 1.0
C      1  0.4708480000000  0.3924880000000  0.4936170000000 1.0
C      1  0.5419840000000  0.4783800000000  0.4475200000000 1.0
C      1  0.5309660000000  0.5629940000000  0.5770060000000 1.0
C      1  0.4207030000000  0.5694320000000  0.4867520000000 1.0
C      1  0.5698810000000  0.5912970000000  0.4834260000000 1.0
C      1  0.5808720000000  0.4712380000000  0.4383410000000 1.0
C      1  0.3945630000000  0.4683650000000  0.5291440000000 1.0
C      1  0.4495580000000  0.4191160000000  0.5333440000000 1.0
C      1  0.5702360000000  0.4914060000000  0.4191030000000 1.0
C      1  0.4033560000000  0.4818270000000  0.4483260000000 1.0
C      1  0.4941260000000  0.4502120000000  0.5914880000000 1.0
C      1  0.5926480000000  0.4859150000000  0.5549470000000 1.0
C      1  0.4703700000000  0.5039790000000  0.4705070000000 1.0
C      1  0.4643590000000  0.5642250000000  0.4258910000000 1.0
C      1  0.4931320000000  0.5628440000000  0.4211130000000 1.0
C      1  0.5589540000000  0.4188770000000  0.5136350000000 1.0
C      1  0.4545560000000  0.5963890000000  0.4721940000000 1.0
C      1  0.4153050000000  0.4631490000000  0.4287790000000 1.0
C      1  0.4825930000000  0.6023040000000  0.4796850000000 1.0
C      1  0.4725540000000  0.4104690000000  0.5170640000000 1.0
C      1  0.4184730000000  0.4685440000000  0.5480400000000 1.0
C      1  0.5092030000000  0.5323280000000  0.4496370000000 1.0
C      1  0.5806110000000  0.5560750000000  0.4524720000000 1.0
C      1  0.5870330000000  0.4519190000000  0.4878270000000 1.0
C      1  0.5168230000000  0.4896180000000  0.4465800000000 1.0
C      1  0.5250350000000  0.5830690000000  0.4361860000000 1.0
C      1  0.5624340000000  0.4892900000000  0.5834960000000 1.0
C      1  0.4816910000000  0.4649800000000  0.5489330000000 1.0
C      1  0.5100440000000  0.5437470000000  0.5826370000000 1.0
C      1  0.5106850000000  0.3938750000000  0.4633040000000 1.0
C      1  0.5821950000000  0.5050830000000  0.5754610000000 1.0
C      1  0.5128400000000  0.4214820000000  0.5532270000000 1.0
C      1  0.5976760000000  0.5549090000000  0.5593860000000 1.0
C      1  0.4830520000000  0.5009990000000  0.6065650000000 1.0
C      1  0.4463710000000  0.5703810000000  0.5501850000000 1.0
C      1  0.5934100000000  0.4708330000000  0.4655170000000 1.0
END
