TITL C-4164246-3563-126 6.380475822888 125000 -25547.4151212621 0 0 171 (C1) n - 1
REM
REM in /home/nfs/bkarasulu/CARBON/AIRSS/Generating-Clusters/ReaxFF-fromJPCA2015/Units_Real/with-SteepDescent/Only-C1/SD-CG/Try1-3A/FIRE-CG
REM
REM
REM
REM
REM
REM ./C.cell (11c1c37f851c82e70ff6c80c92926a4b)
REM
REM compiler GCC version 9.2.1 20190827 (Red Hat 9.2.1-1)
REM options -cpp -mtune=generic -march=x86-64 -g -O0 -fpre-include=/usr/include/finclude/math-vector-fortran.h
REM seed -1483637610 85807811 560930449 -458007776 786172119 492888665 -1628138296 -269316666 -912246509 1862669513 164653751 -1979872994 -254600805 1888363346 -919177379 -297165917 1432182090 1948621213 1117990722 1319805321 -16000981 807804861 -1712899749 -919513145 723625855 1194472106 -1940146672 -994585665 -1628737475 1419481545 -670274681 1622078864 1320386559
REM
CELL 1.54180   50.00000   50.00000   50.00000   90.00000   90.00000   90.00000
LATT -1
SFAC C  
C      1  0.5831520000000  0.4382700000000  0.4387230000000 1.0
C      1  0.5417270000000  0.4144010000000  0.4479530000000 1.0
C      1  0.4470860000000  0.5353220000000  0.4833540000000 1.0
C      1  0.5291730000000  0.4594140000000  0.5195340000000 1.0
C      1  0.4929780000000  0.4813230000000  0.4650340000000 1.0
C      1  0.5213970000000  0.5599340000000  0.5212250000000 1.0
C      1  0.5232530000000  0.4213700000000  0.5807990000000 1.0
C      1  0.4521900000000  0.5768740000000  0.5524820000000 1.0
C      1  0.4146780000000  0.4591680000000  0.5085260000000 1.0
C      1  0.5349070000000  0.4723780000000  0.5899180000000 1.0
C      1  0.4946100000000  0.4861080000000  0.5207550000000 1.0
C      1  0.4750880000000  0.5576920000000  0.5174120000000 1.0
C      1  0.5242130000000  0.4941870000000  0.4252120000000 1.0
C      1  0.6115030000000  0.5363710000000  0.4760940000000 1.0
C      1  0.4396300000000  0.5968630000000  0.5005890000000 1.0
C      1  0.4889860000000  0.4803420000000  0.5669970000000 1.0
C      1  0.5116070000000  0.5927970000000  0.5459570000000 1.0
C      1  0.5366510000000  0.4792760000000  0.4474500000000 1.0
C      1  0.3925090000000  0.5304020000000  0.5461880000000 1.0
C      1  0.5732830000000  0.4944580000000  0.5097860000000 1.0
C      1  0.5879390000000  0.5370040000000  0.4579010000000 1.0
C      1  0.4837620000000  0.4683700000000  0.5411390000000 1.0
C      1  0.5366360000000  0.4732200000000  0.5613560000000 1.0
C      1  0.4386270000000  0.4891360000000  0.4677980000000 1.0
C      1  0.3907540000000  0.4873780000000  0.4620350000000 1.0
C      1  0.4512700000000  0.5642220000000  0.4142400000000 1.0
C      1  0.3840480000000  0.4725910000000  0.4846120000000 1.0
C      1  0.4295730000000  0.5190140000000  0.4133990000000 1.0
C      1  0.5403800000000  0.4068330000000  0.5025370000000 1.0
C      1  0.4245740000000  0.4168220000000  0.4758830000000 1.0
C      1  0.4689720000000  0.5399090000000  0.5823790000000 1.0
C      1  0.3943810000000  0.5021330000000  0.5540090000000 1.0
C      1  0.5586440000000  0.4561400000000  0.4109990000000 1.0
C      1  0.5722650000000  0.4304210000000  0.4785950000000 1.0
C      1  0.4865000000000  0.5638540000000  0.5830740000000 1.0
C      1  0.4243290000000  0.5272570000000  0.4405580000000 1.0
C      1  0.4805350000000  0.4878500000000  0.4419030000000 1.0
C      1  0.6205640000000  0.5126080000000  0.4637090000000 1.0
C      1  0.5974690000000  0.4852110000000  0.5585650000000 1.0
C      1  0.5792790000000  0.5749090000000  0.5101090000000 1.0
C      1  0.3843920000000  0.5219280000000  0.5198120000000 1.0
C      1  0.5637500000000  0.5036260000000  0.5342050000000 1.0
C      1  0.5614830000000  0.4831300000000  0.4611740000000 1.0
C      1  0.5112550000000  0.3974150000000  0.4717020000000 1.0
C      1  0.4247980000000  0.5160060000000  0.6000690000000 1.0
C      1  0.4652380000000  0.4636880000000  0.4431110000000 1.0
C      1  0.4782320000000  0.5154310000000  0.4505380000000 1.0
C      1  0.5452090000000  0.6155170000000  0.4876730000000 1.0
C      1  0.4236150000000  0.4939390000000  0.5566830000000 1.0
C      1  0.4728990000000  0.4292980000000  0.5854220000000 1.0
C      1  0.4677700000000  0.5548270000000  0.4878550000000 1.0
C      1  0.3867000000000  0.4701350000000  0.5123270000000 1.0
C      1  0.4927240000000  0.5088770000000  0.5635660000000 1.0
C      1  0.4031810000000  0.5277570000000  0.4983770000000 1.0
C      1  0.5971910000000  0.4319180000000  0.4616470000000 1.0
C      1  0.5310490000000  0.4413040000000  0.4984090000000 1.0
C      1  0.4529400000000  0.4452070000000  0.5965100000000 1.0
C      1  0.4052010000000  0.5602770000000  0.4953820000000 1.0
C      1  0.5381770000000  0.5146260000000  0.6259090000000 1.0
C      1  0.4403540000000  0.4753550000000  0.4944800000000 1.0
C      1  0.4656490000000  0.4181500000000  0.4761820000000 1.0
C      1  0.5824210000000  0.5357970000000  0.5682700000000 1.0
C      1  0.5192790000000  0.6067630000000  0.4940310000000 1.0
C      1  0.4201350000000  0.4352350000000  0.5247470000000 1.0
C      1  0.5680090000000  0.5728540000000  0.4839360000000 1.0
C      1  0.5852240000000  0.5087690000000  0.5538300000000 1.0
C      1  0.5103410000000  0.4454340000000  0.4787730000000 1.0
C      1  0.4775260000000  0.5048340000000  0.3864980000000 1.0
C      1  0.5136490000000  0.3934540000000  0.4989620000000 1.0
C      1  0.5159220000000  0.5521450000000  0.4693240000000 1.0
C      1  0.4586970000000  0.4730050000000  0.6058790000000 1.0
C      1  0.4721700000000  0.5192840000000  0.6039260000000 1.0
C      1  0.6069150000000  0.5306420000000  0.5050850000000 1.0
C      1  0.4487920000000  0.5404580000000  0.4007520000000 1.0
C      1  0.5995680000000  0.4400920000000  0.5300120000000 1.0
C      1  0.5529020000000  0.4089370000000  0.4739680000000 1.0
C      1  0.4284250000000  0.4679800000000  0.5645050000000 1.0
C      1  0.4598270000000  0.5665480000000  0.5774580000000 1.0
C      1  0.5404200000000  0.4582010000000  0.3914730000000 1.0
C      1  0.5847710000000  0.5163440000000  0.4396840000000 1.0
C      1  0.5337280000000  0.5864470000000  0.4515490000000 1.0
C      1  0.6046940000000  0.4580940000000  0.5549820000000 1.0
C      1  0.4106870000000  0.5502690000000  0.5567110000000 1.0
C      1  0.4639520000000  0.6022500000000  0.5132590000000 1.0
C      1  0.5590110000000  0.4318740000000  0.4291850000000 1.0
C      1  0.4940070000000  0.4139970000000  0.5745520000000 1.0
C      1  0.4995760000000  0.4902430000000  0.3807650000000 1.0
C      1  0.5114840000000  0.5984650000000  0.4660400000000 1.0
C      1  0.5238210000000  0.5006150000000  0.6048730000000 1.0
C      1  0.6213790000000  0.4398610000000  0.4793980000000 1.0
C      1  0.5614240000000  0.4904710000000  0.4081050000000 1.0
C      1  0.5183510000000  0.5486060000000  0.5471230000000 1.0
C      1  0.5633020000000  0.5158620000000  0.4225120000000 1.0
C      1  0.4225630000000  0.5762700000000  0.5129220000000 1.0
C      1  0.4571590000000  0.4826000000000  0.3945380000000 1.0
C      1  0.4492360000000  0.3988790000000  0.4881350000000 1.0
C      1  0.5620300000000  0.5466320000000  0.4704120000000 1.0
C      1  0.5846760000000  0.5573600000000  0.5481080000000 1.0
C      1  0.4677980000000  0.4553470000000  0.3964490000000 1.0
C      1  0.5535340000000  0.4118460000000  0.5293500000000 1.0
C      1  0.5421100000000  0.5923600000000  0.5472640000000 1.0
C      1  0.5414280000000  0.5350010000000  0.4271560000000 1.0
C      1  0.5593560000000  0.4795500000000  0.4889040000000 1.0
C      1  0.4151890000000  0.4397130000000  0.4643210000000 1.0
C      1  0.5195960000000  0.5211730000000  0.5582460000000 1.0
C      1  0.4735450000000  0.5828620000000  0.5327300000000 1.0
C      1  0.5308140000000  0.4212220000000  0.5502650000000 1.0
C      1  0.4271040000000  0.5691030000000  0.5408730000000 1.0
C      1  0.6017900000000  0.5020110000000  0.5084610000000 1.0
C      1  0.4908760000000  0.5292420000000  0.4281280000000 1.0
C      1  0.4982960000000  0.5061180000000  0.4796140000000 1.0
C      1  0.4938570000000  0.5016190000000  0.6029370000000 1.0
C      1  0.5129230000000  0.4059690000000  0.4440190000000 1.0
C      1  0.4771140000000  0.5315750000000  0.4018580000000 1.0
C      1  0.3813490000000  0.4941650000000  0.5289310000000 1.0
C      1  0.4365010000000  0.4752050000000  0.4412390000000 1.0
C      1  0.4814650000000  0.5995120000000  0.4622750000000 1.0
C      1  0.5268730000000  0.5034530000000  0.4877890000000 1.0
C      1  0.4475730000000  0.5173850000000  0.4609220000000 1.0
C      1  0.4934570000000  0.4235270000000  0.4316350000000 1.0
C      1  0.5442730000000  0.5262300000000  0.4883480000000 1.0
C      1  0.4633860000000  0.6036910000000  0.4856460000000 1.0
C      1  0.5071460000000  0.5689220000000  0.5633030000000 1.0
C      1  0.5879780000000  0.4906550000000  0.4510530000000 1.0
C      1  0.5357460000000  0.4980700000000  0.3977280000000 1.0
C      1  0.5154140000000  0.4658050000000  0.4608490000000 1.0
C      1  0.5178780000000  0.5211450000000  0.4272020000000 1.0
C      1  0.6152640000000  0.4795150000000  0.4951020000000 1.0
C      1  0.5670470000000  0.5799540000000  0.5388730000000 1.0
C      1  0.5321060000000  0.4506820000000  0.5453310000000 1.0
C      1  0.3994310000000  0.5648220000000  0.4676370000000 1.0
C      1  0.3950690000000  0.5157100000000  0.4695240000000 1.0
C      1  0.5232200000000  0.5442750000000  0.4968970000000 1.0
C      1  0.5026590000000  0.4080660000000  0.5468860000000 1.0
C      1  0.3996860000000  0.5376840000000  0.4517360000000 1.0
C      1  0.4811010000000  0.4412830000000  0.4832430000000 1.0
C      1  0.4085540000000  0.4633890000000  0.4523020000000 1.0
C      1  0.4345580000000  0.4423180000000  0.5719790000000 1.0
C      1  0.4455480000000  0.5072970000000  0.5407380000000 1.0
C      1  0.5582620000000  0.5312200000000  0.5801740000000 1.0
C      1  0.5336880000000  0.5257230000000  0.5869820000000 1.0
C      1  0.5364790000000  0.4987670000000  0.5429910000000 1.0
C      1  0.4176410000000  0.5385180000000  0.5828570000000 1.0
C      1  0.4731190000000  0.5866160000000  0.4390630000000 1.0
C      1  0.6144460000000  0.4516880000000  0.5054000000000 1.0
C      1  0.4799710000000  0.5318580000000  0.5262830000000 1.0
C      1  0.4370860000000  0.4917310000000  0.4136150000000 1.0
C      1  0.4645130000000  0.4495380000000  0.5299170000000 1.0
C      1  0.4915590000000  0.5549230000000  0.4729230000000 1.0
C      1  0.4434160000000  0.4342740000000  0.5439120000000 1.0
C      1  0.5950730000000  0.5526520000000  0.5209620000000 1.0
C      1  0.4625430000000  0.4561250000000  0.5013870000000 1.0
C      1  0.4852470000000  0.4764880000000  0.5956920000000 1.0
C      1  0.4742130000000  0.5687550000000  0.4196250000000 1.0
C      1  0.4323330000000  0.5243210000000  0.5055990000000 1.0
C      1  0.4692460000000  0.5217040000000  0.5512500000000 1.0
C      1  0.6139760000000  0.4853930000000  0.4654440000000 1.0
C      1  0.4476080000000  0.5022510000000  0.5131810000000 1.0
C      1  0.5247580000000  0.4778620000000  0.3773460000000 1.0
C      1  0.5555860000000  0.5959840000000  0.4692220000000 1.0
C      1  0.5397310000000  0.5570960000000  0.4475040000000 1.0
C      1  0.4925210000000  0.3964680000000  0.5220280000000 1.0
C      1  0.5292080000000  0.4462320000000  0.5916800000000 1.0
C      1  0.5571620000000  0.4516800000000  0.4918270000000 1.0
C      1  0.4810030000000  0.5083030000000  0.5074090000000 1.0
C      1  0.5134000000000  0.5873900000000  0.5171230000000 1.0
C      1  0.4670110000000  0.3962430000000  0.5099310000000 1.0
C      1  0.5765220000000  0.4259520000000  0.5296810000000 1.0
C      1  0.4739840000000  0.4422950000000  0.4233160000000 1.0
C      1  0.5229890000000  0.4873640000000  0.5169860000000 1.0
C      1  0.4500900000000  0.5013100000000  0.6068530000000 1.0
END
