TITL C-4164247-2821-594 29.9683418840375 125000 -29913.9242888802 0 0 200 (C1) n - 1
REM
REM in /home/nfs/bkarasulu/CARBON/AIRSS/Generating-Clusters/ReaxFF-fromJPCA2015/Units_Real/with-SteepDescent/Only-C1/SD-CG/Try1-3A/FIRE-CG
REM
REM
REM
REM
REM
REM ./C.cell (11c1c37f851c82e70ff6c80c92926a4b)
REM
REM compiler GCC version 9.2.1 20190827 (Red Hat 9.2.1-1)
REM options -cpp -mtune=generic -march=x86-64 -g -O0 -fpre-include=/usr/include/finclude/math-vector-fortran.h
REM seed -82067293 -1808543334 -637396272 -1116238439 -640057314 -1998784093 1326932200 -1259913205 -517093208 -103026637 1429385646 -789823455 -1113963928 2103741966 -643177028 811075300 2053848584 613084474 1488234036 -1118025004 -1650794687 1652083776 1231781342 -1707120624 1725341133 -1792108806 -1878902931 2048332578 -2063445572 1962783013 2093124055 -544853765 601598499
REM
CELL 1.54180   50.00000   50.00000   50.00000   90.00000   90.00000   90.00000
LATT -1
SFAC C  
C      1  0.4206450000000  0.4688490000000  0.4168660000000 1.0
C      1  0.4968500000000  0.5309830000000  0.5617760000000 1.0
C      1  0.5777550000000  0.5695840000000  0.5122130000000 1.0
C      1  0.5799840000000  0.5169180000000  0.4315010000000 1.0
C      1  0.4550910000000  0.4622880000000  0.5869690000000 1.0
C      1  0.5234130000000  0.6286830000000  0.4893050000000 1.0
C      1  0.4879700000000  0.4619740000000  0.5531580000000 1.0
C      1  0.4606140000000  0.4092050000000  0.4800780000000 1.0
C      1  0.4945740000000  0.5314240000000  0.3909020000000 1.0
C      1  0.4687490000000  0.4342980000000  0.4365940000000 1.0
C      1  0.4864150000000  0.5955370000000  0.5686130000000 1.0
C      1  0.5622770000000  0.5023020000000  0.4503660000000 1.0
C      1  0.3884940000000  0.4920420000000  0.4905160000000 1.0
C      1  0.4061690000000  0.5465030000000  0.5096210000000 1.0
C      1  0.3993050000000  0.4658030000000  0.4370070000000 1.0
C      1  0.4062850000000  0.4542460000000  0.5378260000000 1.0
C      1  0.4325960000000  0.5042870000000  0.5040040000000 1.0
C      1  0.5427420000000  0.3975110000000  0.5226430000000 1.0
C      1  0.4319370000000  0.4113870000000  0.4865550000000 1.0
C      1  0.4794790000000  0.5800930000000  0.4116960000000 1.0
C      1  0.5064060000000  0.3999690000000  0.4348070000000 1.0
C      1  0.4107380000000  0.4872450000000  0.5718740000000 1.0
C      1  0.5017910000000  0.3872320000000  0.4609810000000 1.0
C      1  0.4443850000000  0.4230100000000  0.4228810000000 1.0
C      1  0.5197530000000  0.5973240000000  0.4364490000000 1.0
C      1  0.5035220000000  0.4704820000000  0.6125170000000 1.0
C      1  0.5460620000000  0.6179310000000  0.4764950000000 1.0
C      1  0.4712150000000  0.4825520000000  0.5667220000000 1.0
C      1  0.5937830000000  0.4455540000000  0.5024940000000 1.0
C      1  0.5545070000000  0.5197160000000  0.6020440000000 1.0
C      1  0.4690960000000  0.5551910000000  0.5953530000000 1.0
C      1  0.4976610000000  0.5075720000000  0.3738550000000 1.0
C      1  0.5213480000000  0.3843970000000  0.5072300000000 1.0
C      1  0.4919120000000  0.5110430000000  0.6093190000000 1.0
C      1  0.4984100000000  0.5129070000000  0.5400070000000 1.0
C      1  0.4936170000000  0.6008290000000  0.5149620000000 1.0
C      1  0.6155840000000  0.5338810000000  0.5172680000000 1.0
C      1  0.5255000000000  0.3858840000000  0.4782350000000 1.0
C      1  0.5731220000000  0.4903780000000  0.5040420000000 1.0
C      1  0.4692730000000  0.5015270000000  0.3782570000000 1.0
C      1  0.5430970000000  0.5985220000000  0.4529660000000 1.0
C      1  0.4396810000000  0.4775310000000  0.5079830000000 1.0
C      1  0.5182630000000  0.5739170000000  0.5989040000000 1.0
C      1  0.4304040000000  0.5708290000000  0.4722000000000 1.0
C      1  0.5585500000000  0.4101530000000  0.4220320000000 1.0
C      1  0.5597020000000  0.4708640000000  0.4877630000000 1.0
C      1  0.5461310000000  0.5273260000000  0.4624970000000 1.0
C      1  0.4153250000000  0.4283310000000  0.5367540000000 1.0
C      1  0.4967330000000  0.6274580000000  0.4966360000000 1.0
C      1  0.4563950000000  0.4355910000000  0.5702900000000 1.0
C      1  0.5564000000000  0.6078750000000  0.5023070000000 1.0
C      1  0.5017730000000  0.5526980000000  0.4566510000000 1.0
C      1  0.5800190000000  0.4478410000000  0.4518400000000 1.0
C      1  0.5630880000000  0.5775310000000  0.4586890000000 1.0
C      1  0.5699310000000  0.4093070000000  0.4827290000000 1.0
C      1  0.6171620000000  0.5224960000000  0.4899660000000 1.0
C      1  0.4272280000000  0.5374010000000  0.4359280000000 1.0
C      1  0.5320020000000  0.4031740000000  0.4288150000000 1.0
C      1  0.6149340000000  0.4653900000000  0.4968700000000 1.0
C      1  0.4758630000000  0.4677450000000  0.6111320000000 1.0
C      1  0.5577730000000  0.5508830000000  0.4737810000000 1.0
C      1  0.5337140000000  0.5144760000000  0.5083680000000 1.0
C      1  0.4171320000000  0.5940980000000  0.5200800000000 1.0
C      1  0.4332570000000  0.4828260000000  0.5905050000000 1.0
C      1  0.5716600000000  0.4304270000000  0.5499450000000 1.0
C      1  0.4994150000000  0.5071300000000  0.4385870000000 1.0
C      1  0.4866940000000  0.6278100000000  0.4685000000000 1.0
C      1  0.5064430000000  0.5334070000000  0.6198170000000 1.0
C      1  0.5665820000000  0.5749070000000  0.5384110000000 1.0
C      1  0.5226530000000  0.5551210000000  0.5191460000000 1.0
C      1  0.4461660000000  0.5050310000000  0.6049750000000 1.0
C      1  0.4575890000000  0.5283890000000  0.5914790000000 1.0
C      1  0.5319550000000  0.4038130000000  0.5719310000000 1.0
C      1  0.6223540000000  0.4930470000000  0.4864640000000 1.0
C      1  0.4390050000000  0.4923800000000  0.4129180000000 1.0
C      1  0.5212890000000  0.4971840000000  0.5279750000000 1.0
C      1  0.4654550000000  0.4585980000000  0.4517400000000 1.0
C      1  0.5089270000000  0.5787930000000  0.4147550000000 1.0
C      1  0.4654550000000  0.4816530000000  0.4017570000000 1.0
C      1  0.3986320000000  0.4646280000000  0.4858430000000 1.0
C      1  0.5761710000000  0.4764730000000  0.5866660000000 1.0
C      1  0.4954880000000  0.6029090000000  0.4526010000000 1.0
C      1  0.5767560000000  0.5421990000000  0.4952170000000 1.0
C      1  0.5878280000000  0.4786500000000  0.5268790000000 1.0
C      1  0.5495730000000  0.5200260000000  0.5544510000000 1.0
C      1  0.4964600000000  0.6095020000000  0.5447270000000 1.0
C      1  0.5170460000000  0.5498720000000  0.4104710000000 1.0
C      1  0.4912360000000  0.3822840000000  0.5076960000000 1.0
C      1  0.5373490000000  0.5443940000000  0.5419460000000 1.0
C      1  0.4452890000000  0.5899750000000  0.4903160000000 1.0
C      1  0.5195430000000  0.5832930000000  0.5166320000000 1.0
C      1  0.5403410000000  0.5004940000000  0.4116520000000 1.0
C      1  0.5200340000000  0.5364800000000  0.4728070000000 1.0
C      1  0.5597740000000  0.5227890000000  0.4104260000000 1.0
C      1  0.4117870000000  0.4213110000000  0.4654990000000 1.0
C      1  0.5033430000000  0.5357750000000  0.4331080000000 1.0
C      1  0.3997960000000  0.4944800000000  0.4435450000000 1.0
C      1  0.5331680000000  0.4592760000000  0.4912580000000 1.0
C      1  0.4929770000000  0.5025570000000  0.4841070000000 1.0
C      1  0.4720480000000  0.5609370000000  0.5231970000000 1.0
C      1  0.4842450000000  0.5763370000000  0.4583470000000 1.0
C      1  0.5149260000000  0.4942400000000  0.4057600000000 1.0
C      1  0.5423440000000  0.5954600000000  0.5306850000000 1.0
C      1  0.5754280000000  0.4751590000000  0.4646900000000 1.0
C      1  0.5156120000000  0.4496080000000  0.4179230000000 1.0
C      1  0.5856490000000  0.4328680000000  0.4764290000000 1.0
C      1  0.5554060000000  0.4598510000000  0.4093260000000 1.0
C      1  0.4619590000000  0.4709360000000  0.5224850000000 1.0
C      1  0.4931490000000  0.4268210000000  0.4210770000000 1.0
C      1  0.4467090000000  0.3999150000000  0.5346210000000 1.0
C      1  0.4700900000000  0.4949010000000  0.6203130000000 1.0
C      1  0.5706340000000  0.5595690000000  0.5617910000000 1.0
C      1  0.3896940000000  0.5099230000000  0.4664450000000 1.0
C      1  0.5687050000000  0.4046560000000  0.5117210000000 1.0
C      1  0.5641280000000  0.4730880000000  0.5425060000000 1.0
C      1  0.3894080000000  0.4986580000000  0.5188690000000 1.0
C      1  0.5107060000000  0.4947590000000  0.4627430000000 1.0
C      1  0.4093440000000  0.5526550000000  0.4795370000000 1.0
C      1  0.4705660000000  0.4938190000000  0.4687630000000 1.0
C      1  0.4076150000000  0.5699320000000  0.5300530000000 1.0
C      1  0.4709910000000  0.5147110000000  0.5325780000000 1.0
C      1  0.5732770000000  0.4560310000000  0.5640280000000 1.0
C      1  0.4029560000000  0.5113640000000  0.5668290000000 1.0
C      1  0.5127820000000  0.4660310000000  0.4658080000000 1.0
C      1  0.5251000000000  0.4639150000000  0.4403330000000 1.0
C      1  0.3942330000000  0.5340790000000  0.5532370000000 1.0
C      1  0.4596970000000  0.5201510000000  0.4676430000000 1.0
C      1  0.4166860000000  0.5535360000000  0.5524890000000 1.0
C      1  0.4664350000000  0.5540700000000  0.5496870000000 1.0
C      1  0.4905890000000  0.4885860000000  0.4183190000000 1.0
C      1  0.5716410000000  0.5872500000000  0.4911380000000 1.0
C      1  0.4694970000000  0.5717070000000  0.5715340000000 1.0
C      1  0.4276010000000  0.4601430000000  0.4882920000000 1.0
C      1  0.5335460000000  0.4513670000000  0.5897590000000 1.0
C      1  0.5011590000000  0.4254850000000  0.5065520000000 1.0
C      1  0.4414650000000  0.5206110000000  0.4167200000000 1.0
C      1  0.4272690000000  0.4098870000000  0.5150660000000 1.0
C      1  0.4353890000000  0.5297470000000  0.5180860000000 1.0
C      1  0.4230860000000  0.4227170000000  0.4409880000000 1.0
C      1  0.5414380000000  0.4907750000000  0.5492890000000 1.0
C      1  0.4046650000000  0.5338410000000  0.4580990000000 1.0
C      1  0.5141940000000  0.5953280000000  0.5795840000000 1.0
C      1  0.5494560000000  0.5486750000000  0.4155780000000 1.0
C      1  0.5908480000000  0.5402360000000  0.4454430000000 1.0
C      1  0.5180620000000  0.4650650000000  0.5196120000000 1.0
C      1  0.5442650000000  0.5608570000000  0.6051020000000 1.0
C      1  0.4861270000000  0.4523670000000  0.4691510000000 1.0
C      1  0.4914580000000  0.4163370000000  0.5338300000000 1.0
C      1  0.5298490000000  0.4603390000000  0.3945860000000 1.0
C      1  0.5679750000000  0.4399820000000  0.4264970000000 1.0
C      1  0.4818160000000  0.4337240000000  0.5567280000000 1.0
C      1  0.5274390000000  0.4207240000000  0.5942930000000 1.0
C      1  0.4591990000000  0.4497430000000  0.3933780000000 1.0
C      1  0.5272580000000  0.4298930000000  0.4935260000000 1.0
C      1  0.6022400000000  0.5412310000000  0.5420370000000 1.0
C      1  0.4801220000000  0.4308920000000  0.4869960000000 1.0
C      1  0.5997590000000  0.4964710000000  0.5472830000000 1.0
C      1  0.4390820000000  0.4646880000000  0.4618030000000 1.0
C      1  0.5188590000000  0.4854250000000  0.3812890000000 1.0
C      1  0.6066420000000  0.4753150000000  0.4709100000000 1.0
C      1  0.4754850000000  0.3927130000000  0.5302490000000 1.0
C      1  0.4792360000000  0.4293030000000  0.3924450000000 1.0
C      1  0.5239500000000  0.6067910000000  0.5533880000000 1.0
C      1  0.4565370000000  0.4912150000000  0.5421530000000 1.0
C      1  0.4335640000000  0.5097840000000  0.4756000000000 1.0
C      1  0.4327370000000  0.4444740000000  0.4055340000000 1.0
C      1  0.4651780000000  0.5360820000000  0.5106480000000 1.0
C      1  0.5425880000000  0.4183860000000  0.5455570000000 1.0
C      1  0.4274250000000  0.4903130000000  0.4549010000000 1.0
C      1  0.4411020000000  0.5389220000000  0.5462290000000 1.0
C      1  0.5296060000000  0.4634010000000  0.5637910000000 1.0
C      1  0.4381550000000  0.5625790000000  0.4449550000000 1.0
C      1  0.3891830000000  0.5265680000000  0.5247230000000 1.0
C      1  0.3989540000000  0.4790170000000  0.5414360000000 1.0
C      1  0.5170220000000  0.5347890000000  0.5001770000000 1.0
C      1  0.4282880000000  0.6141600000000  0.5034480000000 1.0
C      1  0.5990360000000  0.5377190000000  0.4736400000000 1.0
C      1  0.4802540000000  0.5289340000000  0.4865830000000 1.0
C      1  0.4377300000000  0.4192730000000  0.5553300000000 1.0
C      1  0.4816070000000  0.5126210000000  0.5813880000000 1.0
C      1  0.4638140000000  0.5752780000000  0.4371520000000 1.0
C      1  0.3974610000000  0.4484410000000  0.4616950000000 1.0
C      1  0.5630700000000  0.5480860000000  0.5869300000000 1.0
C      1  0.5695470000000  0.5581140000000  0.4342990000000 1.0
C      1  0.4888810000000  0.4618590000000  0.5244660000000 1.0
C      1  0.4663580000000  0.5253540000000  0.3948640000000 1.0
C      1  0.5614150000000  0.5166630000000  0.5056060000000 1.0
C      1  0.4682660000000  0.5845540000000  0.5075030000000 1.0
C      1  0.5945400000000  0.4956440000000  0.5753060000000 1.0
C      1  0.5367560000000  0.5353590000000  0.6182110000000 1.0
C      1  0.5282760000000  0.4467770000000  0.5416930000000 1.0
C      1  0.4955960000000  0.5577980000000  0.6084510000000 1.0
C      1  0.4798750000000  0.3869160000000  0.4806270000000 1.0
C      1  0.5411280000000  0.4107530000000  0.4764570000000 1.0
C      1  0.5254560000000  0.5341850000000  0.5645050000000 1.0
C      1  0.5318100000000  0.4721990000000  0.6101050000000 1.0
C      1  0.5465870000000  0.4815720000000  0.4313090000000 1.0
C      1  0.5544840000000  0.4908800000000  0.6004980000000 1.0
C      1  0.5840720000000  0.4268280000000  0.5243420000000 1.0
C      1  0.5846360000000  0.5204410000000  0.5584870000000 1.0
END
