TITL C-4164234-2335-299 35.295715577434 125000 -21555.0609374098 0 0 145 (C1) n - 1
REM
REM in /home/nfs/bkarasulu/CARBON/AIRSS/Generating-Clusters/ReaxFF-fromJPCA2015/Units_Real/with-SteepDescent/Only-C1/SD-CG/Try1-3A/FIRE-CG
REM
REM
REM
REM
REM
REM ./C.cell (11c1c37f851c82e70ff6c80c92926a4b)
REM
REM compiler GCC version 9.2.1 20190827 (Red Hat 9.2.1-1)
REM options -cpp -mtune=generic -march=x86-64 -g -O0 -fpre-include=/usr/include/finclude/math-vector-fortran.h
REM seed 19969538 653755098 54779401 1469055655 -468098697 739064666 547820603 953374975 1850251293 -870592871 -307336265 761691582 -774416288 306957153 -1430965847 -2019644934 -1610121219 -110875107 -1855723794 -2035698369 -815366661 1291432850 -117001542 -446454234 223463874 -444749822 -30684495 1077888905 -155945557 1837526349 274172536 1929358947 1956497894
REM
CELL 1.54180   50.00000   50.00000   50.00000   90.00000   90.00000   90.00000
LATT -1
SFAC C  
C      1  0.5090460000000  0.5592640000000  0.4088680000000 1.0
C      1  0.5577150000000  0.5264770000000  0.5142760000000 1.0
C      1  0.4738760000000  0.5219870000000  0.4742270000000 1.0
C      1  0.5083130000000  0.4786120000000  0.5579890000000 1.0
C      1  0.5417230000000  0.4676550000000  0.4573270000000 1.0
C      1  0.3871850000000  0.4891360000000  0.5216500000000 1.0
C      1  0.4834530000000  0.4391010000000  0.5754010000000 1.0
C      1  0.4798620000000  0.5774620000000  0.4700480000000 1.0
C      1  0.5534830000000  0.5193760000000  0.4831380000000 1.0
C      1  0.5517720000000  0.4413930000000  0.4240530000000 1.0
C      1  0.5836540000000  0.4798520000000  0.4495120000000 1.0
C      1  0.4806290000000  0.4416890000000  0.4132700000000 1.0
C      1  0.4307110000000  0.5088010000000  0.4231590000000 1.0
C      1  0.4940500000000  0.4367170000000  0.5308350000000 1.0
C      1  0.5093040000000  0.5892260000000  0.4367540000000 1.0
C      1  0.5354980000000  0.4772940000000  0.5706460000000 1.0
C      1  0.4655280000000  0.4875670000000  0.5505330000000 1.0
C      1  0.5375980000000  0.4851650000000  0.4091030000000 1.0
C      1  0.4893010000000  0.5774650000000  0.4195900000000 1.0
C      1  0.5419810000000  0.4188210000000  0.5294710000000 1.0
C      1  0.5574130000000  0.5174250000000  0.5923560000000 1.0
C      1  0.5840080000000  0.5030750000000  0.5443290000000 1.0
C      1  0.4295300000000  0.5497840000000  0.5801010000000 1.0
C      1  0.5368970000000  0.4094490000000  0.5009030000000 1.0
C      1  0.4912860000000  0.4554870000000  0.4602180000000 1.0
C      1  0.4303210000000  0.4413000000000  0.5438020000000 1.0
C      1  0.6045080000000  0.5066840000000  0.4957870000000 1.0
C      1  0.4686450000000  0.4197040000000  0.5247160000000 1.0
C      1  0.4613670000000  0.5704160000000  0.4823590000000 1.0
C      1  0.5459890000000  0.5787490000000  0.5553260000000 1.0
C      1  0.3966550000000  0.5105300000000  0.4743460000000 1.0
C      1  0.5732800000000  0.4534780000000  0.5498200000000 1.0
C      1  0.4912530000000  0.4968260000000  0.4868660000000 1.0
C      1  0.5134150000000  0.5113190000000  0.4498830000000 1.0
C      1  0.4551400000000  0.5123550000000  0.4079170000000 1.0
C      1  0.4209030000000  0.4446790000000  0.4909200000000 1.0
C      1  0.5888500000000  0.4768210000000  0.5371130000000 1.0
C      1  0.6026200000000  0.5374600000000  0.5030480000000 1.0
C      1  0.4312710000000  0.5299640000000  0.4450070000000 1.0
C      1  0.4316210000000  0.5450500000000  0.5039230000000 1.0
C      1  0.3965440000000  0.5103850000000  0.5041730000000 1.0
C      1  0.5261280000000  0.4646420000000  0.5151600000000 1.0
C      1  0.4373670000000  0.4528630000000  0.5696200000000 1.0
C      1  0.5641140000000  0.5364530000000  0.5702520000000 1.0
C      1  0.5027230000000  0.4508040000000  0.5061340000000 1.0
C      1  0.4481680000000  0.4392550000000  0.4518630000000 1.0
C      1  0.5205430000000  0.4263870000000  0.5462530000000 1.0
C      1  0.4425430000000  0.5396650000000  0.5594790000000 1.0
C      1  0.5742650000000  0.5276890000000  0.5442270000000 1.0
C      1  0.4553150000000  0.4302410000000  0.5747930000000 1.0
C      1  0.5185680000000  0.4111040000000  0.4581520000000 1.0
C      1  0.5132210000000  0.4866640000000  0.5317320000000 1.0
C      1  0.4961360000000  0.5969080000000  0.5187940000000 1.0
C      1  0.4266230000000  0.4562190000000  0.5183630000000 1.0
C      1  0.4541650000000  0.4748840000000  0.5040020000000 1.0
C      1  0.4837180000000  0.4647750000000  0.4876610000000 1.0
C      1  0.5253950000000  0.5055060000000  0.4219420000000 1.0
C      1  0.5582200000000  0.4656580000000  0.4083720000000 1.0
C      1  0.4614890000000  0.5438670000000  0.4984030000000 1.0
C      1  0.5316350000000  0.5045020000000  0.5397980000000 1.0
C      1  0.5445510000000  0.5711930000000  0.5267250000000 1.0
C      1  0.5511570000000  0.4758920000000  0.5045940000000 1.0
C      1  0.5834870000000  0.4395280000000  0.5110410000000 1.0
C      1  0.4434860000000  0.4626730000000  0.4349660000000 1.0
C      1  0.4835420000000  0.5456870000000  0.5188050000000 1.0
C      1  0.4755740000000  0.5228690000000  0.5883890000000 1.0
C      1  0.4195370000000  0.4971170000000  0.5618630000000 1.0
C      1  0.5107450000000  0.4991110000000  0.6038380000000 1.0
C      1  0.4658920000000  0.4668980000000  0.4158760000000 1.0
C      1  0.5054020000000  0.4485790000000  0.5909730000000 1.0
C      1  0.4630870000000  0.5626980000000  0.4208000000000 1.0
C      1  0.5935590000000  0.4556790000000  0.4910070000000 1.0
C      1  0.4401850000000  0.4886090000000  0.4815170000000 1.0
C      1  0.5025830000000  0.5058870000000  0.4035760000000 1.0
C      1  0.4762980000000  0.4321170000000  0.4444180000000 1.0
C      1  0.4163800000000  0.4703010000000  0.4778490000000 1.0
C      1  0.5842240000000  0.4773230000000  0.4203950000000 1.0
C      1  0.5228680000000  0.4397470000000  0.4220850000000 1.0
C      1  0.5526800000000  0.4529980000000  0.5707380000000 1.0
C      1  0.4911680000000  0.4071840000000  0.4555160000000 1.0
C      1  0.5197490000000  0.5303160000000  0.5454250000000 1.0
C      1  0.5321400000000  0.5426980000000  0.5218100000000 1.0
C      1  0.4029200000000  0.4861980000000  0.4578360000000 1.0
C      1  0.5530410000000  0.4916120000000  0.5841100000000 1.0
C      1  0.3976600000000  0.4836320000000  0.5485140000000 1.0
C      1  0.5364490000000  0.4800540000000  0.4804060000000 1.0
C      1  0.5211390000000  0.5885110000000  0.5632210000000 1.0
C      1  0.4695490000000  0.5375710000000  0.4081460000000 1.0
C      1  0.4444910000000  0.4826030000000  0.5722870000000 1.0
C      1  0.5509750000000  0.4999830000000  0.5216320000000 1.0
C      1  0.4494310000000  0.4196110000000  0.5470360000000 1.0
C      1  0.4190820000000  0.5557670000000  0.4801160000000 1.0
C      1  0.5060180000000  0.5829030000000  0.4678400000000 1.0
C      1  0.4196800000000  0.5229060000000  0.5487690000000 1.0
C      1  0.5285450000000  0.5211840000000  0.6025620000000 1.0
C      1  0.5129510000000  0.5522360000000  0.4665340000000 1.0
C      1  0.5842880000000  0.5579610000000  0.4958290000000 1.0
C      1  0.4857880000000  0.4010400000000  0.4840540000000 1.0
C      1  0.5061300000000  0.5332180000000  0.5069010000000 1.0
C      1  0.5313180000000  0.5756260000000  0.4220510000000 1.0
C      1  0.4703150000000  0.5199740000000  0.5596230000000 1.0
C      1  0.4227700000000  0.4840510000000  0.4355910000000 1.0
C      1  0.5582170000000  0.4412490000000  0.4542680000000 1.0
C      1  0.5410400000000  0.4176440000000  0.4718220000000 1.0
C      1  0.4915140000000  0.5490160000000  0.5837630000000 1.0
C      1  0.4016190000000  0.4665370000000  0.5274820000000 1.0
C      1  0.5193160000000  0.5463680000000  0.5895530000000 1.0
C      1  0.5804800000000  0.5240140000000  0.4521290000000 1.0
C      1  0.5842610000000  0.4538860000000  0.4629560000000 1.0
C      1  0.4969840000000  0.5945750000000  0.5519320000000 1.0
C      1  0.5159500000000  0.4579400000000  0.4476340000000 1.0
C      1  0.5109080000000  0.4022250000000  0.4975890000000 1.0
C      1  0.5703580000000  0.4291450000000  0.5334540000000 1.0
C      1  0.4950900000000  0.5335110000000  0.4525300000000 1.0
C      1  0.4072530000000  0.5349250000000  0.4638660000000 1.0
C      1  0.4667050000000  0.5929420000000  0.5225720000000 1.0
C      1  0.5922430000000  0.4817770000000  0.5075550000000 1.0
C      1  0.4941940000000  0.4772960000000  0.6002880000000 1.0
C      1  0.5262160000000  0.4372200000000  0.5730750000000 1.0
C      1  0.4619290000000  0.4149440000000  0.4970300000000 1.0
C      1  0.4825280000000  0.5720990000000  0.5663710000000 1.0
C      1  0.5522670000000  0.5648960000000  0.4374590000000 1.0
C      1  0.4391940000000  0.5723480000000  0.4651800000000 1.0
C      1  0.4659120000000  0.4938400000000  0.5221620000000 1.0
C      1  0.5440250000000  0.5568510000000  0.5757880000000 1.0
C      1  0.4762230000000  0.4925720000000  0.4068320000000 1.0
C      1  0.5407550000000  0.5428300000000  0.4709910000000 1.0
C      1  0.4968230000000  0.5333170000000  0.4125300000000 1.0
C      1  0.4714280000000  0.4942790000000  0.5925650000000 1.0
C      1  0.5050410000000  0.4377500000000  0.4007580000000 1.0
C      1  0.4152880000000  0.5265880000000  0.5192920000000 1.0
C      1  0.6055880000000  0.5150090000000  0.4670680000000 1.0
C      1  0.5676010000000  0.5531640000000  0.4575170000000 1.0
C      1  0.4909870000000  0.5345940000000  0.5448140000000 1.0
C      1  0.4425070000000  0.4298040000000  0.4792340000000 1.0
C      1  0.4933910000000  0.5048460000000  0.5137980000000 1.0
C      1  0.4587670000000  0.5764690000000  0.5473900000000 1.0
C      1  0.5427140000000  0.5894580000000  0.5042430000000 1.0
C      1  0.4489270000000  0.5109800000000  0.4657360000000 1.0
C      1  0.5145980000000  0.5943600000000  0.4976560000000 1.0
C      1  0.5631180000000  0.5020430000000  0.4607590000000 1.0
C      1  0.4429190000000  0.5583410000000  0.4399490000000 1.0
C      1  0.4864950000000  0.4605040000000  0.5536700000000 1.0
C      1  0.5649120000000  0.5759160000000  0.4910500000000 1.0
C      1  0.5163480000000  0.4980980000000  0.4746620000000 1.0
END
