TITL C-4164235-1454-415 8.80130234757505 125000 -9532.96549085318 0 0 65 (C1) n - 1
REM
REM in /home/nfs/bkarasulu/CARBON/AIRSS/Generating-Clusters/ReaxFF-fromJPCA2015/Units_Real/with-SteepDescent/Only-C1/SD-CG/Try1-3A/FIRE-CG
REM
REM
REM
REM
REM
REM ./C.cell (11c1c37f851c82e70ff6c80c92926a4b)
REM
REM compiler GCC version 9.2.1 20190827 (Red Hat 9.2.1-1)
REM options -cpp -mtune=generic -march=x86-64 -g -O0 -fpre-include=/usr/include/finclude/math-vector-fortran.h
REM seed 361497132 639711688 -173908937 1714951980 -253850877 1609930768 1427409983 -1628994196 2044152052 2060160613 1388837799 1497541148 1834004914 -1859826326 1701826103 1419838046 -1094897145 -334689429 -1408589 2063597604 -1658459364 1966377634 420408569 391899822 886992884 2046491603 1015135993 -1883144731 -647742823 1264255620 2036349207 2035907436 1043908260
REM
CELL 1.54180   50.00000   50.00000   50.00000   90.00000   90.00000   90.00000
LATT -1
SFAC C  
C      1  0.4384300000000  0.5197440000000  0.5424470000000 1.0
C      1  0.4847950000000  0.4669610000000  0.4954460000000 1.0
C      1  0.5031770000000  0.5656600000000  0.4606930000000 1.0
C      1  0.5367440000000  0.4794890000000  0.4996560000000 1.0
C      1  0.4916560000000  0.5102280000000  0.5607390000000 1.0
C      1  0.5453190000000  0.4596550000000  0.4801130000000 1.0
C      1  0.5329240000000  0.4242530000000  0.5076940000000 1.0
C      1  0.4944800000000  0.5084130000000  0.4250470000000 1.0
C      1  0.4984710000000  0.5373240000000  0.4296560000000 1.0
C      1  0.5528170000000  0.5317570000000  0.5498000000000 1.0
C      1  0.4999720000000  0.5116920000000  0.4764840000000 1.0
C      1  0.4525510000000  0.4672310000000  0.5521610000000 1.0
C      1  0.5124270000000  0.5671250000000  0.5162860000000 1.0
C      1  0.4950660000000  0.4526800000000  0.4490820000000 1.0
C      1  0.4363890000000  0.5021440000000  0.4985440000000 1.0
C      1  0.4716180000000  0.4702020000000  0.4515960000000 1.0
C      1  0.5502470000000  0.5116440000000  0.4484280000000 1.0
C      1  0.5541470000000  0.5017570000000  0.5429820000000 1.0
C      1  0.4569250000000  0.5650180000000  0.5185490000000 1.0
C      1  0.5664660000000  0.5268550000000  0.4959250000000 1.0
C      1  0.4924490000000  0.5071160000000  0.5197080000000 1.0
C      1  0.5840880000000  0.5060080000000  0.5020380000000 1.0
C      1  0.5040840000000  0.4348180000000  0.4703960000000 1.0
C      1  0.4511410000000  0.5573530000000  0.4807890000000 1.0
C      1  0.4258550000000  0.5007020000000  0.5244240000000 1.0
C      1  0.5296230000000  0.5256330000000  0.4655150000000 1.0
C      1  0.5257970000000  0.5397850000000  0.5584080000000 1.0
C      1  0.5577270000000  0.4915410000000  0.5155120000000 1.0
C      1  0.5448600000000  0.5413560000000  0.4866210000000 1.0
C      1  0.5176410000000  0.4652540000000  0.4365860000000 1.0
C      1  0.4583110000000  0.5440450000000  0.4573670000000 1.0
C      1  0.5037870000000  0.4474690000000  0.5452700000000 1.0
C      1  0.4739610000000  0.4967430000000  0.4405680000000 1.0
C      1  0.4650760000000  0.5621390000000  0.5458840000000 1.0
C      1  0.5060060000000  0.4877300000000  0.4979380000000 1.0
C      1  0.5575720000000  0.4853930000000  0.4416260000000 1.0
C      1  0.4804890000000  0.5568220000000  0.4430730000000 1.0
C      1  0.5322460000000  0.4333340000000  0.4792340000000 1.0
C      1  0.5082530000000  0.5737120000000  0.4882900000000 1.0
C      1  0.4876150000000  0.5244770000000  0.4986360000000 1.0
C      1  0.4914530000000  0.4389810000000  0.4965290000000 1.0
C      1  0.4650240000000  0.5140140000000  0.5747390000000 1.0
C      1  0.4332070000000  0.4709010000000  0.5283390000000 1.0
C      1  0.5194140000000  0.5129470000000  0.5702400000000 1.0
C      1  0.4608580000000  0.4687260000000  0.4791330000000 1.0
C      1  0.4692090000000  0.5145660000000  0.4613950000000 1.0
C      1  0.4650600000000  0.5474390000000  0.4993930000000 1.0
C      1  0.5354300000000  0.4896430000000  0.5614160000000 1.0
C      1  0.4378210000000  0.4564980000000  0.5027970000000 1.0
C      1  0.4163370000000  0.4433900000000  0.5030970000000 1.0
C      1  0.5460780000000  0.4445070000000  0.5435480000000 1.0
C      1  0.4520500000000  0.4877790000000  0.5744920000000 1.0
C      1  0.4783620000000  0.4572760000000  0.5486900000000 1.0
C      1  0.5288460000000  0.4611500000000  0.5570550000000 1.0
C      1  0.5164760000000  0.4900510000000  0.4215060000000 1.0
C      1  0.4492030000000  0.4962940000000  0.4752890000000 1.0
C      1  0.5080480000000  0.4316550000000  0.5194010000000 1.0
C      1  0.4921400000000  0.5267020000000  0.5386780000000 1.0
C      1  0.5330200000000  0.5648560000000  0.4983350000000 1.0
C      1  0.5585830000000  0.4252050000000  0.5261210000000 1.0
C      1  0.5049350000000  0.5518100000000  0.5397230000000 1.0
C      1  0.5201090000000  0.5463890000000  0.4470930000000 1.0
C      1  0.5430170000000  0.4999560000000  0.4239310000000 1.0
C      1  0.5432340000000  0.4621610000000  0.4508780000000 1.0
C      1  0.4508860000000  0.5358390000000  0.5589710000000 1.0
END
