TITL C-4164243-3780-601 5.13657702772635 125000 -7144.68540104654 0 0 48 (C1) n - 1
REM
REM in /home/nfs/bkarasulu/CARBON/AIRSS/Generating-Clusters/ReaxFF-fromJPCA2015/Units_Real/with-SteepDescent/Only-C1/SD-CG/Try1-3A/FIRE-CG
REM
REM
REM
REM
REM
REM ./C.cell (11c1c37f851c82e70ff6c80c92926a4b)
REM
REM compiler GCC version 9.2.1 20190827 (Red Hat 9.2.1-1)
REM options -cpp -mtune=generic -march=x86-64 -g -O0 -fpre-include=/usr/include/finclude/math-vector-fortran.h
REM seed 365975766 244621450 1099925821 -1789854086 273997249 -33399798 -1609540954 -1702192938 -1269822891 -1869336930 -1640359030 1314983630 -626096652 -904000241 245969831 1512107036 -1557167492 1675648867 1535393567 480729708 -581351179 -1235573136 635029396 -1608971530 -73065011 1125506118 -120095701 5584772 1439648388 1786228243 1605558156 -526577650 2030017077
REM
CELL 1.54180   50.00000   50.00000   50.00000   90.00000   90.00000   90.00000
LATT -1
SFAC C  
C      1  0.5668570000000  0.4891010000000  0.4972450000000 1.0
C      1  0.5229560000000  0.5623870000000  0.5127050000000 1.0
C      1  0.4908360000000  0.4584350000000  0.4514930000000 1.0
C      1  0.5128780000000  0.4951130000000  0.4969170000000 1.0
C      1  0.5253770000000  0.5455030000000  0.5348690000000 1.0
C      1  0.4702720000000  0.4674160000000  0.5181450000000 1.0
C      1  0.4880700000000  0.5345260000000  0.5510150000000 1.0
C      1  0.4977020000000  0.5088830000000  0.4331950000000 1.0
C      1  0.4706200000000  0.4888800000000  0.5626950000000 1.0
C      1  0.5279480000000  0.4752380000000  0.5539310000000 1.0
C      1  0.5069280000000  0.5764550000000  0.4267610000000 1.0
C      1  0.4915940000000  0.4813050000000  0.5074730000000 1.0
C      1  0.5011320000000  0.4368530000000  0.5358090000000 1.0
C      1  0.4423260000000  0.4637130000000  0.4761360000000 1.0
C      1  0.4265170000000  0.5363720000000  0.5113020000000 1.0
C      1  0.5222690000000  0.4935940000000  0.4680390000000 1.0
C      1  0.4776670000000  0.5442380000000  0.4635430000000 1.0
C      1  0.4577690000000  0.4491960000000  0.4977650000000 1.0
C      1  0.4936920000000  0.5637420000000  0.5079780000000 1.0
C      1  0.5391690000000  0.4466920000000  0.5094440000000 1.0
C      1  0.4996910000000  0.4367560000000  0.4712940000000 1.0
C      1  0.5203650000000  0.5573470000000  0.4379520000000 1.0
C      1  0.5347330000000  0.5060660000000  0.5151130000000 1.0
C      1  0.4782100000000  0.4292090000000  0.4902920000000 1.0
C      1  0.5260550000000  0.4514270000000  0.5352890000000 1.0
C      1  0.5113330000000  0.4697010000000  0.5774860000000 1.0
C      1  0.5202260000000  0.4309810000000  0.4918520000000 1.0
C      1  0.4899750000000  0.5653870000000  0.4790650000000 1.0
C      1  0.5570770000000  0.4666920000000  0.5012470000000 1.0
C      1  0.5313630000000  0.5037470000000  0.5441730000000 1.0
C      1  0.4758080000000  0.5111130000000  0.5574480000000 1.0
C      1  0.5372130000000  0.5167040000000  0.4579980000000 1.0
C      1  0.4777480000000  0.4528210000000  0.5441700000000 1.0
C      1  0.4512470000000  0.5432840000000  0.5193120000000 1.0
C      1  0.4173120000000  0.5111800000000  0.4923000000000 1.0
C      1  0.5168080000000  0.5690050000000  0.4666090000000 1.0
C      1  0.4648880000000  0.4634940000000  0.4598530000000 1.0
C      1  0.5213130000000  0.5256640000000  0.4354040000000 1.0
C      1  0.5181270000000  0.5282980000000  0.5547480000000 1.0
C      1  0.4992290000000  0.4217980000000  0.5103410000000 1.0
C      1  0.5359820000000  0.5582520000000  0.4853420000000 1.0
C      1  0.4764280000000  0.5503220000000  0.5274680000000 1.0
C      1  0.4283800000000  0.4884330000000  0.4839770000000 1.0
C      1  0.5063350000000  0.4836560000000  0.4462280000000 1.0
C      1  0.5499340000000  0.5336880000000  0.4786950000000 1.0
C      1  0.5589510000000  0.5159050000000  0.5004360000000 1.0
C      1  0.4808560000000  0.5269010000000  0.4488270000000 1.0
C      1  0.4818330000000  0.4645310000000  0.5706210000000 1.0
END
