TITL C-4164244-2836-164 -8.65649480992438 125000 -22560.0460300898 0 0 153 (C1) n - 1
REM
REM in /home/nfs/bkarasulu/CARBON/AIRSS/Generating-Clusters/ReaxFF-fromJPCA2015/Units_Real/with-SteepDescent/Only-C1/SD-CG/Try1-3A/FIRE-CG
REM
REM
REM
REM
REM
REM ./C.cell (11c1c37f851c82e70ff6c80c92926a4b)
REM
REM compiler GCC version 9.2.1 20190827 (Red Hat 9.2.1-1)
REM options -cpp -mtune=generic -march=x86-64 -g -O0 -fpre-include=/usr/include/finclude/math-vector-fortran.h
REM seed -2134538620 -1294073927 177678972 -888571918 2002504621 -750476910 -1808951436 1563101476 -510958481 -230970457 1365579344 1084812154 -2043699152 1500977839 1897502028 296242420 1719097543 -1859104318 938573329 2034434009 302711037 -693766866 482187353 1466861473 -585742602 -918101599 1855467511 -1102078899 1744964519 -1172795710 328608405 -441505293 -909874831
REM
CELL 1.54180   50.00000   50.00000   50.00000   90.00000   90.00000   90.00000
LATT -1
SFAC C  
C      1  0.5399810000000  0.5337530000000  0.4131140000000 1.0
C      1  0.5512060000000  0.5503360000000  0.4689760000000 1.0
C      1  0.5767220000000  0.4770210000000  0.4317530000000 1.0
C      1  0.4561200000000  0.4225300000000  0.4353210000000 1.0
C      1  0.4645010000000  0.4050550000000  0.4831340000000 1.0
C      1  0.4907180000000  0.5018120000000  0.4011130000000 1.0
C      1  0.4797720000000  0.3975560000000  0.5062890000000 1.0
C      1  0.5621370000000  0.5577990000000  0.5479610000000 1.0
C      1  0.4840640000000  0.4977910000000  0.4969710000000 1.0
C      1  0.4220900000000  0.5703400000000  0.4801740000000 1.0
C      1  0.4368730000000  0.4714050000000  0.4352010000000 1.0
C      1  0.4357320000000  0.5057930000000  0.5735360000000 1.0
C      1  0.5453680000000  0.3911460000000  0.4791460000000 1.0
C      1  0.4899910000000  0.5507030000000  0.5543400000000 1.0
C      1  0.4740100000000  0.4261300000000  0.4615920000000 1.0
C      1  0.5028720000000  0.5803260000000  0.4512830000000 1.0
C      1  0.4461740000000  0.5263180000000  0.5066580000000 1.0
C      1  0.5896330000000  0.4582820000000  0.5295490000000 1.0
C      1  0.4537590000000  0.4999880000000  0.4955840000000 1.0
C      1  0.5318090000000  0.4426340000000  0.4842990000000 1.0
C      1  0.4954710000000  0.4739160000000  0.4625120000000 1.0
C      1  0.4977120000000  0.4551200000000  0.4398410000000 1.0
C      1  0.5761210000000  0.5027960000000  0.5537210000000 1.0
C      1  0.5292090000000  0.3984200000000  0.5163780000000 1.0
C      1  0.5214910000000  0.5413040000000  0.5471640000000 1.0
C      1  0.5128040000000  0.5995740000000  0.4963540000000 1.0
C      1  0.5208490000000  0.5896850000000  0.4705960000000 1.0
C      1  0.4140200000000  0.4747310000000  0.5227790000000 1.0
C      1  0.5101680000000  0.5419580000000  0.5002260000000 1.0
C      1  0.5543120000000  0.4063190000000  0.5014590000000 1.0
C      1  0.5312290000000  0.5098030000000  0.5847870000000 1.0
C      1  0.4730320000000  0.4562460000000  0.4709750000000 1.0
C      1  0.6161110000000  0.5288920000000  0.4717200000000 1.0
C      1  0.5414990000000  0.4593960000000  0.5348780000000 1.0
C      1  0.3981110000000  0.4995710000000  0.5238660000000 1.0
C      1  0.4804460000000  0.4138760000000  0.5603800000000 1.0
C      1  0.5046930000000  0.4533920000000  0.4007160000000 1.0
C      1  0.4424040000000  0.5473040000000  0.4393590000000 1.0
C      1  0.4059560000000  0.5131300000000  0.4578550000000 1.0
C      1  0.4921580000000  0.4792730000000  0.5177880000000 1.0
C      1  0.5184180000000  0.5852240000000  0.5661170000000 1.0
C      1  0.3907810000000  0.5056730000000  0.4965600000000 1.0
C      1  0.5926860000000  0.4859430000000  0.5365410000000 1.0
C      1  0.4090180000000  0.5508930000000  0.5236450000000 1.0
C      1  0.4340550000000  0.4793330000000  0.5585620000000 1.0
C      1  0.5940280000000  0.5423260000000  0.4963700000000 1.0
C      1  0.4874050000000  0.4748920000000  0.3919770000000 1.0
C      1  0.4393210000000  0.5907950000000  0.4915090000000 1.0
C      1  0.5427320000000  0.4833870000000  0.5883560000000 1.0
C      1  0.4709830000000  0.4349310000000  0.4151440000000 1.0
C      1  0.5075610000000  0.3908980000000  0.4981820000000 1.0
C      1  0.5997840000000  0.4991710000000  0.5127360000000 1.0
C      1  0.5453740000000  0.5258940000000  0.4690630000000 1.0
C      1  0.5331300000000  0.5934620000000  0.5167390000000 1.0
C      1  0.5234420000000  0.4580300000000  0.5829350000000 1.0
C      1  0.5659840000000  0.4449170000000  0.5417080000000 1.0
C      1  0.4410530000000  0.4975100000000  0.4205860000000 1.0
C      1  0.5781100000000  0.5677700000000  0.4978500000000 1.0
C      1  0.4604170000000  0.5668840000000  0.4323570000000 1.0
C      1  0.5165040000000  0.5494700000000  0.5874730000000 1.0
C      1  0.4926040000000  0.5201080000000  0.5144250000000 1.0
C      1  0.5220690000000  0.4106810000000  0.4503620000000 1.0
C      1  0.4691730000000  0.4059780000000  0.5337830000000 1.0
C      1  0.5619710000000  0.5041080000000  0.4794780000000 1.0
C      1  0.4525600000000  0.4736010000000  0.4599370000000 1.0
C      1  0.5021110000000  0.4974010000000  0.5398360000000 1.0
C      1  0.5414070000000  0.4883790000000  0.4919000000000 1.0
C      1  0.5017440000000  0.4600570000000  0.6019790000000 1.0
C      1  0.5044710000000  0.5557380000000  0.4379870000000 1.0
C      1  0.5806310000000  0.5154900000000  0.4989510000000 1.0
C      1  0.4663770000000  0.5133200000000  0.4130120000000 1.0
C      1  0.4328400000000  0.4271790000000  0.4519290000000 1.0
C      1  0.5813410000000  0.5362620000000  0.5491340000000 1.0
C      1  0.5177390000000  0.4583980000000  0.5518200000000 1.0
C      1  0.4050510000000  0.5248020000000  0.5368640000000 1.0
C      1  0.4812840000000  0.4580150000000  0.4165610000000 1.0
C      1  0.5772680000000  0.4527490000000  0.4811900000000 1.0
C      1  0.4407050000000  0.5910720000000  0.5208160000000 1.0
C      1  0.4656500000000  0.4368250000000  0.5766340000000 1.0
C      1  0.5281730000000  0.5135790000000  0.5537600000000 1.0
C      1  0.5770600000000  0.5784390000000  0.4429770000000 1.0
C      1  0.4740880000000  0.5022900000000  0.5456440000000 1.0
C      1  0.4668800000000  0.6041210000000  0.5251910000000 1.0
C      1  0.4656610000000  0.4738540000000  0.5290290000000 1.0
C      1  0.5188810000000  0.4976340000000  0.4107710000000 1.0
C      1  0.4378650000000  0.5520950000000  0.5585240000000 1.0
C      1  0.4146260000000  0.4550700000000  0.5005760000000 1.0
C      1  0.5459790000000  0.5755290000000  0.4695180000000 1.0
C      1  0.5674220000000  0.4734210000000  0.4598550000000 1.0
C      1  0.5085210000000  0.5240940000000  0.5977800000000 1.0
C      1  0.4431100000000  0.5542830000000  0.4675550000000 1.0
C      1  0.5296800000000  0.5557570000000  0.4224670000000 1.0
C      1  0.4075800000000  0.5520580000000  0.4956220000000 1.0
C      1  0.5321610000000  0.5478860000000  0.5208860000000 1.0
C      1  0.4602570000000  0.5470280000000  0.4907010000000 1.0
C      1  0.4843840000000  0.5579820000000  0.5024610000000 1.0
C      1  0.5404060000000  0.4624460000000  0.4495900000000 1.0
C      1  0.5260850000000  0.4701950000000  0.4753020000000 1.0
C      1  0.5279150000000  0.4692550000000  0.4149390000000 1.0
C      1  0.5579680000000  0.4354680000000  0.4945960000000 1.0
C      1  0.5432530000000  0.5115010000000  0.4057350000000 1.0
C      1  0.4513160000000  0.4275330000000  0.5259600000000 1.0
C      1  0.5156890000000  0.4150040000000  0.5369670000000 1.0
C      1  0.4885600000000  0.5695510000000  0.5299410000000 1.0
C      1  0.4654600000000  0.5951080000000  0.4787940000000 1.0
C      1  0.5575890000000  0.4686230000000  0.4105910000000 1.0
C      1  0.5579660000000  0.4278250000000  0.5653650000000 1.0
C      1  0.6146230000000  0.4823240000000  0.4953460000000 1.0
C      1  0.5370810000000  0.5613150000000  0.5699680000000 1.0
C      1  0.5684140000000  0.4949460000000  0.4105460000000 1.0
C      1  0.5550200000000  0.5679250000000  0.4289140000000 1.0
C      1  0.5149250000000  0.5905000000000  0.5376850000000 1.0
C      1  0.4242260000000  0.5123350000000  0.4364000000000 1.0
C      1  0.4215450000000  0.5271710000000  0.5606830000000 1.0
C      1  0.5011340000000  0.4411640000000  0.5354690000000 1.0
C      1  0.4574800000000  0.5025160000000  0.4660010000000 1.0
C      1  0.4983400000000  0.4264170000000  0.4442660000000 1.0
C      1  0.4664170000000  0.5242220000000  0.5284000000000 1.0
C      1  0.4722970000000  0.5876000000000  0.5482980000000 1.0
C      1  0.5003380000000  0.5295460000000  0.4525300000000 1.0
C      1  0.5313760000000  0.4275170000000  0.5777100000000 1.0
C      1  0.5654620000000  0.4895020000000  0.5743870000000 1.0
C      1  0.4060350000000  0.4628910000000  0.4737200000000 1.0
C      1  0.4828780000000  0.6035080000000  0.4999230000000 1.0
C      1  0.6188170000000  0.5036160000000  0.4777230000000 1.0
C      1  0.5746580000000  0.5838190000000  0.4741620000000 1.0
C      1  0.4101670000000  0.5254360000000  0.4857170000000 1.0
C      1  0.4902150000000  0.5767930000000  0.5704370000000 1.0
C      1  0.5091450000000  0.4107710000000  0.5652440000000 1.0
C      1  0.3937670000000  0.4894040000000  0.4722570000000 1.0
C      1  0.4829090000000  0.4800000000000  0.6056470000000 1.0
C      1  0.4826530000000  0.5075880000000  0.5972120000000 1.0
C      1  0.4600000000000  0.5189360000000  0.5838080000000 1.0
C      1  0.5382730000000  0.4341620000000  0.4572350000000 1.0
C      1  0.4498120000000  0.4576290000000  0.5686500000000 1.0
C      1  0.4315920000000  0.4317250000000  0.5038000000000 1.0
C      1  0.5971960000000  0.4586750000000  0.5008610000000 1.0
C      1  0.4851310000000  0.5051070000000  0.4566350000000 1.0
C      1  0.5516800000000  0.5053480000000  0.5394330000000 1.0
C      1  0.4383150000000  0.4167340000000  0.4796770000000 1.0
C      1  0.5186990000000  0.5266950000000  0.4748910000000 1.0
C      1  0.4729350000000  0.4463900000000  0.5313400000000 1.0
C      1  0.4755910000000  0.5811140000000  0.4539190000000 1.0
C      1  0.5545700000000  0.5686820000000  0.5197800000000 1.0
C      1  0.6000920000000  0.5390580000000  0.5274960000000 1.0
C      1  0.4633260000000  0.5409200000000  0.4192140000000 1.0
C      1  0.5445680000000  0.4846830000000  0.5196330000000 1.0
C      1  0.4287470000000  0.5681970000000  0.5360270000000 1.0
C      1  0.4393070000000  0.4833050000000  0.5291780000000 1.0
C      1  0.5188780000000  0.3882460000000  0.4704200000000 1.0
C      1  0.4182370000000  0.4524230000000  0.4485440000000 1.0
C      1  0.4755320000000  0.4520130000000  0.6003390000000 1.0
C      1  0.4639570000000  0.5445120000000  0.5690170000000 1.0
END
