TITL C-4164239-2837-184 2.71746383403519 125000 -27394.6901579371 0 0 183 (C1) n - 1
REM
REM in /home/nfs/bkarasulu/CARBON/AIRSS/Generating-Clusters/ReaxFF-fromJPCA2015/Units_Real/with-SteepDescent/Only-C1/SD-CG/Try1-3A/FIRE-CG
REM
REM
REM
REM
REM
REM ./C.cell (11c1c37f851c82e70ff6c80c92926a4b)
REM
REM compiler GCC version 9.2.1 20190827 (Red Hat 9.2.1-1)
REM options -cpp -mtune=generic -march=x86-64 -g -O0 -fpre-include=/usr/include/finclude/math-vector-fortran.h
REM seed -154693743 -1628070887 -547146295 -1969971474 -1085854257 1541404705 772027487 311653690 1449684967 -62807605 1574971094 -536728764 1183710752 -486164094 95181592 -2139222695 -227064690 223176437 1992905629 -1216476486 152823699 738970792 -1574898950 471404843 -1104152182 -1646323922 -221946773 1493714736 1709255230 -44073701 -363937056 217638725 180562347
REM
CELL 1.54180   50.00000   50.00000   50.00000   90.00000   90.00000   90.00000
LATT -1
SFAC C  
C      1  0.5464150000000  0.4572270000000  0.4704350000000 1.0
C      1  0.5767900000000  0.5672030000000  0.5586510000000 1.0
C      1  0.4691220000000  0.5430750000000  0.4566990000000 1.0
C      1  0.4367180000000  0.4871530000000  0.5919850000000 1.0
C      1  0.5579370000000  0.5105980000000  0.4849680000000 1.0
C      1  0.6082400000000  0.5031040000000  0.4686190000000 1.0
C      1  0.5609920000000  0.4300600000000  0.4748330000000 1.0
C      1  0.4633690000000  0.4269640000000  0.5812470000000 1.0
C      1  0.5196010000000  0.4564660000000  0.4803920000000 1.0
C      1  0.4181490000000  0.4805310000000  0.4378890000000 1.0
C      1  0.5403220000000  0.5187370000000  0.3957190000000 1.0
C      1  0.5779030000000  0.5137460000000  0.5754050000000 1.0
C      1  0.4480100000000  0.5407200000000  0.5039440000000 1.0
C      1  0.4624860000000  0.5957780000000  0.4643460000000 1.0
C      1  0.4962880000000  0.4093860000000  0.4267840000000 1.0
C      1  0.4488180000000  0.4233570000000  0.5152290000000 1.0
C      1  0.4356640000000  0.5297990000000  0.5521230000000 1.0
C      1  0.5537630000000  0.5210450000000  0.5941490000000 1.0
C      1  0.5330210000000  0.5032310000000  0.5245500000000 1.0
C      1  0.4701720000000  0.4006820000000  0.4373690000000 1.0
C      1  0.4319160000000  0.5963720000000  0.5070960000000 1.0
C      1  0.5230840000000  0.5470200000000  0.5385110000000 1.0
C      1  0.5679570000000  0.5080680000000  0.5497850000000 1.0
C      1  0.5295710000000  0.4826680000000  0.5683550000000 1.0
C      1  0.5318640000000  0.4685930000000  0.3916970000000 1.0
C      1  0.5235510000000  0.4579290000000  0.5283680000000 1.0
C      1  0.4940760000000  0.4309860000000  0.4052780000000 1.0
C      1  0.5420130000000  0.5793440000000  0.4480520000000 1.0
C      1  0.5335020000000  0.5054180000000  0.6087420000000 1.0
C      1  0.5005070000000  0.5303550000000  0.5424950000000 1.0
C      1  0.5634770000000  0.5782240000000  0.4639390000000 1.0
C      1  0.4683500000000  0.4671670000000  0.4658470000000 1.0
C      1  0.5049850000000  0.4218000000000  0.4517500000000 1.0
C      1  0.6115530000000  0.5330060000000  0.5067470000000 1.0
C      1  0.5314100000000  0.5423530000000  0.4126990000000 1.0
C      1  0.4863650000000  0.4756480000000  0.6059350000000 1.0
C      1  0.4743310000000  0.4491360000000  0.5176070000000 1.0
C      1  0.4797270000000  0.3962040000000  0.5404260000000 1.0
C      1  0.4134470000000  0.5770290000000  0.4952930000000 1.0
C      1  0.5910360000000  0.4791090000000  0.4652240000000 1.0
C      1  0.5010270000000  0.4881240000000  0.5641970000000 1.0
C      1  0.5249660000000  0.6024790000000  0.4988350000000 1.0
C      1  0.4830250000000  0.5886000000000  0.5259700000000 1.0
C      1  0.5375640000000  0.4631370000000  0.4416610000000 1.0
C      1  0.5140160000000  0.4473360000000  0.3940140000000 1.0
C      1  0.5391680000000  0.5499960000000  0.5124440000000 1.0
C      1  0.4477590000000  0.5624500000000  0.4288570000000 1.0
C      1  0.4717980000000  0.4951790000000  0.5151670000000 1.0
C      1  0.4708610000000  0.5729930000000  0.5713330000000 1.0
C      1  0.5232090000000  0.5618850000000  0.4873850000000 1.0
C      1  0.5868940000000  0.4394960000000  0.5460040000000 1.0
C      1  0.5966600000000  0.4654840000000  0.5579870000000 1.0
C      1  0.5907050000000  0.5453480000000  0.5262200000000 1.0
C      1  0.4520670000000  0.5467550000000  0.5312860000000 1.0
C      1  0.5747480000000  0.5809300000000  0.4911040000000 1.0
C      1  0.5437790000000  0.5209900000000  0.5067120000000 1.0
C      1  0.4502210000000  0.4856130000000  0.5302810000000 1.0
C      1  0.4706880000000  0.5023350000000  0.3971450000000 1.0
C      1  0.4136320000000  0.5309510000000  0.4442920000000 1.0
C      1  0.4546190000000  0.4257180000000  0.4367140000000 1.0
C      1  0.3803550000000  0.4651290000000  0.4981960000000 1.0
C      1  0.4604860000000  0.5195950000000  0.5999420000000 1.0
C      1  0.4619490000000  0.5153480000000  0.4527090000000 1.0
C      1  0.3969510000000  0.5311800000000  0.5185730000000 1.0
C      1  0.5719980000000  0.4730120000000  0.5136070000000 1.0
C      1  0.5914500000000  0.4630940000000  0.4391050000000 1.0
C      1  0.3917330000000  0.4980000000000  0.5614790000000 1.0
C      1  0.4633680000000  0.3944880000000  0.4648490000000 1.0
C      1  0.5610700000000  0.5316060000000  0.4659580000000 1.0
C      1  0.5522390000000  0.5812580000000  0.5602450000000 1.0
C      1  0.5084560000000  0.5491300000000  0.5971750000000 1.0
C      1  0.4348380000000  0.4059100000000  0.4677500000000 1.0
C      1  0.4288040000000  0.4273260000000  0.4484440000000 1.0
C      1  0.5714450000000  0.4434050000000  0.4279410000000 1.0
C      1  0.4944710000000  0.5163390000000  0.5655440000000 1.0
C      1  0.5498710000000  0.5023490000000  0.4178490000000 1.0
C      1  0.4162800000000  0.5749250000000  0.4658670000000 1.0
C      1  0.5070710000000  0.4809960000000  0.4903160000000 1.0
C      1  0.4705060000000  0.5739900000000  0.4123510000000 1.0
C      1  0.5321300000000  0.4194770000000  0.4455320000000 1.0
C      1  0.5108770000000  0.5896750000000  0.5674210000000 1.0
C      1  0.5173910000000  0.5865300000000  0.4718270000000 1.0
C      1  0.6092750000000  0.4848680000000  0.5389970000000 1.0
C      1  0.4033160000000  0.5077840000000  0.4788700000000 1.0
C      1  0.5357860000000  0.5438550000000  0.5897060000000 1.0
C      1  0.4064100000000  0.5388050000000  0.5441920000000 1.0
C      1  0.3908890000000  0.4718590000000  0.5243550000000 1.0
C      1  0.5374100000000  0.5555200000000  0.5614920000000 1.0
C      1  0.4289740000000  0.5183570000000  0.4917040000000 1.0
C      1  0.5244690000000  0.3997780000000  0.5135950000000 1.0
C      1  0.5857880000000  0.4834830000000  0.5778950000000 1.0
C      1  0.4278090000000  0.4150010000000  0.4945350000000 1.0
C      1  0.4785560000000  0.4725000000000  0.4986350000000 1.0
C      1  0.3998200000000  0.5498970000000  0.4958770000000 1.0
C      1  0.4003380000000  0.5686140000000  0.5533310000000 1.0
C      1  0.6174840000000  0.5053020000000  0.4966900000000 1.0
C      1  0.4805570000000  0.3945960000000  0.4883160000000 1.0
C      1  0.4779800000000  0.4911270000000  0.4491130000000 1.0
C      1  0.4870950000000  0.5186010000000  0.5207030000000 1.0
C      1  0.4923860000000  0.5486450000000  0.4435910000000 1.0
C      1  0.5024580000000  0.4370700000000  0.5220240000000 1.0
C      1  0.4412390000000  0.5805650000000  0.4511180000000 1.0
C      1  0.4514670000000  0.6086770000000  0.4888620000000 1.0
C      1  0.5053360000000  0.4078140000000  0.5338560000000 1.0
C      1  0.4970140000000  0.5117260000000  0.3869490000000 1.0
C      1  0.5917480000000  0.4338690000000  0.5177440000000 1.0
C      1  0.5661960000000  0.4815600000000  0.4819900000000 1.0
C      1  0.5187990000000  0.4828010000000  0.5163860000000 1.0
C      1  0.4776860000000  0.4436980000000  0.4455470000000 1.0
C      1  0.5883750000000  0.5414720000000  0.5560780000000 1.0
C      1  0.4416320000000  0.5137240000000  0.4710000000000 1.0
C      1  0.5081100000000  0.5280770000000  0.4328940000000 1.0
C      1  0.4621450000000  0.4050410000000  0.5637000000000 1.0
C      1  0.4400100000000  0.4255200000000  0.5635700000000 1.0
C      1  0.5909650000000  0.4874450000000  0.4259030000000 1.0
C      1  0.5697600000000  0.5608240000000  0.5125910000000 1.0
C      1  0.4629020000000  0.4755270000000  0.4059430000000 1.0
C      1  0.5050980000000  0.5102780000000  0.4794090000000 1.0
C      1  0.5418630000000  0.5005680000000  0.5499870000000 1.0
C      1  0.5111710000000  0.5980300000000  0.5250620000000 1.0
C      1  0.5045070000000  0.4978510000000  0.6088990000000 1.0
C      1  0.4701620000000  0.5672790000000  0.5424030000000 1.0
C      1  0.4227020000000  0.5695830000000  0.5711950000000 1.0
C      1  0.4805520000000  0.4671410000000  0.5651680000000 1.0
C      1  0.5507510000000  0.4099870000000  0.5197880000000 1.0
C      1  0.5417720000000  0.4698170000000  0.5908090000000 1.0
C      1  0.5497680000000  0.5575890000000  0.4308220000000 1.0
C      1  0.4371670000000  0.5015590000000  0.5496460000000 1.0
C      1  0.5523450000000  0.4444670000000  0.5949840000000 1.0
C      1  0.5605260000000  0.4219750000000  0.4466770000000 1.0
C      1  0.4341480000000  0.5363200000000  0.4241950000000 1.0
C      1  0.5525340000000  0.5965710000000  0.4993340000000 1.0
C      1  0.4173550000000  0.4551540000000  0.4570590000000 1.0
C      1  0.4920670000000  0.5303640000000  0.4946610000000 1.0
C      1  0.4158330000000  0.4558150000000  0.5246680000000 1.0
C      1  0.6190850000000  0.4799360000000  0.5118820000000 1.0
C      1  0.5149340000000  0.4361410000000  0.5799420000000 1.0
C      1  0.5051570000000  0.5399980000000  0.3897680000000 1.0
C      1  0.3916640000000  0.4573800000000  0.4735210000000 1.0
C      1  0.4905820000000  0.5923100000000  0.4572310000000 1.0
C      1  0.4036730000000  0.5486770000000  0.4657030000000 1.0
C      1  0.4921870000000  0.5767430000000  0.4330230000000 1.0
C      1  0.4858020000000  0.5574000000000  0.3968140000000 1.0
C      1  0.4695010000000  0.5459640000000  0.4851810000000 1.0
C      1  0.5989350000000  0.4595660000000  0.5064460000000 1.0
C      1  0.4409700000000  0.4632140000000  0.4767710000000 1.0
C      1  0.4968340000000  0.5740770000000  0.5863740000000 1.0
C      1  0.4798260000000  0.4538850000000  0.4176080000000 1.0
C      1  0.6021150000000  0.5302800000000  0.4570070000000 1.0
C      1  0.4463760000000  0.5645760000000  0.5858290000000 1.0
C      1  0.4450360000000  0.5136810000000  0.4088650000000 1.0
C      1  0.5485430000000  0.4569110000000  0.4158610000000 1.0
C      1  0.4877030000000  0.4472140000000  0.5874490000000 1.0
C      1  0.5700350000000  0.4197330000000  0.5009910000000 1.0
C      1  0.5575040000000  0.4295930000000  0.5448130000000 1.0
C      1  0.5761240000000  0.5361070000000  0.4409100000000 1.0
C      1  0.5510070000000  0.4548120000000  0.5304200000000 1.0
C      1  0.4300820000000  0.4332840000000  0.5371780000000 1.0
C      1  0.4429190000000  0.5354790000000  0.5838700000000 1.0
C      1  0.4064340000000  0.5037340000000  0.4501250000000 1.0
C      1  0.5195000000000  0.5239130000000  0.4586950000000 1.0
C      1  0.6088200000000  0.5425640000000  0.4807930000000 1.0
C      1  0.4675350000000  0.3982630000000  0.5143200000000 1.0
C      1  0.5831090000000  0.4944080000000  0.5307340000000 1.0
C      1  0.5289190000000  0.5990590000000  0.5491370000000 1.0
C      1  0.4921230000000  0.5239560000000  0.5938140000000 1.0
C      1  0.3905060000000  0.5011730000000  0.5326910000000 1.0
C      1  0.5403310000000  0.4285970000000  0.5733480000000 1.0
C      1  0.4364250000000  0.4861910000000  0.4165940000000 1.0
C      1  0.4205190000000  0.4878780000000  0.5693300000000 1.0
C      1  0.5009940000000  0.4981260000000  0.4342820000000 1.0
C      1  0.4319070000000  0.4696200000000  0.5032000000000 1.0
C      1  0.4597930000000  0.6034110000000  0.5159780000000 1.0
C      1  0.4598540000000  0.4903370000000  0.6074030000000 1.0
C      1  0.5777290000000  0.5116780000000  0.4218450000000 1.0
C      1  0.4019270000000  0.4807890000000  0.4872490000000 1.0
C      1  0.5093410000000  0.4335450000000  0.4922980000000 1.0
C      1  0.5355430000000  0.5446670000000  0.4680360000000 1.0
C      1  0.4652420000000  0.4628560000000  0.5412500000000 1.0
C      1  0.5689730000000  0.4687080000000  0.5957670000000 1.0
C      1  0.5224140000000  0.4970510000000  0.3860910000000 1.0
C      1  0.5282570000000  0.4893530000000  0.4344930000000 1.0
C      1  0.5090610000000  0.4049530000000  0.4870810000000 1.0
END
