TITL C-4164247-2821-254 2.3217632251424 125000 -16065.4716287672 0 0 109 (C1) n - 1
REM
REM in /home/nfs/bkarasulu/CARBON/AIRSS/Generating-Clusters/ReaxFF-fromJPCA2015/Units_Real/with-SteepDescent/Only-C1/SD-CG/Try1-3A/FIRE-CG
REM
REM
REM
REM
REM
REM ./C.cell (11c1c37f851c82e70ff6c80c92926a4b)
REM
REM compiler GCC version 9.2.1 20190827 (Red Hat 9.2.1-1)
REM options -cpp -mtune=generic -march=x86-64 -g -O0 -fpre-include=/usr/include/finclude/math-vector-fortran.h
REM seed 1427571377 -1103613791 2079940825 -1939165332 1520122410 -945248063 1747117795 1395457516 1137225211 553427550 -4346515 754054427 165308184 -84300770 1022272553 -301129764 1514312329 -1087727479 -1449807922 -726910799 -1918386524 -1509211075 -1754625589 -980787553 705848572 849844027 908284754 165055885 -286132282 485706238 -1089216431 842402837 2006563633
REM
CELL 1.54180   50.00000   50.00000   50.00000   90.00000   90.00000   90.00000
LATT -1
SFAC C  
C      1  0.5328640000000  0.5249800000000  0.4708120000000 1.0
C      1  0.4985310000000  0.4194010000000  0.5399750000000 1.0
C      1  0.4318950000000  0.5306990000000  0.5524180000000 1.0
C      1  0.5626980000000  0.5196510000000  0.5705080000000 1.0
C      1  0.4333790000000  0.4574520000000  0.4974750000000 1.0
C      1  0.5102970000000  0.5881440000000  0.4968240000000 1.0
C      1  0.4960830000000  0.4338760000000  0.4495280000000 1.0
C      1  0.3979490000000  0.4809980000000  0.5218600000000 1.0
C      1  0.5103490000000  0.5820510000000  0.4681850000000 1.0
C      1  0.5591260000000  0.5306240000000  0.4907070000000 1.0
C      1  0.4532000000000  0.5694220000000  0.5311880000000 1.0
C      1  0.4829530000000  0.5611420000000  0.5664180000000 1.0
C      1  0.5463590000000  0.5172670000000  0.4164920000000 1.0
C      1  0.5855390000000  0.4573770000000  0.5161130000000 1.0
C      1  0.5778470000000  0.5225160000000  0.5454660000000 1.0
C      1  0.4336960000000  0.5072810000000  0.5013240000000 1.0
C      1  0.5467130000000  0.4682710000000  0.5792460000000 1.0
C      1  0.5228880000000  0.5303930000000  0.5565990000000 1.0
C      1  0.4890610000000  0.5544180000000  0.4221510000000 1.0
C      1  0.4956150000000  0.4129620000000  0.5116760000000 1.0
C      1  0.4617210000000  0.4571390000000  0.4516660000000 1.0
C      1  0.5271090000000  0.4183070000000  0.5070580000000 1.0
C      1  0.4104990000000  0.5323640000000  0.5310870000000 1.0
C      1  0.4502790000000  0.4395900000000  0.5399750000000 1.0
C      1  0.5012790000000  0.4538080000000  0.4282110000000 1.0
C      1  0.5393590000000  0.5507340000000  0.4586530000000 1.0
C      1  0.5815890000000  0.4882660000000  0.4710190000000 1.0
C      1  0.5148380000000  0.5588990000000  0.4184060000000 1.0
C      1  0.5539280000000  0.4530690000000  0.4870500000000 1.0
C      1  0.4686850000000  0.5476510000000  0.4610130000000 1.0
C      1  0.4219930000000  0.4988650000000  0.4385980000000 1.0
C      1  0.4633430000000  0.5478180000000  0.4273280000000 1.0
C      1  0.5293130000000  0.4936980000000  0.4284170000000 1.0
C      1  0.5216380000000  0.5309980000000  0.4085580000000 1.0
C      1  0.4287340000000  0.5244130000000  0.4277130000000 1.0
C      1  0.4806510000000  0.5189070000000  0.4689850000000 1.0
C      1  0.5234150000000  0.4506850000000  0.5765250000000 1.0
C      1  0.4733670000000  0.4339300000000  0.4665770000000 1.0
C      1  0.5522810000000  0.5455780000000  0.5134610000000 1.0
C      1  0.4568150000000  0.5206870000000  0.4196370000000 1.0
C      1  0.5133330000000  0.4791030000000  0.4697160000000 1.0
C      1  0.5059630000000  0.5243010000000  0.4829210000000 1.0
C      1  0.5150260000000  0.4490860000000  0.4690030000000 1.0
C      1  0.4782600000000  0.4865030000000  0.5881630000000 1.0
C      1  0.5686940000000  0.4746970000000  0.4519780000000 1.0
C      1  0.5277880000000  0.5010450000000  0.5542120000000 1.0
C      1  0.5669840000000  0.4444020000000  0.5361390000000 1.0
C      1  0.4234950000000  0.4797120000000  0.5398420000000 1.0
C      1  0.4066790000000  0.5089700000000  0.5130270000000 1.0
C      1  0.5623830000000  0.4665250000000  0.5545990000000 1.0
C      1  0.5862400000000  0.5315660000000  0.4792460000000 1.0
C      1  0.5446370000000  0.4977160000000  0.5791550000000 1.0
C      1  0.5269230000000  0.4995760000000  0.4577700000000 1.0
C      1  0.4773620000000  0.5263460000000  0.5191440000000 1.0
C      1  0.4975050000000  0.4625520000000  0.5829780000000 1.0
C      1  0.5833720000000  0.5129040000000  0.4548060000000 1.0
C      1  0.5845380000000  0.4834860000000  0.5038100000000 1.0
C      1  0.5831030000000  0.4435950000000  0.4902780000000 1.0
C      1  0.5231960000000  0.4307600000000  0.5532320000000 1.0
C      1  0.5245330000000  0.5414070000000  0.5254430000000 1.0
C      1  0.5730520000000  0.5012650000000  0.5242450000000 1.0
C      1  0.5017600000000  0.5336060000000  0.5085160000000 1.0
C      1  0.4735800000000  0.4259570000000  0.4959250000000 1.0
C      1  0.5307060000000  0.5710290000000  0.4425990000000 1.0
C      1  0.4553950000000  0.5589880000000  0.5704690000000 1.0
C      1  0.4526450000000  0.4841610000000  0.5706150000000 1.0
C      1  0.4528320000000  0.5088660000000  0.5548050000000 1.0
C      1  0.4988010000000  0.4870480000000  0.5398710000000 1.0
C      1  0.4182450000000  0.5555360000000  0.5168880000000 1.0
C      1  0.4313170000000  0.5707430000000  0.4971690000000 1.0
C      1  0.5106250000000  0.4808610000000  0.5128630000000 1.0
C      1  0.4760720000000  0.5073890000000  0.5389350000000 1.0
C      1  0.5511030000000  0.4886530000000  0.5386940000000 1.0
C      1  0.5289410000000  0.4632250000000  0.4245540000000 1.0
C      1  0.4538670000000  0.5289310000000  0.5040050000000 1.0
C      1  0.4769120000000  0.4357160000000  0.5505290000000 1.0
C      1  0.4279820000000  0.4806870000000  0.4512220000000 1.0
C      1  0.4533530000000  0.5532230000000  0.4879820000000 1.0
C      1  0.5462840000000  0.4132580000000  0.4822600000000 1.0
C      1  0.4394180000000  0.5580380000000  0.5516780000000 1.0
C      1  0.5159260000000  0.4440260000000  0.4972760000000 1.0
C      1  0.5290110000000  0.5689010000000  0.5369530000000 1.0
C      1  0.4399720000000  0.4820010000000  0.5151730000000 1.0
C      1  0.4779440000000  0.4990490000000  0.4202000000000 1.0
C      1  0.5644710000000  0.5485380000000  0.5398050000000 1.0
C      1  0.5048070000000  0.5076250000000  0.4136820000000 1.0
C      1  0.4473620000000  0.4730390000000  0.4705140000000 1.0
C      1  0.5424770000000  0.4384260000000  0.4638300000000 1.0
C      1  0.4389230000000  0.4618680000000  0.5566820000000 1.0
C      1  0.5525330000000  0.4555060000000  0.4390890000000 1.0
C      1  0.4985670000000  0.5363740000000  0.5744320000000 1.0
C      1  0.4509910000000  0.4364390000000  0.5109640000000 1.0
C      1  0.5732950000000  0.4174480000000  0.4863900000000 1.0
C      1  0.4880360000000  0.5680710000000  0.4685180000000 1.0
C      1  0.4879480000000  0.5122980000000  0.5829700000000 1.0
C      1  0.5665310000000  0.5282190000000  0.4338620000000 1.0
C      1  0.4686330000000  0.4962030000000  0.4805470000000 1.0
C      1  0.5429540000000  0.4281500000000  0.5334480000000 1.0
C      1  0.4021050000000  0.4595600000000  0.5031020000000 1.0
C      1  0.4213850000000  0.5477860000000  0.4465510000000 1.0
C      1  0.4879460000000  0.4627860000000  0.5558000000000 1.0
C      1  0.5579290000000  0.5547590000000  0.4414090000000 1.0
C      1  0.5070520000000  0.5834350000000  0.5262440000000 1.0
C      1  0.4780080000000  0.4712080000000  0.4306940000000 1.0
C      1  0.5478250000000  0.5443670000000  0.5637320000000 1.0
C      1  0.5341610000000  0.4642910000000  0.5069900000000 1.0
C      1  0.4938080000000  0.4839790000000  0.4903030000000 1.0
C      1  0.4793600000000  0.5737330000000  0.5398830000000 1.0
C      1  0.4192540000000  0.5661530000000  0.4667650000000 1.0
END
