TITL C-4164238-4211-736 52.6983766723735 125000 -16265.0278951689 0 0 111 (C1) n - 1
REM
REM in /home/nfs/bkarasulu/CARBON/AIRSS/Generating-Clusters/ReaxFF-fromJPCA2015/Units_Real/with-SteepDescent/Only-C1/SD-CG/Try1-3A/FIRE-CG
REM
REM
REM
REM
REM
REM ./C.cell (11c1c37f851c82e70ff6c80c92926a4b)
REM
REM compiler GCC version 9.2.1 20190827 (Red Hat 9.2.1-1)
REM options -cpp -mtune=generic -march=x86-64 -g -O0 -fpre-include=/usr/include/finclude/math-vector-fortran.h
REM seed 222848525 129447049 1795729343 -1416127794 346354280 1432825646 1078911674 1861945041 895603818 156103942 314176828 -1600273745 -682242221 -767487355 1239443632 194757003 2058859164 -1642308599 -1977324565 -1371771522 -702799815 -971927594 -1510617700 -1213033248 1509847143 -716852291 238219801 1779935158 -941423044 -1777673259 -937121533 363524094 -550768941
REM
CELL 1.54180   50.00000   50.00000   50.00000   90.00000   90.00000   90.00000
LATT -1
SFAC C  
C      1  0.5052820000000  0.4763820000000  0.4043150000000 1.0
C      1  0.5024850000000  0.5329520000000  0.4537890000000 1.0
C      1  0.4288310000000  0.5131730000000  0.5657980000000 1.0
C      1  0.4949200000000  0.4649480000000  0.5390240000000 1.0
C      1  0.4824420000000  0.5162490000000  0.5473280000000 1.0
C      1  0.5230830000000  0.4541250000000  0.4955540000000 1.0
C      1  0.5348790000000  0.4989270000000  0.4714080000000 1.0
C      1  0.4783850000000  0.4432320000000  0.4375410000000 1.0
C      1  0.4787200000000  0.4800920000000  0.4202570000000 1.0
C      1  0.4619690000000  0.4507200000000  0.5630310000000 1.0
C      1  0.4571940000000  0.4974280000000  0.4244520000000 1.0
C      1  0.4924010000000  0.4566440000000  0.4564230000000 1.0
C      1  0.4736650000000  0.5629870000000  0.5553880000000 1.0
C      1  0.5240190000000  0.5457340000000  0.4952490000000 1.0
C      1  0.4376260000000  0.4665640000000  0.4510340000000 1.0
C      1  0.4290760000000  0.4885590000000  0.5072130000000 1.0
C      1  0.5247240000000  0.5796250000000  0.4580300000000 1.0
C      1  0.5744780000000  0.4970130000000  0.4414040000000 1.0
C      1  0.5457930000000  0.5289420000000  0.5647890000000 1.0
C      1  0.4313010000000  0.5374750000000  0.5540850000000 1.0
C      1  0.4289210000000  0.5396010000000  0.5211300000000 1.0
C      1  0.5805100000000  0.4662890000000  0.4693170000000 1.0
C      1  0.5734750000000  0.5144430000000  0.5214520000000 1.0
C      1  0.4517510000000  0.4408350000000  0.4494730000000 1.0
C      1  0.4368010000000  0.5122870000000  0.4334920000000 1.0
C      1  0.5568530000000  0.4260980000000  0.4885710000000 1.0
C      1  0.4778290000000  0.4678280000000  0.5817660000000 1.0
C      1  0.5350050000000  0.4721890000000  0.5363390000000 1.0
C      1  0.5741170000000  0.4883950000000  0.5337530000000 1.0
C      1  0.5607850000000  0.5356470000000  0.5399210000000 1.0
C      1  0.5139420000000  0.4850170000000  0.5318140000000 1.0
C      1  0.5750290000000  0.5390720000000  0.4451990000000 1.0
C      1  0.4670090000000  0.5946350000000  0.4843960000000 1.0
C      1  0.5552900000000  0.5625300000000  0.5297350000000 1.0
C      1  0.4147110000000  0.5018170000000  0.4839460000000 1.0
C      1  0.5513990000000  0.4489200000000  0.5360870000000 1.0
C      1  0.5721310000000  0.5653180000000  0.4817250000000 1.0
C      1  0.4617860000000  0.4576440000000  0.5025990000000 1.0
C      1  0.4930810000000  0.4850960000000  0.4903360000000 1.0
C      1  0.5101000000000  0.5332500000000  0.5215910000000 1.0
C      1  0.4625110000000  0.4917130000000  0.5857950000000 1.0
C      1  0.4274120000000  0.4932330000000  0.4538660000000 1.0
C      1  0.5680400000000  0.4688300000000  0.4419090000000 1.0
C      1  0.4361170000000  0.4646210000000  0.5565970000000 1.0
C      1  0.5342480000000  0.4299490000000  0.5092050000000 1.0
C      1  0.5645190000000  0.4815310000000  0.5625260000000 1.0
C      1  0.4757880000000  0.5182150000000  0.5773330000000 1.0
C      1  0.5200580000000  0.4992200000000  0.4078980000000 1.0
C      1  0.4580910000000  0.4225090000000  0.4729460000000 1.0
C      1  0.4392020000000  0.5670310000000  0.5129590000000 1.0
C      1  0.5619320000000  0.5194770000000  0.4277870000000 1.0
C      1  0.5260670000000  0.4249760000000  0.4455600000000 1.0
C      1  0.4157270000000  0.4438260000000  0.5260730000000 1.0
C      1  0.4938940000000  0.4559550000000  0.4852630000000 1.0
C      1  0.5845980000000  0.5387500000000  0.4738590000000 1.0
C      1  0.5745800000000  0.4496440000000  0.4922180000000 1.0
C      1  0.5094850000000  0.4114740000000  0.5137140000000 1.0
C      1  0.5508130000000  0.5753700000000  0.4660280000000 1.0
C      1  0.4711690000000  0.4131820000000  0.4966470000000 1.0
C      1  0.4475700000000  0.5710140000000  0.4853770000000 1.0
C      1  0.4505220000000  0.4812310000000  0.4899760000000 1.0
C      1  0.5140550000000  0.5907290000000  0.5064750000000 1.0
C      1  0.4714310000000  0.5419850000000  0.5090910000000 1.0
C      1  0.4350520000000  0.4877900000000  0.5759790000000 1.0
C      1  0.5155860000000  0.4915750000000  0.5052250000000 1.0
C      1  0.4376510000000  0.4344880000000  0.5072480000000 1.0
C      1  0.4531700000000  0.5217080000000  0.5160210000000 1.0
C      1  0.4697420000000  0.4722540000000  0.5273390000000 1.0
C      1  0.4755290000000  0.5270100000000  0.4643280000000 1.0
C      1  0.5332080000000  0.5220040000000  0.4153390000000 1.0
C      1  0.4736030000000  0.4985880000000  0.4730070000000 1.0
C      1  0.4641390000000  0.5000610000000  0.5312560000000 1.0
C      1  0.5209110000000  0.4536440000000  0.4157120000000 1.0
C      1  0.5141840000000  0.5727370000000  0.4848370000000 1.0
C      1  0.5213070000000  0.4955800000000  0.5880910000000 1.0
C      1  0.5474770000000  0.5018070000000  0.5753410000000 1.0
C      1  0.4566350000000  0.5438260000000  0.5673420000000 1.0
C      1  0.5809720000000  0.5159250000000  0.4921790000000 1.0
C      1  0.5250350000000  0.4493750000000  0.5741190000000 1.0
C      1  0.5545310000000  0.5538890000000  0.5025240000000 1.0
C      1  0.5050520000000  0.4411890000000  0.5532560000000 1.0
C      1  0.5427230000000  0.4233220000000  0.4651460000000 1.0
C      1  0.4217730000000  0.4710910000000  0.5318750000000 1.0
C      1  0.5017980000000  0.5630450000000  0.5656880000000 1.0
C      1  0.5390300000000  0.4670260000000  0.4353050000000 1.0
C      1  0.4610710000000  0.5602230000000  0.4294920000000 1.0
C      1  0.5391090000000  0.4784510000000  0.4935660000000 1.0
C      1  0.5832090000000  0.4957970000000  0.4705400000000 1.0
C      1  0.5204100000000  0.5401360000000  0.5749730000000 1.0
C      1  0.4616950000000  0.5450480000000  0.4821800000000 1.0
C      1  0.5128840000000  0.5395840000000  0.4281720000000 1.0
C      1  0.5228580000000  0.4859140000000  0.4486880000000 1.0
C      1  0.5116100000000  0.5782200000000  0.5453700000000 1.0
C      1  0.5229390000000  0.5248610000000  0.4732510000000 1.0
C      1  0.5323820000000  0.5834110000000  0.5287540000000 1.0
C      1  0.5102970000000  0.5136460000000  0.5411370000000 1.0
C      1  0.5052740000000  0.5196800000000  0.5873440000000 1.0
C      1  0.4387490000000  0.5444970000000  0.4315580000000 1.0
C      1  0.4099810000000  0.4340470000000  0.4970280000000 1.0
C      1  0.4847490000000  0.5690710000000  0.4291330000000 1.0
C      1  0.5534660000000  0.4541230000000  0.5667210000000 1.0
C      1  0.5078000000000  0.4694190000000  0.5858560000000 1.0
C      1  0.4824950000000  0.4134380000000  0.5234190000000 1.0
C      1  0.4095220000000  0.5248210000000  0.4990820000000 1.0
C      1  0.4848050000000  0.5908020000000  0.5076040000000 1.0
C      1  0.5707220000000  0.4639690000000  0.5176170000000 1.0
C      1  0.4783900000000  0.4298080000000  0.5506700000000 1.0
C      1  0.4672170000000  0.5683530000000  0.5245080000000 1.0
C      1  0.5122910000000  0.5670410000000  0.4322760000000 1.0
C      1  0.4925300000000  0.4828320000000  0.4481080000000 1.0
C      1  0.5048120000000  0.4317260000000  0.4279410000000 1.0
END
