TITL C-4164244-2836-386 -0.0397365165218067 125000 -2605.81402998289 0 0 19 (C1) n - 1
REM
REM in /home/nfs/bkarasulu/CARBON/AIRSS/Generating-Clusters/ReaxFF-fromJPCA2015/Units_Real/with-SteepDescent/Only-C1/SD-CG/Try1-3A/FIRE-CG
REM
REM
REM
REM
REM
REM ./C.cell (11c1c37f851c82e70ff6c80c92926a4b)
REM
REM compiler GCC version 9.2.1 20190827 (Red Hat 9.2.1-1)
REM options -cpp -mtune=generic -march=x86-64 -g -O0 -fpre-include=/usr/include/finclude/math-vector-fortran.h
REM seed 366896340 1667648603 1743014446 61982166 -1873320940 -189255441 -1407802246 1194766143 -1152721949 1613632127 -323018526 -1096466823 -481713883 -309218651 199928712 416355611 1754528610 -853275376 2047870473 -1431539722 -1687254585 1922967226 -84022895 204204661 1407200682 -2049196500 -1418845063 -919788042 698808725 -608626621 -1168708015 266946844 -1175612451
REM
CELL 1.54180   50.00000   50.00000   50.00000   90.00000   90.00000   90.00000
LATT -1
SFAC C  
C      1  0.4978000000000  0.4207970000000  0.4707250000000 1.0
C      1  0.4904980000000  0.5110500000000  0.5354530000000 1.0
C      1  0.4680160000000  0.5190490000000  0.5184150000000 1.0
C      1  0.5341080000000  0.5019730000000  0.5099020000000 1.0
C      1  0.5352920000000  0.5301900000000  0.4967350000000 1.0
C      1  0.4534190000000  0.4954770000000  0.5064310000000 1.0
C      1  0.5331230000000  0.4564100000000  0.4813410000000 1.0
C      1  0.5036290000000  0.4647730000000  0.5289300000000 1.0
C      1  0.5012320000000  0.5520870000000  0.5092270000000 1.0
C      1  0.4684010000000  0.5451720000000  0.4740940000000 1.0
C      1  0.4875530000000  0.4523010000000  0.5084030000000 1.0
C      1  0.4627260000000  0.4679470000000  0.5026360000000 1.0
C      1  0.4740160000000  0.5440220000000  0.5030600000000 1.0
C      1  0.5179390000000  0.5337620000000  0.4743830000000 1.0
C      1  0.5343790000000  0.4799230000000  0.4953450000000 1.0
C      1  0.5243940000000  0.5528000000000  0.5102220000000 1.0
C      1  0.4942430000000  0.5390880000000  0.4585540000000 1.0
C      1  0.5049760000000  0.4397910000000  0.4856110000000 1.0
C      1  0.5142550000000  0.4933890000000  0.5305340000000 1.0
END
