TITL C-4164243-3780-178 -0.295806674606236 125000 -3103.94859343097 0 0 22 (C1) n - 1
REM
REM in /home/nfs/bkarasulu/CARBON/AIRSS/Generating-Clusters/ReaxFF-fromJPCA2015/Units_Real/with-SteepDescent/Only-C1/SD-CG/Try1-3A/FIRE-CG
REM
REM
REM
REM
REM
REM ./C.cell (11c1c37f851c82e70ff6c80c92926a4b)
REM
REM compiler GCC version 9.2.1 20190827 (Red Hat 9.2.1-1)
REM options -cpp -mtune=generic -march=x86-64 -g -O0 -fpre-include=/usr/include/finclude/math-vector-fortran.h
REM seed 1209900540 -1071380489 1168975248 -1181449047 -781051355 1432249465 1378420265 630888173 -948999862 433211425 1933934788 -1646911025 1168243043 -1318394035 -1393083169 -1336535952 772287047 -1223662226 651356575 -832419990 1066022076 -44722232 259830786 -630507277 515351005 -1256556985 82943544 2104649068 878404398 1848282156 1987657250 -1542293153 1878781098
REM
CELL 1.54180   50.00000   50.00000   50.00000   90.00000   90.00000   90.00000
LATT -1
SFAC C  
C      1  0.4694800000000  0.5589470000000  0.5217540000000 1.0
C      1  0.4995270000000  0.5451370000000  0.5250990000000 1.0
C      1  0.4975260000000  0.4999390000000  0.5519420000000 1.0
C      1  0.5241390000000  0.5049110000000  0.5469590000000 1.0
C      1  0.5137080000000  0.5396240000000  0.5023830000000 1.0
C      1  0.5149810000000  0.4502080000000  0.4699250000000 1.0
C      1  0.5113300000000  0.4684200000000  0.5204410000000 1.0
C      1  0.5331830000000  0.4889010000000  0.5231960000000 1.0
C      1  0.4656650000000  0.4820710000000  0.5158600000000 1.0
C      1  0.4579550000000  0.5086400000000  0.5147940000000 1.0
C      1  0.5132130000000  0.5132070000000  0.4344970000000 1.0
C      1  0.5315870000000  0.5276170000000  0.4832430000000 1.0
C      1  0.4738250000000  0.4663380000000  0.4917120000000 1.0
C      1  0.5054270000000  0.5264990000000  0.5473690000000 1.0
C      1  0.4887590000000  0.4793530000000  0.5340260000000 1.0
C      1  0.5216170000000  0.5206290000000  0.4550950000000 1.0
C      1  0.5366970000000  0.5062270000000  0.5011960000000 1.0
C      1  0.5028600000000  0.4894020000000  0.4353730000000 1.0
C      1  0.4794920000000  0.4725290000000  0.4652710000000 1.0
C      1  0.5018700000000  0.4543110000000  0.4962140000000 1.0
C      1  0.4984040000000  0.4633520000000  0.4467900000000 1.0
C      1  0.4587550000000  0.5337390000000  0.5168610000000 1.0
END
