TITL C-4164238-4211-435 -5.00026577010028e-05 125000 -4492.4709838317 0 0 32 (C1) n - 1
REM
REM in /home/nfs/bkarasulu/CARBON/AIRSS/Generating-Clusters/ReaxFF-fromJPCA2015/Units_Real/with-SteepDescent/Only-C1/SD-CG/Try1-3A/FIRE-CG
REM
REM
REM
REM
REM
REM ./C.cell (11c1c37f851c82e70ff6c80c92926a4b)
REM
REM compiler GCC version 9.2.1 20190827 (Red Hat 9.2.1-1)
REM options -cpp -mtune=generic -march=x86-64 -g -O0 -fpre-include=/usr/include/finclude/math-vector-fortran.h
REM seed 635976500 1300231050 -1291106587 1123143629 -1746735713 1907063529 822160853 1523378499 -1841929926 -1499342246 430943161 -1952021079 -906721789 865349273 -1807899758 -255001515 -6609363 -1949574860 1335580918 1341224007 156190123 244066719 1301339030 1322781168 912797471 -450235376 -1329332106 170090864 -719122484 857495779 929473013 -697672321 -779459084
REM
CELL 1.54180   50.00000   50.00000   50.00000   90.00000   90.00000   90.00000
LATT -1
SFAC C  
C      1  0.4521640000000  0.4926220000000  0.5304980000000 1.0
C      1  0.4757910000000  0.5542670000000  0.4452270000000 1.0
C      1  0.5228770000000  0.4610470000000  0.4588500000000 1.0
C      1  0.4943470000000  0.4528190000000  0.4979830000000 1.0
C      1  0.5634190000000  0.4863760000000  0.4763580000000 1.0
C      1  0.4225460000000  0.4931630000000  0.4895670000000 1.0
C      1  0.4747880000000  0.5260170000000  0.4459150000000 1.0
C      1  0.5340500000000  0.5171520000000  0.5018410000000 1.0
C      1  0.4506370000000  0.5383960000000  0.4915480000000 1.0
C      1  0.5669080000000  0.4686470000000  0.5206720000000 1.0
C      1  0.5421460000000  0.4572440000000  0.5075270000000 1.0
C      1  0.4644200000000  0.5042420000000  0.4608820000000 1.0
C      1  0.4716560000000  0.5528340000000  0.4774020000000 1.0
C      1  0.4600610000000  0.5403160000000  0.5201730000000 1.0
C      1  0.4423130000000  0.5138760000000  0.4778700000000 1.0
C      1  0.5213950000000  0.4891790000000  0.5599160000000 1.0
C      1  0.4845630000000  0.5579190000000  0.5211670000000 1.0
C      1  0.4974220000000  0.4701700000000  0.4705340000000 1.0
C      1  0.5419190000000  0.5166840000000  0.5261650000000 1.0
C      1  0.4910480000000  0.5017160000000  0.5218710000000 1.0
C      1  0.5764140000000  0.4899510000000  0.5021510000000 1.0
C      1  0.4912680000000  0.4279810000000  0.5037660000000 1.0
C      1  0.4941030000000  0.5458960000000  0.4950510000000 1.0
C      1  0.5397210000000  0.5135790000000  0.5549710000000 1.0
C      1  0.5586130000000  0.5109350000000  0.4895850000000 1.0
C      1  0.5026220000000  0.5152730000000  0.4963300000000 1.0
C      1  0.5151810000000  0.4569190000000  0.5199900000000 1.0
C      1  0.5066530000000  0.4805130000000  0.5360510000000 1.0
C      1  0.4685680000000  0.5149740000000  0.5344370000000 1.0
C      1  0.5459580000000  0.4634720000000  0.4785600000000 1.0
C      1  0.4912170000000  0.4986280000000  0.4718450000000 1.0
C      1  0.4352080000000  0.4871920000000  0.5152950000000 1.0
END
