TITL C-4164247-2821-380 7.510379140329 125000 -16252.4242422301 0 0 110 (C1) n - 1
REM
REM in /home/nfs/bkarasulu/CARBON/AIRSS/Generating-Clusters/ReaxFF-fromJPCA2015/Units_Real/with-SteepDescent/Only-C1/SD-CG/Try1-3A/FIRE-CG
REM
REM
REM
REM
REM
REM ./C.cell (11c1c37f851c82e70ff6c80c92926a4b)
REM
REM compiler GCC version 9.2.1 20190827 (Red Hat 9.2.1-1)
REM options -cpp -mtune=generic -march=x86-64 -g -O0 -fpre-include=/usr/include/finclude/math-vector-fortran.h
REM seed 1176380391 -2114541154 1366677438 -1877459063 -1986199255 -1160273466 -563360176 -1790124715 402102922 1793404927 -1547388017 442524028 -103408244 360915031 -780217538 1337214041 688231528 -542037208 -1602850590 -904254650 1073051263 212498598 -109739595 -1875362127 -1584611520 -320820821 -130526738 -962776994 371784952 958753669 -889628895 787977377 -1251862882
REM
CELL 1.54180   50.00000   50.00000   50.00000   90.00000   90.00000   90.00000
LATT -1
SFAC C  
C      1  0.4390620000000  0.5303000000000  0.4830930000000 1.0
C      1  0.4869110000000  0.5317740000000  0.4744370000000 1.0
C      1  0.4282240000000  0.4432340000000  0.4664980000000 1.0
C      1  0.5780800000000  0.5472240000000  0.5428140000000 1.0
C      1  0.4795700000000  0.4235980000000  0.4605260000000 1.0
C      1  0.5455100000000  0.4971020000000  0.5196970000000 1.0
C      1  0.4536000000000  0.5758420000000  0.5220540000000 1.0
C      1  0.4862950000000  0.5944930000000  0.4897380000000 1.0
C      1  0.5530410000000  0.5738890000000  0.5025010000000 1.0
C      1  0.4774040000000  0.4304270000000  0.5080020000000 1.0
C      1  0.5235680000000  0.4736430000000  0.4976620000000 1.0
C      1  0.5518700000000  0.5214240000000  0.5047190000000 1.0
C      1  0.4358380000000  0.4748970000000  0.5645180000000 1.0
C      1  0.4835180000000  0.4747640000000  0.5526000000000 1.0
C      1  0.4701680000000  0.4968930000000  0.5657840000000 1.0
C      1  0.5551660000000  0.5604000000000  0.4773410000000 1.0
C      1  0.5016190000000  0.5202310000000  0.5389900000000 1.0
C      1  0.5863110000000  0.4968130000000  0.4823120000000 1.0
C      1  0.4945660000000  0.4495200000000  0.5691970000000 1.0
C      1  0.5337790000000  0.5527660000000  0.4357780000000 1.0
C      1  0.4348540000000  0.4573130000000  0.5408140000000 1.0
C      1  0.5253730000000  0.5647210000000  0.5410640000000 1.0
C      1  0.4538160000000  0.4662450000000  0.5868560000000 1.0
C      1  0.5039200000000  0.5691020000000  0.5601660000000 1.0
C      1  0.5168340000000  0.5417220000000  0.5267100000000 1.0
C      1  0.5977680000000  0.5119120000000  0.5065950000000 1.0
C      1  0.4992370000000  0.6080960000000  0.4713950000000 1.0
C      1  0.4601020000000  0.5779960000000  0.4803470000000 1.0
C      1  0.4419050000000  0.5031070000000  0.5623960000000 1.0
C      1  0.5266630000000  0.4478870000000  0.4878740000000 1.0
C      1  0.5256140000000  0.5334440000000  0.5006240000000 1.0
C      1  0.5802010000000  0.4698600000000  0.5346720000000 1.0
C      1  0.5436150000000  0.5261390000000  0.4254420000000 1.0
C      1  0.4663620000000  0.5311030000000  0.4949040000000 1.0
C      1  0.4807100000000  0.4569180000000  0.4208180000000 1.0
C      1  0.4745560000000  0.4871170000000  0.5932760000000 1.0
C      1  0.5167070000000  0.4693560000000  0.5802590000000 1.0
C      1  0.5702000000000  0.4565310000000  0.5105410000000 1.0
C      1  0.4613130000000  0.4459590000000  0.4904800000000 1.0
C      1  0.4243330000000  0.5245810000000  0.5232060000000 1.0
C      1  0.4621000000000  0.5665330000000  0.4529150000000 1.0
C      1  0.5235250000000  0.4386250000000  0.4110390000000 1.0
C      1  0.4612330000000  0.4721100000000  0.4765070000000 1.0
C      1  0.5927160000000  0.5394700000000  0.5191240000000 1.0
C      1  0.4953820000000  0.5257800000000  0.4282740000000 1.0
C      1  0.4276020000000  0.5122230000000  0.4623140000000 1.0
C      1  0.4637100000000  0.5490360000000  0.5582220000000 1.0
C      1  0.5376490000000  0.4634730000000  0.5613720000000 1.0
C      1  0.4170420000000  0.4624650000000  0.4872070000000 1.0
C      1  0.4242690000000  0.4977800000000  0.5100140000000 1.0
C      1  0.5299580000000  0.4102750000000  0.4734220000000 1.0
C      1  0.5361980000000  0.4381080000000  0.4612050000000 1.0
C      1  0.4799170000000  0.4262560000000  0.5355250000000 1.0
C      1  0.4193850000000  0.4842640000000  0.4655300000000 1.0
C      1  0.4818490000000  0.5047140000000  0.4442160000000 1.0
C      1  0.5168230000000  0.4393860000000  0.4398740000000 1.0
C      1  0.5003860000000  0.4066200000000  0.4731120000000 1.0
C      1  0.5101120000000  0.5188110000000  0.4825800000000 1.0
C      1  0.4704250000000  0.4953880000000  0.4192630000000 1.0
C      1  0.4444160000000  0.4991760000000  0.4163250000000 1.0
C      1  0.4523910000000  0.4265970000000  0.4711990000000 1.0
C      1  0.4692800000000  0.4947190000000  0.5137270000000 1.0
C      1  0.4493780000000  0.4913430000000  0.4952650000000 1.0
C      1  0.5500790000000  0.4807060000000  0.4382970000000 1.0
C      1  0.4915570000000  0.4130790000000  0.4984370000000 1.0
C      1  0.5577440000000  0.5069930000000  0.5678590000000 1.0
C      1  0.5946850000000  0.4898930000000  0.5226540000000 1.0
C      1  0.5614030000000  0.5077140000000  0.4386040000000 1.0
C      1  0.4223570000000  0.4685640000000  0.5157840000000 1.0
C      1  0.5018270000000  0.5901220000000  0.5160910000000 1.0
C      1  0.5075400000000  0.5211900000000  0.5723600000000 1.0
C      1  0.4464800000000  0.5268040000000  0.5443960000000 1.0
C      1  0.5029080000000  0.4931500000000  0.5890000000000 1.0
C      1  0.4646460000000  0.4426570000000  0.5751410000000 1.0
C      1  0.4398660000000  0.5711440000000  0.5008420000000 1.0
C      1  0.4894950000000  0.5576570000000  0.4601160000000 1.0
C      1  0.5296150000000  0.5829250000000  0.5181710000000 1.0
C      1  0.5257880000000  0.4837500000000  0.4203830000000 1.0
C      1  0.4907200000000  0.4486430000000  0.4464010000000 1.0
C      1  0.5371260000000  0.5244420000000  0.5746060000000 1.0
C      1  0.4586130000000  0.5414530000000  0.4392360000000 1.0
C      1  0.5183240000000  0.4981420000000  0.5293290000000 1.0
C      1  0.5398720000000  0.5612630000000  0.4566650000000 1.0
C      1  0.5201080000000  0.5120480000000  0.4174940000000 1.0
C      1  0.4723250000000  0.5222690000000  0.5227840000000 1.0
C      1  0.5498430000000  0.4369690000000  0.5193080000000 1.0
C      1  0.4627220000000  0.5738150000000  0.5454640000000 1.0
C      1  0.5565610000000  0.4844200000000  0.5493400000000 1.0
C      1  0.5722510000000  0.4700800000000  0.4831810000000 1.0
C      1  0.4887970000000  0.4810780000000  0.4613600000000 1.0
C      1  0.5339600000000  0.4224290000000  0.4994350000000 1.0
C      1  0.4813410000000  0.4718870000000  0.5253220000000 1.0
C      1  0.5104400000000  0.4910330000000  0.4788290000000 1.0
C      1  0.4234790000000  0.5448110000000  0.5030420000000 1.0
C      1  0.4542930000000  0.4710430000000  0.4211920000000 1.0
C      1  0.5663060000000  0.5336450000000  0.4819440000000 1.0
C      1  0.4390380000000  0.5207520000000  0.4357430000000 1.0
C      1  0.4880840000000  0.5863630000000  0.5420330000000 1.0
C      1  0.5751890000000  0.5634270000000  0.5182250000000 1.0
C      1  0.5057210000000  0.5518610000000  0.4373000000000 1.0
C      1  0.5094350000000  0.4725630000000  0.5219230000000 1.0
C      1  0.4389830000000  0.4667720000000  0.4513910000000 1.0
C      1  0.4550670000000  0.4370570000000  0.5486700000000 1.0
C      1  0.5066630000000  0.4642970000000  0.4085420000000 1.0
C      1  0.5773400000000  0.5155320000000  0.4620470000000 1.0
C      1  0.5619610000000  0.5339010000000  0.5637430000000 1.0
C      1  0.5057620000000  0.4309130000000  0.5486480000000 1.0
C      1  0.5574170000000  0.4627460000000  0.4597600000000 1.0
C      1  0.5326760000000  0.4406590000000  0.5439880000000 1.0
C      1  0.4896710000000  0.5458430000000  0.5699950000000 1.0
END
