TITL C-4164239-2837-56 36.9784254317121 125000 -22110.6426498999 0 0 148 (C1) n - 1
REM
REM in /home/nfs/bkarasulu/CARBON/AIRSS/Generating-Clusters/ReaxFF-fromJPCA2015/Units_Real/with-SteepDescent/Only-C1/SD-CG/Try1-3A/FIRE-CG
REM
REM
REM
REM
REM
REM ./C.cell (11c1c37f851c82e70ff6c80c92926a4b)
REM
REM compiler GCC version 9.2.1 20190827 (Red Hat 9.2.1-1)
REM options -cpp -mtune=generic -march=x86-64 -g -O0 -fpre-include=/usr/include/finclude/math-vector-fortran.h
REM seed 1747926450 1859733514 1137409564 1106907795 365442013 1243664768 828418422 1103983966 -1508695335 -652835801 -326705316 -151954496 1613594572 -2005906832 -1536008675 278121643 2124612922 -618577224 322454238 -1534356090 584869591 1557548984 -406245156 -554554812 1777096302 2018176023 221724750 1766768755 1756309854 1188246215 815498666 -1718692457 517022829
REM
CELL 1.54180   50.00000   50.00000   50.00000   90.00000   90.00000   90.00000
LATT -1
SFAC C  
C      1  0.4250770000000  0.4644200000000  0.4946770000000 1.0
C      1  0.5354620000000  0.4931780000000  0.4953700000000 1.0
C      1  0.5726230000000  0.5565440000000  0.4765850000000 1.0
C      1  0.4825890000000  0.5031500000000  0.5532900000000 1.0
C      1  0.4149900000000  0.4971760000000  0.5182090000000 1.0
C      1  0.5151230000000  0.4438700000000  0.5928730000000 1.0
C      1  0.4836810000000  0.4101020000000  0.5579050000000 1.0
C      1  0.4770480000000  0.4690370000000  0.6031190000000 1.0
C      1  0.5188980000000  0.4501730000000  0.4030670000000 1.0
C      1  0.5024610000000  0.5043390000000  0.4512280000000 1.0
C      1  0.4966960000000  0.5789380000000  0.5795840000000 1.0
C      1  0.4868890000000  0.3996570000000  0.5338980000000 1.0
C      1  0.5454150000000  0.4051260000000  0.4580470000000 1.0
C      1  0.4396810000000  0.5057270000000  0.5924450000000 1.0
C      1  0.5228880000000  0.4424620000000  0.5644450000000 1.0
C      1  0.4686680000000  0.5765600000000  0.5694670000000 1.0
C      1  0.5264500000000  0.3961800000000  0.4780770000000 1.0
C      1  0.4005690000000  0.4938280000000  0.5563060000000 1.0
C      1  0.4667420000000  0.5866790000000  0.5421660000000 1.0
C      1  0.5496210000000  0.4666430000000  0.4303440000000 1.0
C      1  0.5241280000000  0.5446210000000  0.4823270000000 1.0
C      1  0.5945940000000  0.4989770000000  0.4809490000000 1.0
C      1  0.5717060000000  0.4435010000000  0.4851730000000 1.0
C      1  0.4858310000000  0.5684730000000  0.4984660000000 1.0
C      1  0.4443400000000  0.4326020000000  0.5650950000000 1.0
C      1  0.4765030000000  0.4760410000000  0.4823000000000 1.0
C      1  0.4151280000000  0.5041590000000  0.4419810000000 1.0
C      1  0.4955450000000  0.5503510000000  0.4783890000000 1.0
C      1  0.4435440000000  0.5018770000000  0.5152510000000 1.0
C      1  0.4289480000000  0.5604630000000  0.5492130000000 1.0
C      1  0.4693980000000  0.5383500000000  0.5306940000000 1.0
C      1  0.4990970000000  0.5405410000000  0.5648790000000 1.0
C      1  0.4649460000000  0.5249240000000  0.4807000000000 1.0
C      1  0.5505510000000  0.5478450000000  0.4114350000000 1.0
C      1  0.5166740000000  0.5934770000000  0.5047330000000 1.0
C      1  0.5058260000000  0.5017780000000  0.4998850000000 1.0
C      1  0.5038720000000  0.3976490000000  0.4569480000000 1.0
C      1  0.4491300000000  0.5411670000000  0.4205680000000 1.0
C      1  0.5070540000000  0.5159590000000  0.5493570000000 1.0
C      1  0.5757770000000  0.5029270000000  0.4077730000000 1.0
C      1  0.5055380000000  0.5931340000000  0.5311410000000 1.0
C      1  0.5582990000000  0.5234510000000  0.3971750000000 1.0
C      1  0.4704250000000  0.4236670000000  0.5780410000000 1.0
C      1  0.4746160000000  0.4508060000000  0.5220570000000 1.0
C      1  0.5991670000000  0.5235860000000  0.4958920000000 1.0
C      1  0.5253010000000  0.4059710000000  0.4367350000000 1.0
C      1  0.4646000000000  0.4639420000000  0.5455620000000 1.0
C      1  0.4870780000000  0.5741550000000  0.4293820000000 1.0
C      1  0.5528150000000  0.5109990000000  0.5129160000000 1.0
C      1  0.5158770000000  0.4519430000000  0.4963330000000 1.0
C      1  0.5309370000000  0.4291790000000  0.4198300000000 1.0
C      1  0.4789700000000  0.4398320000000  0.4261930000000 1.0
C      1  0.4473820000000  0.5561700000000  0.5724840000000 1.0
C      1  0.5774000000000  0.5363000000000  0.5457150000000 1.0
C      1  0.5513490000000  0.4803700000000  0.5560010000000 1.0
C      1  0.5235610000000  0.4683020000000  0.6089510000000 1.0
C      1  0.5744560000000  0.5592120000000  0.5277190000000 1.0
C      1  0.4794430000000  0.5922170000000  0.4831380000000 1.0
C      1  0.4157000000000  0.5518530000000  0.5045910000000 1.0
C      1  0.5294140000000  0.5796290000000  0.5409140000000 1.0
C      1  0.5864450000000  0.5500280000000  0.5021090000000 1.0
C      1  0.5845860000000  0.4679830000000  0.5191430000000 1.0
C      1  0.4909070000000  0.5625090000000  0.4534780000000 1.0
C      1  0.5387300000000  0.4663940000000  0.5044320000000 1.0
C      1  0.4014310000000  0.5161180000000  0.5362550000000 1.0
C      1  0.4075100000000  0.4798450000000  0.4761910000000 1.0
C      1  0.4495620000000  0.5570640000000  0.4434000000000 1.0
C      1  0.4774170000000  0.4061480000000  0.4572150000000 1.0
C      1  0.4071610000000  0.4729800000000  0.5324660000000 1.0
C      1  0.4189340000000  0.5298270000000  0.4854140000000 1.0
C      1  0.5245260000000  0.5332020000000  0.5979530000000 1.0
C      1  0.4663720000000  0.4283570000000  0.5039820000000 1.0
C      1  0.5313470000000  0.4983580000000  0.5647580000000 1.0
C      1  0.5245630000000  0.5610720000000  0.4057010000000 1.0
C      1  0.4389270000000  0.5118520000000  0.4257990000000 1.0
C      1  0.5162870000000  0.5804380000000  0.4257700000000 1.0
C      1  0.4430000000000  0.5157470000000  0.4921520000000 1.0
C      1  0.5514980000000  0.4948090000000  0.3937580000000 1.0
C      1  0.4966630000000  0.4555260000000  0.4447860000000 1.0
C      1  0.5766880000000  0.4927300000000  0.5635520000000 1.0
C      1  0.4548830000000  0.5505290000000  0.4692900000000 1.0
C      1  0.5418450000000  0.4975920000000  0.4649830000000 1.0
C      1  0.5600360000000  0.4848860000000  0.4474130000000 1.0
C      1  0.4389710000000  0.4285720000000  0.5367940000000 1.0
C      1  0.5810600000000  0.4971060000000  0.4350230000000 1.0
C      1  0.5139540000000  0.5927510000000  0.5601900000000 1.0
C      1  0.4859290000000  0.4424600000000  0.5955100000000 1.0
C      1  0.4232010000000  0.4518240000000  0.5213360000000 1.0
C      1  0.4196200000000  0.4995060000000  0.5751740000000 1.0
C      1  0.5499830000000  0.5746960000000  0.5216930000000 1.0
C      1  0.5133060000000  0.4651140000000  0.5474450000000 1.0
C      1  0.4895240000000  0.4548440000000  0.4028130000000 1.0
C      1  0.5627580000000  0.4297020000000  0.4608700000000 1.0
C      1  0.5529150000000  0.4403200000000  0.4354990000000 1.0
C      1  0.5596760000000  0.5749980000000  0.4563100000000 1.0
C      1  0.4866940000000  0.5046070000000  0.4773200000000 1.0
C      1  0.5022160000000  0.5163400000000  0.6054660000000 1.0
C      1  0.5365630000000  0.4733530000000  0.4062980000000 1.0
C      1  0.4450460000000  0.4614740000000  0.5676950000000 1.0
C      1  0.5291460000000  0.5793360000000  0.4534670000000 1.0
C      1  0.5865880000000  0.4691470000000  0.4909630000000 1.0
C      1  0.4345500000000  0.5742820000000  0.5025480000000 1.0
C      1  0.4053500000000  0.5093950000000  0.4698920000000 1.0
C      1  0.4410690000000  0.4648440000000  0.4403310000000 1.0
C      1  0.5580970000000  0.4242380000000  0.5047480000000 1.0
C      1  0.5102770000000  0.5212380000000  0.5200170000000 1.0
C      1  0.5556260000000  0.4309240000000  0.5323660000000 1.0
C      1  0.4611050000000  0.5134810000000  0.5360950000000 1.0
C      1  0.4516090000000  0.4165810000000  0.4540290000000 1.0
C      1  0.5328050000000  0.4075000000000  0.5041340000000 1.0
C      1  0.4583610000000  0.4097940000000  0.5249970000000 1.0
C      1  0.4776250000000  0.5630190000000  0.5253350000000 1.0
C      1  0.4521690000000  0.5784610000000  0.4789080000000 1.0
C      1  0.4114940000000  0.5436410000000  0.5326640000000 1.0
C      1  0.5443880000000  0.5174090000000  0.5827150000000 1.0
C      1  0.5066290000000  0.5255220000000  0.4166830000000 1.0
C      1  0.5907420000000  0.4895410000000  0.5378560000000 1.0
C      1  0.5177810000000  0.5263650000000  0.4417870000000 1.0
C      1  0.5005770000000  0.4870120000000  0.6103590000000 1.0
C      1  0.5025370000000  0.4548630000000  0.5212100000000 1.0
C      1  0.4402140000000  0.5803140000000  0.5310490000000 1.0
C      1  0.5091090000000  0.5933680000000  0.4777250000000 1.0
C      1  0.5418130000000  0.5534480000000  0.5024040000000 1.0
C      1  0.5710590000000  0.5209780000000  0.5702020000000 1.0
C      1  0.4789580000000  0.4818710000000  0.4103700000000 1.0
C      1  0.4968630000000  0.4824540000000  0.4335700000000 1.0
C      1  0.5289520000000  0.5495620000000  0.4561160000000 1.0
C      1  0.5355490000000  0.5315290000000  0.5180640000000 1.0
C      1  0.4502960000000  0.4634110000000  0.4751410000000 1.0
C      1  0.5670130000000  0.5563570000000  0.4346380000000 1.0
C      1  0.4518800000000  0.4775990000000  0.5917380000000 1.0
C      1  0.4508640000000  0.4377150000000  0.4328590000000 1.0
C      1  0.4826500000000  0.5267240000000  0.5853430000000 1.0
C      1  0.4536340000000  0.5318570000000  0.5871550000000 1.0
C      1  0.4876440000000  0.4770140000000  0.5554980000000 1.0
C      1  0.4532210000000  0.4336210000000  0.4783250000000 1.0
C      1  0.4522970000000  0.4873740000000  0.4211250000000 1.0
C      1  0.5549770000000  0.4615200000000  0.5287870000000 1.0
C      1  0.5917540000000  0.5122430000000  0.4551880000000 1.0
C      1  0.5160740000000  0.4057290000000  0.5286890000000 1.0
C      1  0.5165620000000  0.5567820000000  0.5813670000000 1.0
C      1  0.5328490000000  0.4202750000000  0.5478510000000 1.0
C      1  0.5824740000000  0.5399380000000  0.4540560000000 1.0
C      1  0.4135810000000  0.4753270000000  0.4475950000000 1.0
C      1  0.4984860000000  0.5451760000000  0.3988110000000 1.0
C      1  0.4724720000000  0.5556140000000  0.4094840000000 1.0
C      1  0.4967910000000  0.4570040000000  0.4743960000000 1.0
C      1  0.5762140000000  0.5127540000000  0.5279140000000 1.0
END
