TITL C-4164234-2335-132 18.3693787628881 125000 -25349.1113841584 0 0 170 (C1) n - 1
REM
REM in /home/nfs/bkarasulu/CARBON/AIRSS/Generating-Clusters/ReaxFF-fromJPCA2015/Units_Real/with-SteepDescent/Only-C1/SD-CG/Try1-3A/FIRE-CG
REM
REM
REM
REM
REM
REM ./C.cell (11c1c37f851c82e70ff6c80c92926a4b)
REM
REM compiler GCC version 9.2.1 20190827 (Red Hat 9.2.1-1)
REM options -cpp -mtune=generic -march=x86-64 -g -O0 -fpre-include=/usr/include/finclude/math-vector-fortran.h
REM seed -528576719 248591253 -710780273 -173969348 -359405949 252184267 2143806323 -1723726224 -1885271169 1844837695 -428679296 1566137664 -129163121 139257123 -911684193 -1104351775 -95098197 1880003786 1984869016 -305210657 1375855001 867760892 -290202045 539417728 -690547077 859859823 1432443493 1334890270 -823149243 2015578924 417019270 655591835 -610756495
REM
CELL 1.54180   50.00000   50.00000   50.00000   90.00000   90.00000   90.00000
LATT -1
SFAC C  
C      1  0.5931570000000  0.4806600000000  0.4490670000000 1.0
C      1  0.4446080000000  0.4184660000000  0.5371400000000 1.0
C      1  0.4834140000000  0.4470290000000  0.5193190000000 1.0
C      1  0.5574960000000  0.4243430000000  0.5169630000000 1.0
C      1  0.4474990000000  0.4588600000000  0.5849870000000 1.0
C      1  0.4038610000000  0.5201320000000  0.4954660000000 1.0
C      1  0.5264660000000  0.6089760000000  0.4803550000000 1.0
C      1  0.5896000000000  0.5021730000000  0.4290870000000 1.0
C      1  0.4979340000000  0.6050350000000  0.4758240000000 1.0
C      1  0.4328050000000  0.5108260000000  0.4269660000000 1.0
C      1  0.4860380000000  0.5092230000000  0.4772740000000 1.0
C      1  0.5712090000000  0.5034260000000  0.4066940000000 1.0
C      1  0.5983160000000  0.4671380000000  0.5016100000000 1.0
C      1  0.4285500000000  0.4137390000000  0.4634550000000 1.0
C      1  0.4920360000000  0.5208710000000  0.4322510000000 1.0
C      1  0.4128310000000  0.5518700000000  0.5384570000000 1.0
C      1  0.4725020000000  0.5208700000000  0.5750950000000 1.0
C      1  0.5278230000000  0.4706540000000  0.5262610000000 1.0
C      1  0.5668810000000  0.5817050000000  0.4672960000000 1.0
C      1  0.4344240000000  0.5588990000000  0.5903260000000 1.0
C      1  0.5209210000000  0.4876980000000  0.5036540000000 1.0
C      1  0.4269620000000  0.5760550000000  0.5293580000000 1.0
C      1  0.5434010000000  0.5739960000000  0.5412730000000 1.0
C      1  0.4976020000000  0.5850680000000  0.4307440000000 1.0
C      1  0.5347860000000  0.4998740000000  0.3868310000000 1.0
C      1  0.3895050000000  0.4976800000000  0.4840950000000 1.0
C      1  0.5241590000000  0.3952150000000  0.4879650000000 1.0
C      1  0.5064360000000  0.4287220000000  0.5198410000000 1.0
C      1  0.4993150000000  0.3870160000000  0.4735290000000 1.0
C      1  0.4939470000000  0.4872280000000  0.4956520000000 1.0
C      1  0.4795240000000  0.4920810000000  0.6140830000000 1.0
C      1  0.5481640000000  0.5206560000000  0.5134000000000 1.0
C      1  0.4487360000000  0.5069910000000  0.5827680000000 1.0
C      1  0.4531090000000  0.5915730000000  0.4871050000000 1.0
C      1  0.5369210000000  0.4692740000000  0.4627880000000 1.0
C      1  0.5546970000000  0.4781420000000  0.5354690000000 1.0
C      1  0.4555170000000  0.4843250000000  0.6008530000000 1.0
C      1  0.4244420000000  0.5123720000000  0.5678470000000 1.0
C      1  0.5231210000000  0.5505430000000  0.5399110000000 1.0
C      1  0.5565940000000  0.5168130000000  0.4821630000000 1.0
C      1  0.5577870000000  0.4472630000000  0.4204160000000 1.0
C      1  0.4524960000000  0.5526610000000  0.4984850000000 1.0
C      1  0.5660570000000  0.4369060000000  0.4397640000000 1.0
C      1  0.4501010000000  0.5730870000000  0.4623450000000 1.0
C      1  0.4309280000000  0.5194430000000  0.4553440000000 1.0
C      1  0.4952390000000  0.5361280000000  0.4824260000000 1.0
C      1  0.4887820000000  0.6000590000000  0.5212910000000 1.0
C      1  0.5657350000000  0.5470230000000  0.4424380000000 1.0
C      1  0.4576440000000  0.4646560000000  0.4219810000000 1.0
C      1  0.4914280000000  0.4057930000000  0.5570000000000 1.0
C      1  0.4767430000000  0.6073020000000  0.4954910000000 1.0
C      1  0.4263870000000  0.4179380000000  0.5163960000000 1.0
C      1  0.5805200000000  0.4242670000000  0.4998500000000 1.0
C      1  0.5267210000000  0.5822880000000  0.4382140000000 1.0
C      1  0.4621000000000  0.4106380000000  0.4960240000000 1.0
C      1  0.4522400000000  0.5077290000000  0.4775860000000 1.0
C      1  0.4658560000000  0.5295040000000  0.3941300000000 1.0
C      1  0.5431510000000  0.4705320000000  0.4233280000000 1.0
C      1  0.4288120000000  0.5490680000000  0.4627230000000 1.0
C      1  0.5016660000000  0.4016060000000  0.5299900000000 1.0
C      1  0.4521050000000  0.5274390000000  0.5004270000000 1.0
C      1  0.3847360000000  0.4796810000000  0.5083580000000 1.0
C      1  0.5021180000000  0.4774630000000  0.6242670000000 1.0
C      1  0.4757200000000  0.3953230000000  0.4840080000000 1.0
C      1  0.4365250000000  0.4048350000000  0.4911570000000 1.0
C      1  0.5426670000000  0.5949470000000  0.4591940000000 1.0
C      1  0.5490370000000  0.4383550000000  0.5711360000000 1.0
C      1  0.4238860000000  0.5526370000000  0.6113260000000 1.0
C      1  0.4739460000000  0.4046280000000  0.4318940000000 1.0
C      1  0.5538350000000  0.4811690000000  0.3990840000000 1.0
C      1  0.4932960000000  0.5137130000000  0.5943510000000 1.0
C      1  0.5929320000000  0.4469330000000  0.4830570000000 1.0
C      1  0.5408080000000  0.4892660000000  0.4828320000000 1.0
C      1  0.5264250000000  0.3910810000000  0.5174740000000 1.0
C      1  0.5023490000000  0.4512990000000  0.6128850000000 1.0
C      1  0.5374500000000  0.5374680000000  0.5951800000000 1.0
C      1  0.6034570000000  0.4865160000000  0.5194190000000 1.0
C      1  0.4109840000000  0.5478000000000  0.4853550000000 1.0
C      1  0.4079230000000  0.5624740000000  0.5114960000000 1.0
C      1  0.5672650000000  0.5175630000000  0.5351770000000 1.0
C      1  0.4946140000000  0.4645460000000  0.4756500000000 1.0
C      1  0.5870650000000  0.4914520000000  0.5747660000000 1.0
C      1  0.5478030000000  0.5615120000000  0.5797880000000 1.0
C      1  0.5560870000000  0.5875480000000  0.5152440000000 1.0
C      1  0.4991090000000  0.3929690000000  0.4439130000000 1.0
C      1  0.4918360000000  0.5659120000000  0.4105380000000 1.0
C      1  0.4477330000000  0.5138450000000  0.5248570000000 1.0
C      1  0.6054130000000  0.5010750000000  0.4678150000000 1.0
C      1  0.5885110000000  0.5692050000000  0.4776860000000 1.0
C      1  0.5488780000000  0.5307660000000  0.4565790000000 1.0
C      1  0.5274520000000  0.4911030000000  0.6126920000000 1.0
C      1  0.5468230000000  0.4033260000000  0.5347670000000 1.0
C      1  0.4133000000000  0.4680620000000  0.4561210000000 1.0
C      1  0.4079270000000  0.4886590000000  0.5600020000000 1.0
C      1  0.4895220000000  0.5524680000000  0.4614090000000 1.0
C      1  0.4976860000000  0.5030440000000  0.4518500000000 1.0
C      1  0.5403410000000  0.4134230000000  0.5620160000000 1.0
C      1  0.5154170000000  0.4687410000000  0.5739250000000 1.0
C      1  0.5155280000000  0.6087180000000  0.5303900000000 1.0
C      1  0.4441910000000  0.5128610000000  0.4014380000000 1.0
C      1  0.5886390000000  0.5119190000000  0.4887090000000 1.0
C      1  0.5315790000000  0.4411760000000  0.5095300000000 1.0
C      1  0.5125540000000  0.4154540000000  0.5739700000000 1.0
C      1  0.5354380000000  0.6067470000000  0.5080930000000 1.0
C      1  0.4791160000000  0.4665540000000  0.5403980000000 1.0
C      1  0.4821170000000  0.5324410000000  0.5499350000000 1.0
C      1  0.4804510000000  0.4515050000000  0.4078600000000 1.0
C      1  0.5474040000000  0.5107880000000  0.6050010000000 1.0
C      1  0.5145660000000  0.4945540000000  0.5868370000000 1.0
C      1  0.4986050000000  0.5653060000000  0.5855270000000 1.0
C      1  0.5842020000000  0.5606420000000  0.5345310000000 1.0
C      1  0.4913690000000  0.4267630000000  0.4206250000000 1.0
C      1  0.4696220000000  0.5820730000000  0.4422430000000 1.0
C      1  0.4662550000000  0.5527300000000  0.4125820000000 1.0
C      1  0.4453560000000  0.5615650000000  0.5641190000000 1.0
C      1  0.5270060000000  0.5972040000000  0.5544360000000 1.0
C      1  0.4339530000000  0.5332700000000  0.5487440000000 1.0
C      1  0.4741220000000  0.5414300000000  0.4393700000000 1.0
C      1  0.5014000000000  0.5591780000000  0.4991880000000 1.0
C      1  0.5627660000000  0.4885510000000  0.5886940000000 1.0
C      1  0.5060200000000  0.4403220000000  0.5894190000000 1.0
C      1  0.4507320000000  0.4519890000000  0.4470030000000 1.0
C      1  0.6042770000000  0.5153970000000  0.5123050000000 1.0
C      1  0.5352080000000  0.4177980000000  0.4728790000000 1.0
C      1  0.4966970000000  0.5566110000000  0.5460650000000 1.0
C      1  0.5156280000000  0.4135590000000  0.4315710000000 1.0
C      1  0.4233830000000  0.4420080000000  0.4507330000000 1.0
C      1  0.5242720000000  0.5796770000000  0.5770080000000 1.0
C      1  0.5060640000000  0.4957390000000  0.3846060000000 1.0
C      1  0.5266010000000  0.4461730000000  0.4790150000000 1.0
C      1  0.6016250000000  0.5225110000000  0.4476600000000 1.0
C      1  0.5094400000000  0.5410320000000  0.5970130000000 1.0
C      1  0.4615090000000  0.4481970000000  0.5615800000000 1.0
C      1  0.5460850000000  0.4634390000000  0.5790410000000 1.0
C      1  0.5223760000000  0.5270720000000  0.5254450000000 1.0
C      1  0.3833080000000  0.4500560000000  0.5076630000000 1.0
C      1  0.5153650000000  0.4665040000000  0.4236440000000 1.0
C      1  0.4134990000000  0.4457510000000  0.5116520000000 1.0
C      1  0.5431240000000  0.4189710000000  0.4449280000000 1.0
C      1  0.5788640000000  0.5729120000000  0.5075250000000 1.0
C      1  0.4249910000000  0.4705600000000  0.5728940000000 1.0
C      1  0.4760080000000  0.4943440000000  0.5232150000000 1.0
C      1  0.4666410000000  0.4384750000000  0.4977860000000 1.0
C      1  0.4925290000000  0.5207700000000  0.3889000000000 1.0
C      1  0.5839940000000  0.4540360000000  0.4558180000000 1.0
C      1  0.5928000000000  0.5497570000000  0.4550090000000 1.0
C      1  0.4895550000000  0.5710030000000  0.5229590000000 1.0
C      1  0.4481660000000  0.5754120000000  0.5091690000000 1.0
C      1  0.5023380000000  0.5756200000000  0.4747740000000 1.0
C      1  0.4021970000000  0.4900750000000  0.5303020000000 1.0
C      1  0.4484310000000  0.4795290000000  0.4867400000000 1.0
C      1  0.4416390000000  0.4876780000000  0.4133740000000 1.0
C      1  0.5428250000000  0.5601150000000  0.4287280000000 1.0
C      1  0.5066300000000  0.4671660000000  0.5469200000000 1.0
C      1  0.5798730000000  0.4887350000000  0.5428730000000 1.0
C      1  0.5491710000000  0.5216550000000  0.4002520000000 1.0
C      1  0.4636200000000  0.4191490000000  0.5578900000000 1.0
C      1  0.5671680000000  0.5660650000000  0.5584570000000 1.0
C      1  0.4075210000000  0.4947240000000  0.4616520000000 1.0
C      1  0.5009160000000  0.4703900000000  0.3989350000000 1.0
C      1  0.4714320000000  0.5681190000000  0.5745890000000 1.0
C      1  0.5923430000000  0.5324470000000  0.5331770000000 1.0
C      1  0.4494490000000  0.4085370000000  0.4462510000000 1.0
C      1  0.5073530000000  0.4758910000000  0.4504610000000 1.0
C      1  0.5070640000000  0.5369630000000  0.4103930000000 1.0
C      1  0.4299630000000  0.4648820000000  0.4998400000000 1.0
C      1  0.4948850000000  0.5139970000000  0.5320290000000 1.0
C      1  0.4668920000000  0.4561890000000  0.4749900000000 1.0
C      1  0.5343380000000  0.5352810000000  0.4199150000000 1.0
C      1  0.4202670000000  0.5069410000000  0.5165890000000 1.0
END
