TITL C-4164244-2836-296 17.7935650076111 125000 -26061.568125262 0 0 172 (C1) n - 1
REM
REM in /home/nfs/bkarasulu/CARBON/AIRSS/Generating-Clusters/ReaxFF-fromJPCA2015/Units_Real/with-SteepDescent/Only-C1/SD-CG/Try1-3A/FIRE-CG
REM
REM
REM
REM
REM
REM ./C.cell (11c1c37f851c82e70ff6c80c92926a4b)
REM
REM compiler GCC version 9.2.1 20190827 (Red Hat 9.2.1-1)
REM options -cpp -mtune=generic -march=x86-64 -g -O0 -fpre-include=/usr/include/finclude/math-vector-fortran.h
REM seed -1851915085 1810290131 110649841 1655144391 2025146170 -1639489697 -263346317 -78537016 -1215703450 1177043835 868206866 1143719799 2070054307 197141183 -1918091839 -1679674736 -1089045898 -2136334774 480598212 1372668391 209447736 1370112509 831359706 644057126 2071016540 -1241390619 -2111619766 1119407215 -1605712412 1063332499 1798992439 711701656 648483515
REM
CELL 1.54180   50.00000   50.00000   50.00000   90.00000   90.00000   90.00000
LATT -1
SFAC C  
C      1  0.3881400000000  0.4910420000000  0.5587390000000 1.0
C      1  0.4813770000000  0.4182560000000  0.4746120000000 1.0
C      1  0.5296160000000  0.4115960000000  0.5475350000000 1.0
C      1  0.5277230000000  0.3806570000000  0.4635650000000 1.0
C      1  0.5917090000000  0.5715800000000  0.5095330000000 1.0
C      1  0.4480940000000  0.5533570000000  0.4342220000000 1.0
C      1  0.3919910000000  0.4607330000000  0.4217470000000 1.0
C      1  0.4845650000000  0.5112170000000  0.4189160000000 1.0
C      1  0.4768610000000  0.5363980000000  0.5002070000000 1.0
C      1  0.5030800000000  0.5514940000000  0.3958090000000 1.0
C      1  0.4637690000000  0.4505170000000  0.5200450000000 1.0
C      1  0.4907170000000  0.5713420000000  0.4143240000000 1.0
C      1  0.4760040000000  0.5402560000000  0.3905530000000 1.0
C      1  0.5734710000000  0.5737270000000  0.4662890000000 1.0
C      1  0.4302140000000  0.4931930000000  0.4816840000000 1.0
C      1  0.4900630000000  0.5231140000000  0.5905950000000 1.0
C      1  0.4681390000000  0.5105470000000  0.4616260000000 1.0
C      1  0.5709050000000  0.4413890000000  0.4454270000000 1.0
C      1  0.5877040000000  0.5550590000000  0.4840300000000 1.0
C      1  0.5198450000000  0.4335420000000  0.4258930000000 1.0
C      1  0.4371270000000  0.5712410000000  0.4821150000000 1.0
C      1  0.4736570000000  0.5113060000000  0.3937620000000 1.0
C      1  0.4949930000000  0.4857080000000  0.6119130000000 1.0
C      1  0.4428720000000  0.5909050000000  0.5053110000000 1.0
C      1  0.5518370000000  0.5368240000000  0.5872030000000 1.0
C      1  0.4288640000000  0.4670620000000  0.5608840000000 1.0
C      1  0.5102010000000  0.4903840000000  0.4962990000000 1.0
C      1  0.4156610000000  0.5146350000000  0.4142650000000 1.0
C      1  0.4984770000000  0.5803380000000  0.5009260000000 1.0
C      1  0.4025280000000  0.4981650000000  0.4607280000000 1.0
C      1  0.4879750000000  0.5095510000000  0.5439200000000 1.0
C      1  0.4776710000000  0.5034790000000  0.5716930000000 1.0
C      1  0.4102080000000  0.4826170000000  0.5782510000000 1.0
C      1  0.4842540000000  0.5589960000000  0.5153430000000 1.0
C      1  0.5971790000000  0.5268860000000  0.4880570000000 1.0
C      1  0.4617470000000  0.4640780000000  0.4093100000000 1.0
C      1  0.4149650000000  0.5552390000000  0.4851270000000 1.0
C      1  0.4193130000000  0.4628180000000  0.4083540000000 1.0
C      1  0.4595210000000  0.4227600000000  0.5329840000000 1.0
C      1  0.5381080000000  0.5696130000000  0.4971880000000 1.0
C      1  0.5817560000000  0.4685660000000  0.4387020000000 1.0
C      1  0.4323660000000  0.4109460000000  0.5158660000000 1.0
C      1  0.5798250000000  0.4312060000000  0.4729690000000 1.0
C      1  0.5727800000000  0.4036930000000  0.4809840000000 1.0
C      1  0.6006560000000  0.4876870000000  0.5633760000000 1.0
C      1  0.5106490000000  0.5278850000000  0.4572750000000 1.0
C      1  0.5978740000000  0.5088980000000  0.4652100000000 1.0
C      1  0.4375090000000  0.5700720000000  0.5525710000000 1.0
C      1  0.4854690000000  0.4689080000000  0.5237760000000 1.0
C      1  0.6000660000000  0.5180870000000  0.5633920000000 1.0
C      1  0.5895220000000  0.4807700000000  0.4633350000000 1.0
C      1  0.4058180000000  0.5185860000000  0.4398930000000 1.0
C      1  0.4663630000000  0.4626200000000  0.4634910000000 1.0
C      1  0.5561170000000  0.4117170000000  0.5339180000000 1.0
C      1  0.4798310000000  0.5359470000000  0.4706290000000 1.0
C      1  0.4782920000000  0.5860390000000  0.4589830000000 1.0
C      1  0.5355020000000  0.3889000000000  0.5048950000000 1.0
C      1  0.5583220000000  0.4693460000000  0.5768410000000 1.0
C      1  0.5471560000000  0.5343260000000  0.4204310000000 1.0
C      1  0.6068840000000  0.5304350000000  0.5375140000000 1.0
C      1  0.3937220000000  0.4810820000000  0.5036490000000 1.0
C      1  0.5222630000000  0.4848990000000  0.4206890000000 1.0
C      1  0.4656340000000  0.4882360000000  0.6085490000000 1.0
C      1  0.4844780000000  0.5556150000000  0.5445780000000 1.0
C      1  0.5383810000000  0.5439590000000  0.4477210000000 1.0
C      1  0.5578690000000  0.3864710000000  0.4632330000000 1.0
C      1  0.5455460000000  0.4352470000000  0.4354190000000 1.0
C      1  0.4836220000000  0.5990250000000  0.4843500000000 1.0
C      1  0.4879940000000  0.4224090000000  0.5688840000000 1.0
C      1  0.4885630000000  0.5690620000000  0.5709600000000 1.0
C      1  0.4406080000000  0.5832840000000  0.5308570000000 1.0
C      1  0.4387320000000  0.5086830000000  0.5268540000000 1.0
C      1  0.5798520000000  0.5240760000000  0.4481300000000 1.0
C      1  0.5714200000000  0.4997580000000  0.5247970000000 1.0
C      1  0.5676610000000  0.4732380000000  0.4836490000000 1.0
C      1  0.5984050000000  0.5579910000000  0.5347490000000 1.0
C      1  0.5503690000000  0.5066820000000  0.5439120000000 1.0
C      1  0.4759290000000  0.4699360000000  0.4364600000000 1.0
C      1  0.3867050000000  0.5167320000000  0.5479820000000 1.0
C      1  0.4034580000000  0.5300520000000  0.5006370000000 1.0
C      1  0.5099330000000  0.4668800000000  0.5952310000000 1.0
C      1  0.5741470000000  0.5934890000000  0.5130740000000 1.0
C      1  0.5082060000000  0.6007490000000  0.5499550000000 1.0
C      1  0.5386900000000  0.5436790000000  0.5050710000000 1.0
C      1  0.4342060000000  0.5475050000000  0.5682330000000 1.0
C      1  0.5939410000000  0.4477580000000  0.5216480000000 1.0
C      1  0.4981080000000  0.4121400000000  0.4305460000000 1.0
C      1  0.5596770000000  0.5347780000000  0.4641470000000 1.0
C      1  0.4726260000000  0.4985370000000  0.4375720000000 1.0
C      1  0.5286750000000  0.5398320000000  0.5314810000000 1.0
C      1  0.5754430000000  0.5185960000000  0.5801540000000 1.0
C      1  0.5233780000000  0.5324600000000  0.4045690000000 1.0
C      1  0.5527280000000  0.5350180000000  0.5458800000000 1.0
C      1  0.5033410000000  0.5341220000000  0.5431310000000 1.0
C      1  0.5698620000000  0.5157550000000  0.4224940000000 1.0
C      1  0.5579400000000  0.5887400000000  0.4852180000000 1.0
C      1  0.4509890000000  0.5394340000000  0.5918380000000 1.0
C      1  0.4593180000000  0.4875540000000  0.4769490000000 1.0
C      1  0.5651470000000  0.4767770000000  0.3905020000000 1.0
C      1  0.4161350000000  0.3928880000000  0.5224670000000 1.0
C      1  0.3976140000000  0.4789840000000  0.5325890000000 1.0
C      1  0.4462040000000  0.4503350000000  0.4970050000000 1.0
C      1  0.4777020000000  0.5500800000000  0.5914450000000 1.0
C      1  0.4366090000000  0.4242610000000  0.4886430000000 1.0
C      1  0.5609530000000  0.3962930000000  0.5093970000000 1.0
C      1  0.5352250000000  0.4788670000000  0.3952120000000 1.0
C      1  0.5159730000000  0.5787390000000  0.5710160000000 1.0
C      1  0.5011750000000  0.4840660000000  0.5428160000000 1.0
C      1  0.5257510000000  0.4671580000000  0.5075910000000 1.0
C      1  0.5235280000000  0.4387700000000  0.5554680000000 1.0
C      1  0.5111370000000  0.5138200000000  0.4255940000000 1.0
C      1  0.5619540000000  0.5794580000000  0.5600950000000 1.0
C      1  0.5366480000000  0.4599860000000  0.4820250000000 1.0
C      1  0.5748950000000  0.4340380000000  0.5400030000000 1.0
C      1  0.4596670000000  0.5623430000000  0.4604540000000 1.0
C      1  0.3955450000000  0.4686710000000  0.4499910000000 1.0
C      1  0.5744870000000  0.5546880000000  0.5516040000000 1.0
C      1  0.4724270000000  0.4144970000000  0.4464780000000 1.0
C      1  0.4802120000000  0.4897680000000  0.5030040000000 1.0
C      1  0.5065750000000  0.4423440000000  0.5793200000000 1.0
C      1  0.4621930000000  0.4322830000000  0.5616080000000 1.0
C      1  0.4896900000000  0.3999800000000  0.4967620000000 1.0
C      1  0.4096570000000  0.4499790000000  0.4665800000000 1.0
C      1  0.5429000000000  0.6010090000000  0.4623220000000 1.0
C      1  0.4530770000000  0.4573110000000  0.5695280000000 1.0
C      1  0.4548260000000  0.4885870000000  0.3944920000000 1.0
C      1  0.5598640000000  0.4575780000000  0.5497420000000 1.0
C      1  0.3898580000000  0.5044630000000  0.4874330000000 1.0
C      1  0.4272310000000  0.5129960000000  0.5009440000000 1.0
C      1  0.5237730000000  0.5910230000000  0.5086680000000 1.0
C      1  0.5620510000000  0.4972260000000  0.4979970000000 1.0
C      1  0.4186000000000  0.4672900000000  0.4905600000000 1.0
C      1  0.5264920000000  0.5912870000000  0.4428750000000 1.0
C      1  0.5314950000000  0.4806250000000  0.5800510000000 1.0
C      1  0.4467790000000  0.5127450000000  0.6058690000000 1.0
C      1  0.5347360000000  0.4564180000000  0.5345720000000 1.0
C      1  0.4691570000000  0.5134110000000  0.5178130000000 1.0
C      1  0.4643550000000  0.5588180000000  0.4107530000000 1.0
C      1  0.4419850000000  0.4446940000000  0.4160820000000 1.0
C      1  0.4679020000000  0.6067690000000  0.5093860000000 1.0
C      1  0.4266360000000  0.4812170000000  0.5362490000000 1.0
C      1  0.5200960000000  0.5093510000000  0.4768860000000 1.0
C      1  0.5135100000000  0.3965180000000  0.4458180000000 1.0
C      1  0.4265890000000  0.4267950000000  0.4609570000000 1.0
C      1  0.5504370000000  0.5760010000000  0.4466630000000 1.0
C      1  0.3990690000000  0.5358310000000  0.5318640000000 1.0
C      1  0.5417160000000  0.5655010000000  0.5750910000000 1.0
C      1  0.5595910000000  0.5989960000000  0.5371970000000 1.0
C      1  0.5085060000000  0.5122440000000  0.6116240000000 1.0
C      1  0.5752860000000  0.4872040000000  0.4168040000000 1.0
C      1  0.5096650000000  0.4621750000000  0.4347400000000 1.0
C      1  0.4991130000000  0.5849230000000  0.4387620000000 1.0
C      1  0.5263110000000  0.4927530000000  0.5541870000000 1.0
C      1  0.5131490000000  0.3823000000000  0.4910590000000 1.0
C      1  0.5139900000000  0.4576170000000  0.4651610000000 1.0
C      1  0.4678300000000  0.4787390000000  0.5806970000000 1.0
C      1  0.5315480000000  0.6057560000000  0.5323130000000 1.0
C      1  0.4251750000000  0.5364000000000  0.4302640000000 1.0
C      1  0.5785480000000  0.4892470000000  0.5839590000000 1.0
C      1  0.5007060000000  0.4051980000000  0.5478790000000 1.0
C      1  0.4463690000000  0.4260520000000  0.4390720000000 1.0
C      1  0.4250990000000  0.5317680000000  0.5444760000000 1.0
C      1  0.5312330000000  0.5239660000000  0.5997230000000 1.0
C      1  0.4843250000000  0.6049480000000  0.5338350000000 1.0
C      1  0.5953870000000  0.5151180000000  0.5152750000000 1.0
C      1  0.4837510000000  0.4056420000000  0.5245270000000 1.0
C      1  0.4881090000000  0.4469580000000  0.4750300000000 1.0
C      1  0.5862530000000  0.4507770000000  0.4926570000000 1.0
C      1  0.5488250000000  0.5218060000000  0.4872680000000 1.0
C      1  0.4273810000000  0.4983320000000  0.5934950000000 1.0
C      1  0.4271330000000  0.4907040000000  0.4019110000000 1.0
C      1  0.6001590000000  0.4681190000000  0.5415150000000 1.0
END
