TITL C-4164247-2821-690 22.7265227221038 125000 -28408.1158784918 0 0 190 (C1) n - 1
REM
REM in /home/nfs/bkarasulu/CARBON/AIRSS/Generating-Clusters/ReaxFF-fromJPCA2015/Units_Real/with-SteepDescent/Only-C1/SD-CG/Try1-3A/FIRE-CG
REM
REM
REM
REM
REM
REM ./C.cell (11c1c37f851c82e70ff6c80c92926a4b)
REM
REM compiler GCC version 9.2.1 20190827 (Red Hat 9.2.1-1)
REM options -cpp -mtune=generic -march=x86-64 -g -O0 -fpre-include=/usr/include/finclude/math-vector-fortran.h
REM seed -1174646916 -776552146 858646835 1303090550 1105678323 -751458947 1856792381 -355078577 689397760 1635071286 2015058474 -836100895 -1559018868 75312691 -1973166346 -721042005 -1638403740 123052054 1651422103 -854200837 -259675124 743719717 -2116914930 2093621207 -1637208297 -1018530148 -713044369 -1115174575 -818932473 -1913669358 -682129985 -336337242 -1794402635
REM
CELL 1.54180   50.00000   50.00000   50.00000   90.00000   90.00000   90.00000
LATT -1
SFAC C  
C      1  0.5022290000000  0.5198550000000  0.6088620000000 1.0
C      1  0.4815090000000  0.5628220000000  0.5675060000000 1.0
C      1  0.4971100000000  0.4739750000000  0.4094430000000 1.0
C      1  0.4191640000000  0.5684590000000  0.5684420000000 1.0
C      1  0.4356270000000  0.5914750000000  0.5700580000000 1.0
C      1  0.4528130000000  0.5183900000000  0.5254210000000 1.0
C      1  0.5419760000000  0.5337900000000  0.5806920000000 1.0
C      1  0.4473310000000  0.4807830000000  0.4005550000000 1.0
C      1  0.4854940000000  0.5629530000000  0.4873710000000 1.0
C      1  0.5167750000000  0.5790590000000  0.5831790000000 1.0
C      1  0.6005620000000  0.4798690000000  0.5451800000000 1.0
C      1  0.5396540000000  0.4605430000000  0.3913840000000 1.0
C      1  0.5843230000000  0.4539610000000  0.5012890000000 1.0
C      1  0.5216320000000  0.5973820000000  0.5618410000000 1.0
C      1  0.6114080000000  0.4916780000000  0.5198570000000 1.0
C      1  0.5402810000000  0.5314080000000  0.4147980000000 1.0
C      1  0.5998230000000  0.5062910000000  0.5572110000000 1.0
C      1  0.5718520000000  0.5395090000000  0.5862200000000 1.0
C      1  0.5098580000000  0.5275990000000  0.4571760000000 1.0
C      1  0.4955740000000  0.3860960000000  0.4710390000000 1.0
C      1  0.5103600000000  0.5248690000000  0.4885510000000 1.0
C      1  0.5587070000000  0.4912220000000  0.4464240000000 1.0
C      1  0.4530010000000  0.4561860000000  0.5533250000000 1.0
C      1  0.4491710000000  0.5467130000000  0.5258330000000 1.0
C      1  0.5274780000000  0.5170940000000  0.3893040000000 1.0
C      1  0.4712890000000  0.4957470000000  0.4440100000000 1.0
C      1  0.4984610000000  0.4122040000000  0.4248170000000 1.0
C      1  0.5195490000000  0.5506130000000  0.5743130000000 1.0
C      1  0.4114170000000  0.4099600000000  0.5049920000000 1.0
C      1  0.5008100000000  0.5580140000000  0.4193650000000 1.0
C      1  0.4564300000000  0.5372030000000  0.5974440000000 1.0
C      1  0.4648470000000  0.5877850000000  0.4312010000000 1.0
C      1  0.4833990000000  0.3872130000000  0.4974970000000 1.0
C      1  0.4384370000000  0.5772320000000  0.4389310000000 1.0
C      1  0.5193330000000  0.4675270000000  0.4271790000000 1.0
C      1  0.4136080000000  0.5673880000000  0.4864530000000 1.0
C      1  0.4315000000000  0.4677840000000  0.4691170000000 1.0
C      1  0.4896330000000  0.4042390000000  0.5665030000000 1.0
C      1  0.5202310000000  0.4575210000000  0.5235930000000 1.0
C      1  0.5414820000000  0.5796680000000  0.4175280000000 1.0
C      1  0.5452370000000  0.3979400000000  0.5409720000000 1.0
C      1  0.5325480000000  0.5866510000000  0.4671520000000 1.0
C      1  0.5641470000000  0.4112960000000  0.4876320000000 1.0
C      1  0.3943970000000  0.5320440000000  0.5187590000000 1.0
C      1  0.4902670000000  0.5390790000000  0.5005440000000 1.0
C      1  0.5858840000000  0.5374060000000  0.4367800000000 1.0
C      1  0.5672770000000  0.4744050000000  0.4658080000000 1.0
C      1  0.5850290000000  0.5133530000000  0.5810090000000 1.0
C      1  0.5517250000000  0.4274620000000  0.5335040000000 1.0
C      1  0.5519540000000  0.4871370000000  0.5556200000000 1.0
C      1  0.5358540000000  0.4893170000000  0.3883670000000 1.0
C      1  0.4136090000000  0.5269660000000  0.4281240000000 1.0
C      1  0.4140140000000  0.5747690000000  0.5373630000000 1.0
C      1  0.3645760000000  0.4965310000000  0.4569120000000 1.0
C      1  0.5478800000000  0.5380420000000  0.5477300000000 1.0
C      1  0.5641570000000  0.4925950000000  0.5814290000000 1.0
C      1  0.3884620000000  0.5114000000000  0.4998810000000 1.0
C      1  0.4502050000000  0.4518520000000  0.4854020000000 1.0
C      1  0.4345200000000  0.4968180000000  0.5799590000000 1.0
C      1  0.5768010000000  0.5751400000000  0.5452160000000 1.0
C      1  0.3954160000000  0.5118300000000  0.5706140000000 1.0
C      1  0.4187620000000  0.5003910000000  0.4234670000000 1.0
C      1  0.4543380000000  0.6004900000000  0.5505710000000 1.0
C      1  0.4991400000000  0.3838080000000  0.5204890000000 1.0
C      1  0.4744680000000  0.5340130000000  0.5223820000000 1.0
C      1  0.5634260000000  0.4772890000000  0.4966030000000 1.0
C      1  0.4819390000000  0.4831750000000  0.5078030000000 1.0
C      1  0.5352670000000  0.4680720000000  0.4986450000000 1.0
C      1  0.6087740000000  0.5432080000000  0.5158000000000 1.0
C      1  0.4772410000000  0.5699840000000  0.4112620000000 1.0
C      1  0.5468370000000  0.5170940000000  0.5277520000000 1.0
C      1  0.5968750000000  0.5173670000000  0.5265110000000 1.0
C      1  0.5430450000000  0.3921770000000  0.4940930000000 1.0
C      1  0.3994970000000  0.5318350000000  0.4530230000000 1.0
C      1  0.5409520000000  0.4860550000000  0.5974000000000 1.0
C      1  0.5719290000000  0.4289390000000  0.5084730000000 1.0
C      1  0.4962220000000  0.5377620000000  0.5630200000000 1.0
C      1  0.5785170000000  0.5598870000000  0.5683560000000 1.0
C      1  0.5271250000000  0.4193440000000  0.4257910000000 1.0
C      1  0.4046100000000  0.4636220000000  0.5572700000000 1.0
C      1  0.4433290000000  0.4286590000000  0.5532300000000 1.0
C      1  0.4739260000000  0.5818180000000  0.5035200000000 1.0
C      1  0.4884010000000  0.4571670000000  0.5216920000000 1.0
C      1  0.4797100000000  0.5847960000000  0.5480900000000 1.0
C      1  0.4306770000000  0.4525370000000  0.5083380000000 1.0
C      1  0.4259260000000  0.4723930000000  0.4187170000000 1.0
C      1  0.4868710000000  0.4367390000000  0.4784490000000 1.0
C      1  0.4885230000000  0.4909050000000  0.6156580000000 1.0
C      1  0.6136790000000  0.4875570000000  0.4909050000000 1.0
C      1  0.4304230000000  0.5854360000000  0.4666190000000 1.0
C      1  0.5581440000000  0.5252600000000  0.4864720000000 1.0
C      1  0.6106390000000  0.5400900000000  0.4869200000000 1.0
C      1  0.5074740000000  0.6044660000000  0.4654930000000 1.0
C      1  0.5173610000000  0.4460000000000  0.3785130000000 1.0
C      1  0.5665320000000  0.4424300000000  0.4410070000000 1.0
C      1  0.4372900000000  0.5492640000000  0.4266140000000 1.0
C      1  0.4853020000000  0.4759420000000  0.4585080000000 1.0
C      1  0.4855520000000  0.3975570000000  0.4467300000000 1.0
C      1  0.5357850000000  0.3973410000000  0.5669620000000 1.0
C      1  0.4782490000000  0.6011610000000  0.4547630000000 1.0
C      1  0.4848320000000  0.5433570000000  0.6061950000000 1.0
C      1  0.4476210000000  0.5398940000000  0.4578520000000 1.0
C      1  0.5229060000000  0.4814220000000  0.5482660000000 1.0
C      1  0.4734050000000  0.4941450000000  0.4132870000000 1.0
C      1  0.4567460000000  0.4353040000000  0.4305700000000 1.0
C      1  0.5269260000000  0.5124700000000  0.5972980000000 1.0
C      1  0.4049910000000  0.5598520000000  0.5138380000000 1.0
C      1  0.4986700000000  0.5236530000000  0.3832710000000 1.0
C      1  0.4938370000000  0.5793670000000  0.5233920000000 1.0
C      1  0.4343250000000  0.5940140000000  0.5290470000000 1.0
C      1  0.4581620000000  0.5109880000000  0.5826710000000 1.0
C      1  0.4102420000000  0.4841330000000  0.5776460000000 1.0
C      1  0.4739260000000  0.5232550000000  0.3985140000000 1.0
C      1  0.4083610000000  0.4832530000000  0.5350790000000 1.0
C      1  0.4839490000000  0.5107530000000  0.5661260000000 1.0
C      1  0.5267610000000  0.5804600000000  0.5210490000000 1.0
C      1  0.6129410000000  0.5134600000000  0.4751910000000 1.0
C      1  0.4106990000000  0.4660640000000  0.4903760000000 1.0
C      1  0.4898750000000  0.4642540000000  0.6001510000000 1.0
C      1  0.5045300000000  0.5021910000000  0.5060550000000 1.0
C      1  0.5170360000000  0.4512600000000  0.6009760000000 1.0
C      1  0.5710310000000  0.5252540000000  0.4164250000000 1.0
C      1  0.4717320000000  0.4820840000000  0.6324290000000 1.0
C      1  0.5255780000000  0.5546350000000  0.4072130000000 1.0
C      1  0.4339390000000  0.4077260000000  0.4876230000000 1.0
C      1  0.5982620000000  0.5699210000000  0.5234340000000 1.0
C      1  0.4763290000000  0.4620290000000  0.4822700000000 1.0
C      1  0.4375530000000  0.5534210000000  0.5842860000000 1.0
C      1  0.5763320000000  0.5616090000000  0.4507530000000 1.0
C      1  0.4943720000000  0.5469380000000  0.4441370000000 1.0
C      1  0.4886910000000  0.4282780000000  0.5779730000000 1.0
C      1  0.4397060000000  0.4944100000000  0.4816630000000 1.0
C      1  0.4391440000000  0.4192580000000  0.4631730000000 1.0
C      1  0.4349340000000  0.4514410000000  0.4388490000000 1.0
C      1  0.5251370000000  0.4531200000000  0.4766960000000 1.0
C      1  0.3966670000000  0.4847990000000  0.5068040000000 1.0
C      1  0.5634570000000  0.4191110000000  0.4572970000000 1.0
C      1  0.4479670000000  0.5730970000000  0.5132300000000 1.0
C      1  0.5359090000000  0.5722500000000  0.4927850000000 1.0
C      1  0.5133140000000  0.4285820000000  0.4886700000000 1.0
C      1  0.5517300000000  0.5771120000000  0.4473290000000 1.0
C      1  0.4402120000000  0.4725330000000  0.5315470000000 1.0
C      1  0.5274130000000  0.6066540000000  0.5363880000000 1.0
C      1  0.4728780000000  0.5551470000000  0.4620820000000 1.0
C      1  0.6034490000000  0.4622110000000  0.4812080000000 1.0
C      1  0.4803330000000  0.3907210000000  0.5439830000000 1.0
C      1  0.5232400000000  0.3991490000000  0.4727560000000 1.0
C      1  0.5308800000000  0.5223950000000  0.4424160000000 1.0
C      1  0.4100010000000  0.4310160000000  0.5220820000000 1.0
C      1  0.3799310000000  0.5141240000000  0.4688400000000 1.0
C      1  0.4948720000000  0.4853740000000  0.5607910000000 1.0
C      1  0.4520710000000  0.5093870000000  0.4606010000000 1.0
C      1  0.4608790000000  0.4075970000000  0.5088880000000 1.0
C      1  0.5749240000000  0.4968510000000  0.4215030000000 1.0
C      1  0.5370620000000  0.5434740000000  0.4930050000000 1.0
C      1  0.4190500000000  0.5441230000000  0.4706340000000 1.0
C      1  0.5723930000000  0.4676130000000  0.5485400000000 1.0
C      1  0.4544540000000  0.6002690000000  0.4690020000000 1.0
C      1  0.5959470000000  0.5635090000000  0.4734140000000 1.0
C      1  0.5492970000000  0.5655760000000  0.5390190000000 1.0
C      1  0.6035990000000  0.5140870000000  0.4478460000000 1.0
C      1  0.5254460000000  0.4289690000000  0.5201020000000 1.0
C      1  0.5076220000000  0.4223830000000  0.5996430000000 1.0
C      1  0.4905650000000  0.5699040000000  0.5948740000000 1.0
C      1  0.4791320000000  0.4302450000000  0.4118500000000 1.0
C      1  0.4546530000000  0.4041890000000  0.5387240000000 1.0
C      1  0.5395660000000  0.4058670000000  0.4473100000000 1.0
C      1  0.4791300000000  0.4619300000000  0.5709350000000 1.0
C      1  0.4685510000000  0.4205310000000  0.4581640000000 1.0
C      1  0.4146750000000  0.4366990000000  0.5507490000000 1.0
C      1  0.5374960000000  0.6032350000000  0.4069010000000 1.0
C      1  0.5912990000000  0.4630440000000  0.4525930000000 1.0
C      1  0.5220420000000  0.5020160000000  0.5273530000000 1.0
C      1  0.5157280000000  0.6269460000000  0.5152980000000 1.0
C      1  0.5108200000000  0.6161670000000  0.4893210000000 1.0
C      1  0.5391080000000  0.4590870000000  0.5830630000000 1.0
C      1  0.4911880000000  0.4502260000000  0.3937080000000 1.0
C      1  0.5425510000000  0.4458510000000  0.4218320000000 1.0
C      1  0.5468930000000  0.5112230000000  0.4622930000000 1.0
C      1  0.4598100000000  0.5472310000000  0.4069160000000 1.0
C      1  0.5234590000000  0.4018690000000  0.5879350000000 1.0
C      1  0.5983060000000  0.4882210000000  0.4361990000000 1.0
C      1  0.5116930000000  0.4676470000000  0.4541540000000 1.0
C      1  0.5560180000000  0.4472160000000  0.5612720000000 1.0
C      1  0.4745340000000  0.4332370000000  0.5178330000000 1.0
C      1  0.5685160000000  0.5089500000000  0.5089910000000 1.0
C      1  0.4525360000000  0.4938460000000  0.5107650000000 1.0
C      1  0.5937260000000  0.5768360000000  0.4972680000000 1.0
C      1  0.3997190000000  0.5136900000000  0.5420500000000 1.0
C      1  0.5289550000000  0.3861660000000  0.5188770000000 1.0
END
