TITL C-4164233-775-533 10.070750055909 125000 -22618.3201648137 0 0 153 (C1) n - 1
REM
REM in /home/nfs/bkarasulu/CARBON/AIRSS/Generating-Clusters/ReaxFF-fromJPCA2015/Units_Real/with-SteepDescent/Only-C1/SD-CG/Try1-3A/FIRE-CG
REM
REM
REM
REM
REM
REM ./C.cell (11c1c37f851c82e70ff6c80c92926a4b)
REM
REM compiler GCC version 9.2.1 20190827 (Red Hat 9.2.1-1)
REM options -cpp -mtune=generic -march=x86-64 -g -O0 -fpre-include=/usr/include/finclude/math-vector-fortran.h
REM seed 1830729552 -316107790 1518342279 -2041631175 -1537880687 -630071368 -736529748 -167547968 430163507 -1513725973 42128107 925992426 950387316 -561032157 -317709662 -1503789112 -1380817757 1835790935 547015680 1197538367 -1975209802 -291515050 -748333670 962621050 700668752 1020082457 1742949027 1757105170 -438142011 4563857 680942812 -820993581 883363214
REM
CELL 1.54180   50.00000   50.00000   50.00000   90.00000   90.00000   90.00000
LATT -1
SFAC C  
C      1  0.5325340000000  0.4669470000000  0.4719350000000 1.0
C      1  0.4596710000000  0.4468320000000  0.5186240000000 1.0
C      1  0.4881450000000  0.4828120000000  0.6018460000000 1.0
C      1  0.4680760000000  0.5175010000000  0.5590570000000 1.0
C      1  0.4719790000000  0.5066710000000  0.6032950000000 1.0
C      1  0.5651040000000  0.4525290000000  0.4418570000000 1.0
C      1  0.5321960000000  0.4453510000000  0.4914330000000 1.0
C      1  0.5031490000000  0.5908190000000  0.5199210000000 1.0
C      1  0.4447560000000  0.4650200000000  0.4850530000000 1.0
C      1  0.4748730000000  0.5960890000000  0.5129760000000 1.0
C      1  0.5529320000000  0.5849510000000  0.5077100000000 1.0
C      1  0.4532190000000  0.4061290000000  0.4735970000000 1.0
C      1  0.5999670000000  0.4926560000000  0.5243420000000 1.0
C      1  0.4976200000000  0.5907160000000  0.5496890000000 1.0
C      1  0.4089380000000  0.4654530000000  0.4625500000000 1.0
C      1  0.5652260000000  0.5729970000000  0.4853180000000 1.0
C      1  0.4682960000000  0.4994270000000  0.4666340000000 1.0
C      1  0.5817920000000  0.5374450000000  0.5181510000000 1.0
C      1  0.6046570000000  0.5216880000000  0.5311620000000 1.0
C      1  0.5388410000000  0.5314470000000  0.4882970000000 1.0
C      1  0.4335800000000  0.4832610000000  0.5782400000000 1.0
C      1  0.5357640000000  0.5789400000000  0.5587420000000 1.0
C      1  0.5853130000000  0.4862230000000  0.5481480000000 1.0
C      1  0.4920200000000  0.4727970000000  0.5458860000000 1.0
C      1  0.4729760000000  0.4495920000000  0.4918460000000 1.0
C      1  0.4940130000000  0.4228240000000  0.4456680000000 1.0
C      1  0.5610630000000  0.4392320000000  0.5521480000000 1.0
C      1  0.5032090000000  0.5721310000000  0.4311090000000 1.0
C      1  0.5722790000000  0.5597730000000  0.4615690000000 1.0
C      1  0.5384010000000  0.5371130000000  0.4384040000000 1.0
C      1  0.4371200000000  0.5717290000000  0.5386560000000 1.0
C      1  0.4688770000000  0.5966500000000  0.5433580000000 1.0
C      1  0.4718760000000  0.4333690000000  0.4276230000000 1.0
C      1  0.5242270000000  0.5837690000000  0.5008690000000 1.0
C      1  0.5200020000000  0.5789450000000  0.4722240000000 1.0
C      1  0.5547310000000  0.5783250000000  0.5373670000000 1.0
C      1  0.4118270000000  0.5272720000000  0.4608110000000 1.0
C      1  0.5400980000000  0.5584060000000  0.5766460000000 1.0
C      1  0.4170390000000  0.4525250000000  0.5376990000000 1.0
C      1  0.4798860000000  0.3994790000000  0.5154150000000 1.0
C      1  0.4593200000000  0.5082060000000  0.4920930000000 1.0
C      1  0.5635520000000  0.4170970000000  0.4786230000000 1.0
C      1  0.5340060000000  0.4031720000000  0.5175670000000 1.0
C      1  0.4504000000000  0.5587650000000  0.4470720000000 1.0
C      1  0.5478350000000  0.4895690000000  0.4755970000000 1.0
C      1  0.4346040000000  0.5313800000000  0.5801050000000 1.0
C      1  0.4344210000000  0.4244460000000  0.4589160000000 1.0
C      1  0.5563070000000  0.5287630000000  0.5508810000000 1.0
C      1  0.4606580000000  0.5903430000000  0.4885180000000 1.0
C      1  0.5497440000000  0.4781990000000  0.5249700000000 1.0
C      1  0.5108760000000  0.5400830000000  0.5341220000000 1.0
C      1  0.5886520000000  0.4418770000000  0.5085060000000 1.0
C      1  0.5786950000000  0.5302290000000  0.4644830000000 1.0
C      1  0.4056690000000  0.4705240000000  0.5179240000000 1.0
C      1  0.4933070000000  0.4883130000000  0.4548160000000 1.0
C      1  0.5116280000000  0.4659770000000  0.4512860000000 1.0
C      1  0.4577500000000  0.4432400000000  0.5758770000000 1.0
C      1  0.5220390000000  0.4180630000000  0.4951850000000 1.0
C      1  0.4692880000000  0.5320280000000  0.4134510000000 1.0
C      1  0.4304730000000  0.5428400000000  0.5045800000000 1.0
C      1  0.4338070000000  0.4326650000000  0.5241670000000 1.0
C      1  0.5312730000000  0.4796740000000  0.4012190000000 1.0
C      1  0.4652110000000  0.4173960000000  0.5600040000000 1.0
C      1  0.5611830000000  0.5229240000000  0.5043300000000 1.0
C      1  0.5778930000000  0.5122880000000  0.5644630000000 1.0
C      1  0.4183360000000  0.5327240000000  0.5554310000000 1.0
C      1  0.5760570000000  0.4266050000000  0.5283680000000 1.0
C      1  0.4953530000000  0.5421840000000  0.5101320000000 1.0
C      1  0.5039790000000  0.4955330000000  0.5060260000000 1.0
C      1  0.5373920000000  0.4252120000000  0.5522550000000 1.0
C      1  0.4002270000000  0.5077380000000  0.4785510000000 1.0
C      1  0.4629530000000  0.4713930000000  0.5336100000000 1.0
C      1  0.4462060000000  0.4866360000000  0.5073620000000 1.0
C      1  0.5447790000000  0.4841800000000  0.5802230000000 1.0
C      1  0.5408210000000  0.5340880000000  0.5917100000000 1.0
C      1  0.4984360000000  0.6107280000000  0.4571620000000 1.0
C      1  0.4806530000000  0.5572790000000  0.5914970000000 1.0
C      1  0.4684680000000  0.5294740000000  0.5108670000000 1.0
C      1  0.4391840000000  0.4192990000000  0.5488080000000 1.0
C      1  0.5253120000000  0.6020580000000  0.4543310000000 1.0
C      1  0.5123050000000  0.5288960000000  0.5859330000000 1.0
C      1  0.4535770000000  0.5749290000000  0.5561990000000 1.0
C      1  0.4337730000000  0.4567360000000  0.5665660000000 1.0
C      1  0.4478570000000  0.4954450000000  0.5534380000000 1.0
C      1  0.5718240000000  0.4794540000000  0.4305030000000 1.0
C      1  0.4724410000000  0.5996230000000  0.4615980000000 1.0
C      1  0.4830600000000  0.5068940000000  0.5236760000000 1.0
C      1  0.5330900000000  0.4554430000000  0.5182120000000 1.0
C      1  0.5123010000000  0.5544770000000  0.4535500000000 1.0
C      1  0.5390620000000  0.5211290000000  0.4126340000000 1.0
C      1  0.5570410000000  0.5092830000000  0.5873740000000 1.0
C      1  0.5688850000000  0.5527440000000  0.5396550000000 1.0
C      1  0.4213390000000  0.5066190000000  0.5454320000000 1.0
C      1  0.4422080000000  0.5192270000000  0.4207970000000 1.0
C      1  0.5302050000000  0.5188740000000  0.5407170000000 1.0
C      1  0.4961060000000  0.4667890000000  0.4980090000000 1.0
C      1  0.4100150000000  0.5322340000000  0.4882360000000 1.0
C      1  0.5943740000000  0.4871440000000  0.4948330000000 1.0
C      1  0.4587960000000  0.4773610000000  0.3976850000000 1.0
C      1  0.4395870000000  0.4909920000000  0.4176410000000 1.0
C      1  0.4663320000000  0.5455260000000  0.4674220000000 1.0
C      1  0.4885790000000  0.5318190000000  0.6029770000000 1.0
C      1  0.5054340000000  0.4583410000000  0.5238240000000 1.0
C      1  0.4218500000000  0.4444460000000  0.4765430000000 1.0
C      1  0.5173510000000  0.5227110000000  0.3926310000000 1.0
C      1  0.4959920000000  0.4077080000000  0.4929360000000 1.0
C      1  0.5969340000000  0.5080550000000  0.4700750000000 1.0
C      1  0.5879320000000  0.4938390000000  0.4482160000000 1.0
C      1  0.4923580000000  0.5056500000000  0.5504380000000 1.0
C      1  0.4476490000000  0.4811820000000  0.4614610000000 1.0
C      1  0.5429100000000  0.4066960000000  0.4608680000000 1.0
C      1  0.4599040000000  0.5464420000000  0.5728340000000 1.0
C      1  0.4843140000000  0.4861530000000  0.3876980000000 1.0
C      1  0.5503070000000  0.5176330000000  0.4638620000000 1.0
C      1  0.5399490000000  0.4420860000000  0.4312030000000 1.0
C      1  0.5096890000000  0.5265460000000  0.4896060000000 1.0
C      1  0.4204680000000  0.5512830000000  0.5310200000000 1.0
C      1  0.5608310000000  0.4106100000000  0.5086800000000 1.0
C      1  0.5025670000000  0.4584120000000  0.5717360000000 1.0
C      1  0.5313590000000  0.5832640000000  0.4319290000000 1.0
C      1  0.5176530000000  0.4084920000000  0.5430950000000 1.0
C      1  0.5109190000000  0.4944970000000  0.3844100000000 1.0
C      1  0.4311200000000  0.5364310000000  0.4414100000000 1.0
C      1  0.4711230000000  0.4538550000000  0.4084000000000 1.0
C      1  0.4481250000000  0.5607320000000  0.4868260000000 1.0
C      1  0.5935310000000  0.4567230000000  0.4861590000000 1.0
C      1  0.4530410000000  0.3955190000000  0.5006700000000 1.0
C      1  0.5619750000000  0.4697730000000  0.5558750000000 1.0
C      1  0.5759640000000  0.4421050000000  0.4671470000000 1.0
C      1  0.5204300000000  0.4624190000000  0.4230850000000 1.0
C      1  0.4996720000000  0.5713720000000  0.5724980000000 1.0
C      1  0.5517240000000  0.5632380000000  0.4389260000000 1.0
C      1  0.5635190000000  0.4923970000000  0.4994980000000 1.0
C      1  0.5186500000000  0.4761040000000  0.5875630000000 1.0
C      1  0.4199460000000  0.4951180000000  0.5195070000000 1.0
C      1  0.4346510000000  0.5698830000000  0.4651420000000 1.0
C      1  0.5230100000000  0.4203080000000  0.4426360000000 1.0
C      1  0.5264970000000  0.4949810000000  0.5255720000000 1.0
C      1  0.4874410000000  0.4078620000000  0.5423070000000 1.0
C      1  0.4323410000000  0.4701200000000  0.4384750000000 1.0
C      1  0.4901620000000  0.5362390000000  0.3926000000000 1.0
C      1  0.5527280000000  0.4951310000000  0.4124820000000 1.0
C      1  0.5013790000000  0.4983950000000  0.4312440000000 1.0
C      1  0.4436840000000  0.5062740000000  0.5931630000000 1.0
C      1  0.4009740000000  0.4794570000000  0.4858890000000 1.0
C      1  0.4803370000000  0.4570630000000  0.5909410000000 1.0
C      1  0.4904110000000  0.5238110000000  0.4328740000000 1.0
C      1  0.4443440000000  0.4397220000000  0.4369060000000 1.0
C      1  0.4769140000000  0.5811320000000  0.4391120000000 1.0
C      1  0.4923190000000  0.5360740000000  0.4628340000000 1.0
C      1  0.4806400000000  0.4205510000000  0.4722660000000 1.0
C      1  0.5046760000000  0.5449560000000  0.5614260000000 1.0
C      1  0.6065250000000  0.5275440000000  0.5594520000000 1.0
END
