TITL C-4164246-3563-185 -6.61750906787153 125000 -7003.87004545396 0 0 48 (C1) n - 1
REM
REM in /home/nfs/bkarasulu/CARBON/AIRSS/Generating-Clusters/ReaxFF-fromJPCA2015/Units_Real/with-SteepDescent/Only-C1/SD-CG/Try1-3A/FIRE-CG
REM
REM
REM
REM
REM
REM ./C.cell (11c1c37f851c82e70ff6c80c92926a4b)
REM
REM compiler GCC version 9.2.1 20190827 (Red Hat 9.2.1-1)
REM options -cpp -mtune=generic -march=x86-64 -g -O0 -fpre-include=/usr/include/finclude/math-vector-fortran.h
REM seed 1204425810 -1018974781 -275398275 1238547985 -1320953548 1123606020 920381404 18915539 -463746395 -1297926583 -1315174532 -341823997 808313748 -1815630957 1229730506 1870312533 -476362454 -1373718181 -2133024672 -898912991 1473985349 -1647044585 -72694900 29223717 -1317511828 -1418525203 727113275 814550219 275037675 -753004075 -1080230020 -1937580019 1129924560
REM
CELL 1.54180   50.00000   50.00000   50.00000   90.00000   90.00000   90.00000
LATT -1
SFAC C  
C      1  0.4810360000000  0.5518520000000  0.5374910000000 1.0
C      1  0.5063640000000  0.5570310000000  0.5233660000000 1.0
C      1  0.5352070000000  0.4520220000000  0.5577220000000 1.0
C      1  0.4782140000000  0.5370440000000  0.5627460000000 1.0
C      1  0.4912590000000  0.5174260000000  0.4356140000000 1.0
C      1  0.5610980000000  0.5303180000000  0.4959790000000 1.0
C      1  0.5439000000000  0.4827540000000  0.4500330000000 1.0
C      1  0.5049080000000  0.4921670000000  0.5694260000000 1.0
C      1  0.5040110000000  0.5095140000000  0.5242340000000 1.0
C      1  0.4703110000000  0.4400630000000  0.4813280000000 1.0
C      1  0.4897160000000  0.4951630000000  0.4828280000000 1.0
C      1  0.5331450000000  0.4625380000000  0.4957030000000 1.0
C      1  0.5550840000000  0.5495790000000  0.5151760000000 1.0
C      1  0.5152350000000  0.5131880000000  0.5514530000000 1.0
C      1  0.5167260000000  0.5424040000000  0.4743410000000 1.0
C      1  0.5255970000000  0.5029590000000  0.5088750000000 1.0
C      1  0.4828910000000  0.4901720000000  0.4286200000000 1.0
C      1  0.5248400000000  0.4613000000000  0.4419110000000 1.0
C      1  0.4801460000000  0.5037970000000  0.5097210000000 1.0
C      1  0.5409270000000  0.5244280000000  0.5435140000000 1.0
C      1  0.5010960000000  0.5555880000000  0.4951290000000 1.0
C      1  0.4643790000000  0.4794490000000  0.4672340000000 1.0
C      1  0.5435640000000  0.5315550000000  0.4725720000000 1.0
C      1  0.4634550000000  0.5250000000000  0.4429130000000 1.0
C      1  0.4605570000000  0.5454620000000  0.5174000000000 1.0
C      1  0.4609180000000  0.5432320000000  0.4660890000000 1.0
C      1  0.4459460000000  0.4591600000000  0.4854870000000 1.0
C      1  0.4711000000000  0.5542990000000  0.4910380000000 1.0
C      1  0.5070970000000  0.5172990000000  0.4606010000000 1.0
C      1  0.5160630000000  0.4857120000000  0.4905760000000 1.0
C      1  0.5349490000000  0.5099200000000  0.4555780000000 1.0
C      1  0.5548990000000  0.4767680000000  0.5148620000000 1.0
C      1  0.4810320000000  0.5105650000000  0.5757270000000 1.0
C      1  0.4132440000000  0.5153030000000  0.5237750000000 1.0
C      1  0.5341030000000  0.5515040000000  0.5342840000000 1.0
C      1  0.5405800000000  0.4589490000000  0.4662190000000 1.0
C      1  0.4295070000000  0.4995500000000  0.5133070000000 1.0
C      1  0.5103640000000  0.4446700000000  0.5434900000000 1.0
C      1  0.4905800000000  0.4412110000000  0.4991770000000 1.0
C      1  0.4575200000000  0.4953950000000  0.4424980000000 1.0
C      1  0.5524520000000  0.5087550000000  0.5182680000000 1.0
C      1  0.4295460000000  0.4673880000000  0.5059130000000 1.0
C      1  0.5117370000000  0.4443150000000  0.5141490000000 1.0
C      1  0.4958070000000  0.4647290000000  0.4376310000000 1.0
C      1  0.5083140000000  0.4637160000000  0.5654030000000 1.0
C      1  0.5500010000000  0.4642060000000  0.5380080000000 1.0
C      1  0.4549090000000  0.5166920000000  0.5169910000000 1.0
C      1  0.4756660000000  0.4538870000000  0.4556010000000 1.0
END
