TITL C-4164240-4114-391 8.0056418170352 125000 -4507.29628214547 0 0 32 (C1) n - 1
REM
REM in /home/nfs/bkarasulu/CARBON/AIRSS/Generating-Clusters/ReaxFF-fromJPCA2015/Units_Real/with-SteepDescent/Only-C1/SD-CG/Try1-3A/FIRE-CG
REM
REM
REM
REM
REM
REM ./C.cell (11c1c37f851c82e70ff6c80c92926a4b)
REM
REM compiler GCC version 9.2.1 20190827 (Red Hat 9.2.1-1)
REM options -cpp -mtune=generic -march=x86-64 -g -O0 -fpre-include=/usr/include/finclude/math-vector-fortran.h
REM seed 1310428051 -1788872223 1399580185 -1064313948 172297197 119059574 -2123581157 -560584075 -1999862736 1679210168 -1451955707 -1524546457 1068543998 208314476 712410766 -704312443 -1136210320 1300504954 -666746816 1219319862 -282485189 -309844897 1099991106 262860003 -911309917 982823970 659020182 530868922 -257112040 1487135962 907158501 -670232795 -1745272322
REM
CELL 1.54180   50.00000   50.00000   50.00000   90.00000   90.00000   90.00000
LATT -1
SFAC C  
C      1  0.5379140000000  0.5017500000000  0.4862220000000 1.0
C      1  0.5323430000000  0.4872010000000  0.4582920000000 1.0
C      1  0.4461570000000  0.5107600000000  0.5343560000000 1.0
C      1  0.4609500000000  0.4642560000000  0.4568900000000 1.0
C      1  0.4824970000000  0.5426830000000  0.4721960000000 1.0
C      1  0.5036470000000  0.4548090000000  0.5109670000000 1.0
C      1  0.5333530000000  0.4578470000000  0.4550450000000 1.0
C      1  0.5166790000000  0.5224480000000  0.5471090000000 1.0
C      1  0.5340960000000  0.5426370000000  0.5340350000000 1.0
C      1  0.4476450000000  0.4797740000000  0.5310750000000 1.0
C      1  0.4684590000000  0.5282490000000  0.4367170000000 1.0
C      1  0.5303780000000  0.5844760000000  0.5073820000000 1.0
C      1  0.5563090000000  0.5247850000000  0.5258250000000 1.0
C      1  0.5067600000000  0.5442940000000  0.4891270000000 1.0
C      1  0.5227300000000  0.5224850000000  0.4876380000000 1.0
C      1  0.5208970000000  0.5617690000000  0.5130150000000 1.0
C      1  0.4902510000000  0.5280470000000  0.5594790000000 1.0
C      1  0.4677390000000  0.5086490000000  0.5555920000000 1.0
C      1  0.4499850000000  0.4671660000000  0.5071190000000 1.0
C      1  0.5213120000000  0.4957890000000  0.5340020000000 1.0
C      1  0.5102130000000  0.4424670000000  0.4641610000000 1.0
C      1  0.5132560000000  0.5016540000000  0.4437440000000 1.0
C      1  0.4659400000000  0.5337190000000  0.4921510000000 1.0
C      1  0.4907260000000  0.5229040000000  0.4475380000000 1.0
C      1  0.4592600000000  0.4539850000000  0.4821330000000 1.0
C      1  0.4747890000000  0.4819610000000  0.5453000000000 1.0
C      1  0.4911770000000  0.4526350000000  0.4838420000000 1.0
C      1  0.5003740000000  0.4764980000000  0.5325400000000 1.0
C      1  0.5443580000000  0.4986400000000  0.5154610000000 1.0
C      1  0.5378150000000  0.4384280000000  0.4769980000000 1.0
C      1  0.5273030000000  0.4437560000000  0.5019850000000 1.0
C      1  0.4546880000000  0.5234800000000  0.5120650000000 1.0
END
