TITL C-4164245-3996-436 14.7849939315821 125000 -22336.3806087445 0 0 149 (C1) n - 1
REM
REM in /home/nfs/bkarasulu/CARBON/AIRSS/Generating-Clusters/ReaxFF-fromJPCA2015/Units_Real/with-SteepDescent/Only-C1/SD-CG/Try1-3A/FIRE-CG
REM
REM
REM
REM
REM
REM ./C.cell (11c1c37f851c82e70ff6c80c92926a4b)
REM
REM compiler GCC version 9.2.1 20190827 (Red Hat 9.2.1-1)
REM options -cpp -mtune=generic -march=x86-64 -g -O0 -fpre-include=/usr/include/finclude/math-vector-fortran.h
REM seed 1694842832 708760180 607349480 -873807870 1274994370 1265311657 -2133279818 1970642948 -246836870 -1615618143 804512182 -84870705 -1017888350 50741159 960446645 -353225856 1844204089 1461544837 -1895640779 1524429874 -1632200685 -959723058 626196944 -532859019 1108538315 -1970205856 1270715525 751307815 -644817794 -2036399351 -582716553 1463937456 1813750773
REM
CELL 1.54180   50.00000   50.00000   50.00000   90.00000   90.00000   90.00000
LATT -1
SFAC C  
C      1  0.4496240000000  0.5907200000000  0.5243530000000 1.0
C      1  0.4556550000000  0.5000190000000  0.5998990000000 1.0
C      1  0.5482820000000  0.5727960000000  0.5385680000000 1.0
C      1  0.5073130000000  0.4986260000000  0.6107860000000 1.0
C      1  0.5789130000000  0.4659220000000  0.5517840000000 1.0
C      1  0.4509080000000  0.5964840000000  0.4807100000000 1.0
C      1  0.4729330000000  0.4479800000000  0.5767660000000 1.0
C      1  0.5556040000000  0.5431190000000  0.5756710000000 1.0
C      1  0.4476180000000  0.5258910000000  0.5294320000000 1.0
C      1  0.5480360000000  0.4184440000000  0.4520850000000 1.0
C      1  0.5144880000000  0.4648740000000  0.5481630000000 1.0
C      1  0.4701300000000  0.5510340000000  0.4679770000000 1.0
C      1  0.4580580000000  0.5702480000000  0.5836390000000 1.0
C      1  0.5968560000000  0.5170650000000  0.4691940000000 1.0
C      1  0.5307480000000  0.3996340000000  0.5146550000000 1.0
C      1  0.5028850000000  0.5008150000000  0.4723890000000 1.0
C      1  0.4145510000000  0.5500920000000  0.5195180000000 1.0
C      1  0.4787100000000  0.4125340000000  0.4497910000000 1.0
C      1  0.5436140000000  0.5114180000000  0.4881580000000 1.0
C      1  0.5602830000000  0.5102950000000  0.4074070000000 1.0
C      1  0.5060350000000  0.4936030000000  0.5514800000000 1.0
C      1  0.4288850000000  0.5497100000000  0.4929600000000 1.0
C      1  0.5549780000000  0.5043890000000  0.5566870000000 1.0
C      1  0.4531280000000  0.4005570000000  0.4931920000000 1.0
C      1  0.4388380000000  0.5068250000000  0.5859870000000 1.0
C      1  0.4517640000000  0.5654410000000  0.4849660000000 1.0
C      1  0.4670010000000  0.6059210000000  0.5066920000000 1.0
C      1  0.5655810000000  0.5533160000000  0.4715210000000 1.0
C      1  0.4966620000000  0.5612450000000  0.4734670000000 1.0
C      1  0.5811370000000  0.5717860000000  0.5116930000000 1.0
C      1  0.4139040000000  0.5445240000000  0.4687950000000 1.0
C      1  0.4692250000000  0.4709610000000  0.4141780000000 1.0
C      1  0.5689750000000  0.5012490000000  0.4945460000000 1.0
C      1  0.3940300000000  0.4727400000000  0.5153830000000 1.0
C      1  0.5487420000000  0.4878260000000  0.5846730000000 1.0
C      1  0.5364960000000  0.4683480000000  0.4084500000000 1.0
C      1  0.4886230000000  0.5204760000000  0.4048080000000 1.0
C      1  0.5070390000000  0.5880480000000  0.4391840000000 1.0
C      1  0.4790660000000  0.4754860000000  0.5049420000000 1.0
C      1  0.4562950000000  0.4986870000000  0.5338020000000 1.0
C      1  0.5360540000000  0.5403420000000  0.4228400000000 1.0
C      1  0.3970010000000  0.5234500000000  0.4788980000000 1.0
C      1  0.5306320000000  0.4530040000000  0.5044060000000 1.0
C      1  0.4175540000000  0.5147870000000  0.4349580000000 1.0
C      1  0.3979170000000  0.5271740000000  0.5088530000000 1.0
C      1  0.5986220000000  0.4852920000000  0.5408990000000 1.0
C      1  0.4324470000000  0.4505850000000  0.5474090000000 1.0
C      1  0.5343740000000  0.5047850000000  0.6057280000000 1.0
C      1  0.5454700000000  0.5281240000000  0.5933540000000 1.0
C      1  0.5807300000000  0.5110760000000  0.4442910000000 1.0
C      1  0.5587770000000  0.4194670000000  0.4792030000000 1.0
C      1  0.5938850000000  0.4477370000000  0.5089520000000 1.0
C      1  0.5058730000000  0.4062520000000  0.4954330000000 1.0
C      1  0.5907190000000  0.4531470000000  0.4798900000000 1.0
C      1  0.5574050000000  0.5866390000000  0.5146210000000 1.0
C      1  0.5282730000000  0.5666240000000  0.4416240000000 1.0
C      1  0.5349820000000  0.4676520000000  0.5283000000000 1.0
C      1  0.4516130000000  0.4841970000000  0.5083850000000 1.0
C      1  0.5865100000000  0.5379630000000  0.5372940000000 1.0
C      1  0.5678510000000  0.4356360000000  0.4381350000000 1.0
C      1  0.4096190000000  0.4673350000000  0.5417710000000 1.0
C      1  0.4293960000000  0.5383550000000  0.5495580000000 1.0
C      1  0.5273680000000  0.5125620000000  0.5455540000000 1.0
C      1  0.5609860000000  0.4631280000000  0.4272450000000 1.0
C      1  0.4813910000000  0.4903040000000  0.6146050000000 1.0
C      1  0.5318960000000  0.4457780000000  0.3842600000000 1.0
C      1  0.4781090000000  0.5907550000000  0.4319530000000 1.0
C      1  0.4923620000000  0.5017460000000  0.4980070000000 1.0
C      1  0.5052250000000  0.5903880000000  0.5969030000000 1.0
C      1  0.5005400000000  0.5901950000000  0.4672820000000 1.0
C      1  0.5633090000000  0.5310500000000  0.4260230000000 1.0
C      1  0.4432800000000  0.4838450000000  0.4814330000000 1.0
C      1  0.4664470000000  0.5648660000000  0.4200220000000 1.0
C      1  0.4490740000000  0.4530560000000  0.4278490000000 1.0
C      1  0.4960260000000  0.6046260000000  0.5104930000000 1.0
C      1  0.5969420000000  0.5489290000000  0.5109040000000 1.0
C      1  0.5154630000000  0.4196320000000  0.5602280000000 1.0
C      1  0.4682310000000  0.4108920000000  0.5495410000000 1.0
C      1  0.5017960000000  0.4043330000000  0.4630840000000 1.0
C      1  0.4807430000000  0.5330720000000  0.5628870000000 1.0
C      1  0.5414790000000  0.5387470000000  0.4775300000000 1.0
C      1  0.5917830000000  0.5429140000000  0.4815900000000 1.0
C      1  0.5667480000000  0.5555400000000  0.5528680000000 1.0
C      1  0.4211800000000  0.5821420000000  0.5181380000000 1.0
C      1  0.5284640000000  0.4925470000000  0.4735660000000 1.0
C      1  0.4533790000000  0.4254440000000  0.4461430000000 1.0
C      1  0.4808750000000  0.3938420000000  0.5052590000000 1.0
C      1  0.5579350000000  0.4813120000000  0.5383090000000 1.0
C      1  0.4916670000000  0.4765690000000  0.4282300000000 1.0
C      1  0.5090230000000  0.4355020000000  0.5077030000000 1.0
C      1  0.5190500000000  0.4241860000000  0.4506720000000 1.0
C      1  0.4407310000000  0.4169520000000  0.5115890000000 1.0
C      1  0.4846300000000  0.4554090000000  0.4786620000000 1.0
C      1  0.5560000000000  0.4114600000000  0.5078680000000 1.0
C      1  0.5669720000000  0.4392570000000  0.5495290000000 1.0
C      1  0.5200530000000  0.5500550000000  0.4634460000000 1.0
C      1  0.5174310000000  0.5339340000000  0.5289140000000 1.0
C      1  0.5847470000000  0.5109940000000  0.5467340000000 1.0
C      1  0.4272600000000  0.5417540000000  0.4429280000000 1.0
C      1  0.4445830000000  0.4182050000000  0.4719660000000 1.0
C      1  0.5397560000000  0.4373240000000  0.5648940000000 1.0
C      1  0.5739540000000  0.4301400000000  0.5230830000000 1.0
C      1  0.4702790000000  0.5698090000000  0.5294350000000 1.0
C      1  0.5501430000000  0.5769430000000  0.4644210000000 1.0
C      1  0.5432120000000  0.4617820000000  0.5783710000000 1.0
C      1  0.5154410000000  0.3998480000000  0.5391290000000 1.0
C      1  0.4658220000000  0.4735750000000  0.4660230000000 1.0
C      1  0.5730200000000  0.4854350000000  0.4374270000000 1.0
C      1  0.4587180000000  0.4625430000000  0.5535510000000 1.0
C      1  0.5092750000000  0.4477580000000  0.4664260000000 1.0
C      1  0.4963010000000  0.5822170000000  0.5285610000000 1.0
C      1  0.4414870000000  0.5076390000000  0.4219340000000 1.0
C      1  0.6029280000000  0.4748700000000  0.5137730000000 1.0
C      1  0.4044940000000  0.5036580000000  0.4593090000000 1.0
C      1  0.4048170000000  0.4954150000000  0.5499920000000 1.0
C      1  0.5935700000000  0.4973200000000  0.4933400000000 1.0
C      1  0.4196600000000  0.5982860000000  0.4952180000000 1.0
C      1  0.4422050000000  0.4232330000000  0.5382240000000 1.0
C      1  0.4199730000000  0.5150340000000  0.5659020000000 1.0
C      1  0.5027790000000  0.5516550000000  0.5651580000000 1.0
C      1  0.5041070000000  0.4410600000000  0.3908380000000 1.0
C      1  0.3974460000000  0.4622300000000  0.4896350000000 1.0
C      1  0.4797650000000  0.5061450000000  0.5507110000000 1.0
C      1  0.4646290000000  0.5001740000000  0.4095000000000 1.0
C      1  0.5161000000000  0.6040070000000  0.4882840000000 1.0
C      1  0.5186280000000  0.5203100000000  0.4105550000000 1.0
C      1  0.4545420000000  0.5484320000000  0.5671210000000 1.0
C      1  0.5346050000000  0.4642580000000  0.4760790000000 1.0
C      1  0.4992600000000  0.4452150000000  0.5328360000000 1.0
C      1  0.4694850000000  0.5416280000000  0.5200020000000 1.0
C      1  0.4863850000000  0.4904490000000  0.4526470000000 1.0
C      1  0.4783620000000  0.4638500000000  0.6001600000000 1.0
C      1  0.4559430000000  0.5488920000000  0.4417910000000 1.0
C      1  0.4939510000000  0.5265760000000  0.5129210000000 1.0
C      1  0.3935810000000  0.5029600000000  0.5241240000000 1.0
C      1  0.5089890000000  0.4599830000000  0.4157740000000 1.0
C      1  0.4764140000000  0.4608590000000  0.5306550000000 1.0
C      1  0.4858450000000  0.3946270000000  0.5331810000000 1.0
C      1  0.5183860000000  0.5631980000000  0.5404450000000 1.0
C      1  0.4609110000000  0.6014790000000  0.4527300000000 1.0
C      1  0.4796610000000  0.5479360000000  0.3989330000000 1.0
C      1  0.4269800000000  0.4589270000000  0.4427710000000 1.0
C      1  0.5617370000000  0.4488790000000  0.4778330000000 1.0
C      1  0.5423010000000  0.5922310000000  0.4881170000000 1.0
C      1  0.5356580000000  0.4982020000000  0.4007890000000 1.0
C      1  0.4160250000000  0.4768750000000  0.4678650000000 1.0
C      1  0.4870890000000  0.4229930000000  0.5677260000000 1.0
C      1  0.5932790000000  0.4369890000000  0.4538410000000 1.0
C      1  0.4916100000000  0.5714570000000  0.5848930000000 1.0
END
