TITL C-4164235-1454-406 52.357385607787 125000 -24476.0735597599 0 0 165 (C1) n - 1
REM
REM in /home/nfs/bkarasulu/CARBON/AIRSS/Generating-Clusters/ReaxFF-fromJPCA2015/Units_Real/with-SteepDescent/Only-C1/SD-CG/Try1-3A/FIRE-CG
REM
REM
REM
REM
REM
REM ./C.cell (11c1c37f851c82e70ff6c80c92926a4b)
REM
REM compiler GCC version 9.2.1 20190827 (Red Hat 9.2.1-1)
REM options -cpp -mtune=generic -march=x86-64 -g -O0 -fpre-include=/usr/include/finclude/math-vector-fortran.h
REM seed 1335555533 -1636782134 1232975469 -1367998724 -192897801 518145342 2132701372 2034286353 370204418 683139300 -1192210428 1260279249 -761493090 1995471772 1223735002 -1010675850 -227497271 56801093 1077519815 1697982252 2124795442 -424165043 -1301290683 -444822945 295093727 309433485 -1782376533 -743041150 304082332 -2079948699 153092495 1578866145 1311699753
REM
CELL 1.54180   50.00000   50.00000   50.00000   90.00000   90.00000   90.00000
LATT -1
SFAC C  
C      1  0.4177950000000  0.4414770000000  0.5449450000000 1.0
C      1  0.4494540000000  0.5509560000000  0.4768870000000 1.0
C      1  0.4958310000000  0.5376340000000  0.5639930000000 1.0
C      1  0.5136310000000  0.5872810000000  0.4304750000000 1.0
C      1  0.5186930000000  0.5350920000000  0.5090580000000 1.0
C      1  0.5732350000000  0.5561050000000  0.5597460000000 1.0
C      1  0.4856140000000  0.4678860000000  0.5619330000000 1.0
C      1  0.4614240000000  0.4840500000000  0.5617830000000 1.0
C      1  0.5391090000000  0.5555980000000  0.5029770000000 1.0
C      1  0.4369250000000  0.4853340000000  0.4937150000000 1.0
C      1  0.5151570000000  0.6221920000000  0.5279840000000 1.0
C      1  0.5654620000000  0.4179070000000  0.4919510000000 1.0
C      1  0.4308640000000  0.4617500000000  0.5791510000000 1.0
C      1  0.5960670000000  0.5508490000000  0.4695660000000 1.0
C      1  0.5894270000000  0.5362300000000  0.4944570000000 1.0
C      1  0.5135970000000  0.5479380000000  0.6000560000000 1.0
C      1  0.4887420000000  0.5417070000000  0.5063660000000 1.0
C      1  0.5101900000000  0.4147120000000  0.4245970000000 1.0
C      1  0.5256720000000  0.5815970000000  0.5061590000000 1.0
C      1  0.5447480000000  0.5570260000000  0.5678140000000 1.0
C      1  0.4244450000000  0.5855810000000  0.5007360000000 1.0
C      1  0.4503110000000  0.4169750000000  0.4677890000000 1.0
C      1  0.4377590000000  0.5109040000000  0.4251310000000 1.0
C      1  0.4584210000000  0.5719600000000  0.4740050000000 1.0
C      1  0.4544750000000  0.5049240000000  0.4547020000000 1.0
C      1  0.5203300000000  0.4756420000000  0.3984260000000 1.0
C      1  0.5680540000000  0.4844080000000  0.4111900000000 1.0
C      1  0.5167660000000  0.5138230000000  0.4883460000000 1.0
C      1  0.4679690000000  0.5221840000000  0.4162190000000 1.0
C      1  0.5054460000000  0.5045290000000  0.5349600000000 1.0
C      1  0.5286190000000  0.5243710000000  0.6029380000000 1.0
C      1  0.3966520000000  0.4675000000000  0.4783910000000 1.0
C      1  0.5675110000000  0.5299370000000  0.4223490000000 1.0
C      1  0.4980260000000  0.4288260000000  0.4646260000000 1.0
C      1  0.5534810000000  0.4161720000000  0.4656820000000 1.0
C      1  0.4862850000000  0.4756150000000  0.4608090000000 1.0
C      1  0.5282460000000  0.5025960000000  0.3936080000000 1.0
C      1  0.4837400000000  0.5232940000000  0.5422770000000 1.0
C      1  0.5652330000000  0.5591240000000  0.4272820000000 1.0
C      1  0.4287090000000  0.4344510000000  0.4579800000000 1.0
C      1  0.4950930000000  0.4947510000000  0.6047390000000 1.0
C      1  0.5062830000000  0.4571690000000  0.4640470000000 1.0
C      1  0.5662750000000  0.5112220000000  0.5574860000000 1.0
C      1  0.4011650000000  0.5123790000000  0.4566660000000 1.0
C      1  0.4270460000000  0.5539200000000  0.4375210000000 1.0
C      1  0.4906330000000  0.5599810000000  0.4833220000000 1.0
C      1  0.4407770000000  0.4866670000000  0.5843350000000 1.0
C      1  0.4718930000000  0.4263240000000  0.4505940000000 1.0
C      1  0.5603950000000  0.4839840000000  0.5601740000000 1.0
C      1  0.5141500000000  0.4905660000000  0.5858190000000 1.0
C      1  0.5245180000000  0.5716770000000  0.5843860000000 1.0
C      1  0.4371910000000  0.5151850000000  0.5942520000000 1.0
C      1  0.5860520000000  0.5062130000000  0.4947460000000 1.0
C      1  0.5667340000000  0.5883800000000  0.4969710000000 1.0
C      1  0.5770940000000  0.5115500000000  0.4441370000000 1.0
C      1  0.4600790000000  0.5762760000000  0.4257590000000 1.0
C      1  0.5520310000000  0.4703960000000  0.5971480000000 1.0
C      1  0.4870780000000  0.5733560000000  0.4195550000000 1.0
C      1  0.5985500000000  0.4611650000000  0.4851040000000 1.0
C      1  0.4626470000000  0.4123190000000  0.4930410000000 1.0
C      1  0.4861250000000  0.5445310000000  0.4258990000000 1.0
C      1  0.4870350000000  0.4427030000000  0.5749940000000 1.0
C      1  0.5705330000000  0.4408880000000  0.5536290000000 1.0
C      1  0.4666830000000  0.4527430000000  0.5176700000000 1.0
C      1  0.5836640000000  0.4390730000000  0.5008410000000 1.0
C      1  0.5770320000000  0.5691210000000  0.5338350000000 1.0
C      1  0.4356270000000  0.5708990000000  0.5365210000000 1.0
C      1  0.4142030000000  0.4297000000000  0.5012210000000 1.0
C      1  0.4367510000000  0.4371610000000  0.5671000000000 1.0
C      1  0.4930780000000  0.4676940000000  0.4103650000000 1.0
C      1  0.5698920000000  0.5466700000000  0.5151730000000 1.0
C      1  0.4756500000000  0.4107520000000  0.5427330000000 1.0
C      1  0.5397640000000  0.5737590000000  0.4199160000000 1.0
C      1  0.4015570000000  0.5381670000000  0.5085570000000 1.0
C      1  0.4654450000000  0.4254480000000  0.5649710000000 1.0
C      1  0.5389470000000  0.4750760000000  0.5455720000000 1.0
C      1  0.5044370000000  0.4036820000000  0.5408140000000 1.0
C      1  0.4570350000000  0.4985920000000  0.5107770000000 1.0
C      1  0.5578210000000  0.5195240000000  0.5301290000000 1.0
C      1  0.3900970000000  0.4724420000000  0.5070040000000 1.0
C      1  0.5508810000000  0.4211340000000  0.5460130000000 1.0
C      1  0.5152320000000  0.4324250000000  0.5810480000000 1.0
C      1  0.4938880000000  0.4851840000000  0.4370340000000 1.0
C      1  0.4781000000000  0.5078690000000  0.4391160000000 1.0
C      1  0.5023470000000  0.5126740000000  0.3826840000000 1.0
C      1  0.5792350000000  0.5678270000000  0.4519170000000 1.0
C      1  0.4810320000000  0.5442630000000  0.5893570000000 1.0
C      1  0.4831300000000  0.5905500000000  0.5527810000000 1.0
C      1  0.5034300000000  0.4378470000000  0.5071770000000 1.0
C      1  0.4332370000000  0.5363100000000  0.5746970000000 1.0
C      1  0.4905050000000  0.4630010000000  0.5087460000000 1.0
C      1  0.4907070000000  0.4159240000000  0.4910040000000 1.0
C      1  0.5376330000000  0.4963340000000  0.4775130000000 1.0
C      1  0.4740970000000  0.5026880000000  0.6176520000000 1.0
C      1  0.4007770000000  0.5215980000000  0.4844360000000 1.0
C      1  0.5362000000000  0.4974530000000  0.6009400000000 1.0
C      1  0.5566230000000  0.4324880000000  0.4453520000000 1.0
C      1  0.5223580000000  0.4090610000000  0.4526710000000 1.0
C      1  0.4554220000000  0.5557200000000  0.5778570000000 1.0
C      1  0.4483100000000  0.5970320000000  0.4910930000000 1.0
C      1  0.5347110000000  0.4499610000000  0.5908260000000 1.0
C      1  0.4997200000000  0.4950650000000  0.5057400000000 1.0
C      1  0.5533660000000  0.4475440000000  0.4258880000000 1.0
C      1  0.6076020000000  0.4862940000000  0.4999350000000 1.0
C      1  0.5116410000000  0.5958210000000  0.4580200000000 1.0
C      1  0.5574810000000  0.4995870000000  0.4600530000000 1.0
C      1  0.5166310000000  0.3819870000000  0.4667600000000 1.0
C      1  0.4258040000000  0.4220770000000  0.5239930000000 1.0
C      1  0.4575250000000  0.4205670000000  0.5197890000000 1.0
C      1  0.5472730000000  0.4643010000000  0.4050000000000 1.0
C      1  0.5071470000000  0.3876170000000  0.4936730000000 1.0
C      1  0.5766780000000  0.4496480000000  0.5268490000000 1.0
C      1  0.5251360000000  0.4160590000000  0.5582400000000 1.0
C      1  0.5534980000000  0.4732610000000  0.5195630000000 1.0
C      1  0.5638780000000  0.4992620000000  0.5120570000000 1.0
C      1  0.5588680000000  0.5772810000000  0.4717800000000 1.0
C      1  0.5262870000000  0.5496250000000  0.4185690000000 1.0
C      1  0.5037440000000  0.5821680000000  0.5680940000000 1.0
C      1  0.4325630000000  0.5239940000000  0.5478150000000 1.0
C      1  0.4475130000000  0.4736550000000  0.5190520000000 1.0
C      1  0.5329910000000  0.4679020000000  0.4709870000000 1.0
C      1  0.5703410000000  0.4632250000000  0.5750670000000 1.0
C      1  0.5055060000000  0.5855450000000  0.4856660000000 1.0
C      1  0.4807780000000  0.4169420000000  0.4241200000000 1.0
C      1  0.5148840000000  0.5417550000000  0.4675260000000 1.0
C      1  0.4142360000000  0.5657890000000  0.5174590000000 1.0
C      1  0.5566270000000  0.5099970000000  0.4044130000000 1.0
C      1  0.5275680000000  0.5236730000000  0.5344480000000 1.0
C      1  0.4047280000000  0.4835170000000  0.4552960000000 1.0
C      1  0.4000460000000  0.4631760000000  0.5338520000000 1.0
C      1  0.5116340000000  0.5355620000000  0.4383770000000 1.0
C      1  0.5123820000000  0.4826400000000  0.5560460000000 1.0
C      1  0.4559800000000  0.5743840000000  0.5553860000000 1.0
C      1  0.4872760000000  0.6112280000000  0.5304580000000 1.0
C      1  0.4053950000000  0.4390050000000  0.4769170000000 1.0
C      1  0.4388400000000  0.4831670000000  0.4149740000000 1.0
C      1  0.5931300000000  0.4697270000000  0.4591960000000 1.0
C      1  0.4646080000000  0.4797090000000  0.4009630000000 1.0
C      1  0.4233880000000  0.4690150000000  0.4360010000000 1.0
C      1  0.4747770000000  0.5049560000000  0.3911880000000 1.0
C      1  0.4108490000000  0.5182480000000  0.5278510000000 1.0
C      1  0.5881510000000  0.5299460000000  0.5626430000000 1.0
C      1  0.4617630000000  0.5251220000000  0.6065540000000 1.0
C      1  0.4403980000000  0.5769690000000  0.4458780000000 1.0
C      1  0.4971440000000  0.4363760000000  0.4105070000000 1.0
C      1  0.5204370000000  0.3940770000000  0.5184540000000 1.0
C      1  0.4250000000000  0.5116080000000  0.4919370000000 1.0
C      1  0.5460040000000  0.4116180000000  0.5161450000000 1.0
C      1  0.4777170000000  0.5145920000000  0.5005700000000 1.0
C      1  0.4438580000000  0.4551280000000  0.4482000000000 1.0
C      1  0.5309850000000  0.4353050000000  0.5056440000000 1.0
C      1  0.6117440000000  0.4977490000000  0.5254120000000 1.0
C      1  0.5875460000000  0.4843130000000  0.4353270000000 1.0
C      1  0.4459960000000  0.5234700000000  0.4772030000000 1.0
C      1  0.4150630000000  0.5285790000000  0.4352500000000 1.0
C      1  0.5364010000000  0.6015990000000  0.5235880000000 1.0
C      1  0.5671690000000  0.5954780000000  0.5236460000000 1.0
C      1  0.5235840000000  0.5407590000000  0.5573670000000 1.0
C      1  0.6052360000000  0.5139360000000  0.5461440000000 1.0
C      1  0.3964250000000  0.4914200000000  0.5283750000000 1.0
C      1  0.4676570000000  0.6102120000000  0.5085270000000 1.0
C      1  0.4567960000000  0.4757580000000  0.4661600000000 1.0
C      1  0.5398020000000  0.5551970000000  0.4752050000000 1.0
C      1  0.4586720000000  0.5103780000000  0.5492380000000 1.0
C      1  0.5411020000000  0.4598520000000  0.4964720000000 1.0
END
