TITL C-4164235-1454-129 4.98269016787774 125000 -8725.04353308351 0 0 61 (C1) n - 1
REM
REM in /home/nfs/bkarasulu/CARBON/AIRSS/Generating-Clusters/ReaxFF-fromJPCA2015/Units_Real/with-SteepDescent/Only-C1/SD-CG/Try1-3A/FIRE-CG
REM
REM
REM
REM
REM
REM ./C.cell (11c1c37f851c82e70ff6c80c92926a4b)
REM
REM compiler GCC version 9.2.1 20190827 (Red Hat 9.2.1-1)
REM options -cpp -mtune=generic -march=x86-64 -g -O0 -fpre-include=/usr/include/finclude/math-vector-fortran.h
REM seed -412723278 778357290 1358799748 910092612 1391440078 1978290386 -2094448666 -1005152992 -179124970 -323013435 -1670479144 841319318 224360946 -1071129829 -846317326 -2133902590 1551879083 1325509695 1568905807 -2058266935 1731845930 -1576953246 -1090072524 -456900041 -1987573430 10901375 -1184265913 118478813 2077268959 -307440754 1173540881 -923655101 -212380621
REM
CELL 1.54180   50.00000   50.00000   50.00000   90.00000   90.00000   90.00000
LATT -1
SFAC C  
C      1  0.5321060000000  0.4595540000000  0.5476280000000 1.0
C      1  0.5508750000000  0.4989530000000  0.4668650000000 1.0
C      1  0.5312570000000  0.4505770000000  0.4581360000000 1.0
C      1  0.4535710000000  0.4409380000000  0.4919420000000 1.0
C      1  0.4579820000000  0.4566270000000  0.4260470000000 1.0
C      1  0.5036930000000  0.4329170000000  0.5086330000000 1.0
C      1  0.5209290000000  0.4792560000000  0.5675380000000 1.0
C      1  0.4747380000000  0.4246130000000  0.5044570000000 1.0
C      1  0.5441030000000  0.4803630000000  0.5283170000000 1.0
C      1  0.5567560000000  0.5340950000000  0.5576190000000 1.0
C      1  0.4869760000000  0.5156440000000  0.5658140000000 1.0
C      1  0.4759990000000  0.5328060000000  0.5015820000000 1.0
C      1  0.4470780000000  0.5247630000000  0.5331770000000 1.0
C      1  0.5460530000000  0.5655540000000  0.4864970000000 1.0
C      1  0.4343120000000  0.5233620000000  0.4571100000000 1.0
C      1  0.4563630000000  0.5423730000000  0.4583080000000 1.0
C      1  0.5072940000000  0.5568700000000  0.4713500000000 1.0
C      1  0.4631950000000  0.5589690000000  0.4955370000000 1.0
C      1  0.4773990000000  0.4955240000000  0.4626920000000 1.0
C      1  0.5020840000000  0.4487690000000  0.4544270000000 1.0
C      1  0.5086720000000  0.5345450000000  0.5622410000000 1.0
C      1  0.4411280000000  0.4762610000000  0.4394260000000 1.0
C      1  0.5265170000000  0.5757420000000  0.4739930000000 1.0
C      1  0.4496770000000  0.5018770000000  0.5158240000000 1.0
C      1  0.5455650000000  0.5239660000000  0.4824270000000 1.0
C      1  0.5337860000000  0.5283540000000  0.5759820000000 1.0
C      1  0.4934470000000  0.4873510000000  0.5609190000000 1.0
C      1  0.4250030000000  0.4889330000000  0.5005910000000 1.0
C      1  0.5015980000000  0.5022430000000  0.4422300000000 1.0
C      1  0.4949300000000  0.4914920000000  0.4151570000000 1.0
C      1  0.4956240000000  0.4825720000000  0.5103000000000 1.0
C      1  0.5477030000000  0.5452370000000  0.5322660000000 1.0
C      1  0.4847540000000  0.4632850000000  0.4137970000000 1.0
C      1  0.5167980000000  0.4416680000000  0.5328390000000 1.0
C      1  0.5404690000000  0.4993280000000  0.5760700000000 1.0
C      1  0.5490280000000  0.4696560000000  0.4721780000000 1.0
C      1  0.5067760000000  0.4451590000000  0.4245250000000 1.0
C      1  0.4532490000000  0.5535350000000  0.5612880000000 1.0
C      1  0.5227160000000  0.4956030000000  0.5171240000000 1.0
C      1  0.4756130000000  0.5597300000000  0.4687950000000 1.0
C      1  0.4783090000000  0.4655460000000  0.4609820000000 1.0
C      1  0.5652290000000  0.5056480000000  0.5609290000000 1.0
C      1  0.4532660000000  0.4749480000000  0.5307190000000 1.0
C      1  0.4536280000000  0.4546060000000  0.4538830000000 1.0
C      1  0.5051890000000  0.4586290000000  0.4941460000000 1.0
C      1  0.5905830000000  0.5307340000000  0.5021480000000 1.0
C      1  0.4814170000000  0.4751940000000  0.5370020000000 1.0
C      1  0.5174420000000  0.5317730000000  0.4843240000000 1.0
C      1  0.5311670000000  0.4531210000000  0.4867570000000 1.0
C      1  0.4387370000000  0.4634970000000  0.5083120000000 1.0
C      1  0.5193020000000  0.5426650000000  0.5353680000000 1.0
C      1  0.4522580000000  0.5020980000000  0.4461090000000 1.0
C      1  0.5705170000000  0.4917740000000  0.5351560000000 1.0
C      1  0.5151450000000  0.5237150000000  0.5128930000000 1.0
C      1  0.4757070000000  0.5047030000000  0.4947110000000 1.0
C      1  0.5274550000000  0.4995860000000  0.4521180000000 1.0
C      1  0.4258380000000  0.5061970000000  0.4788250000000 1.0
C      1  0.5834680000000  0.5096510000000  0.5177610000000 1.0
C      1  0.4585400000000  0.5258240000000  0.5606900000000 1.0
C      1  0.4618700000000  0.5467360000000  0.5228070000000 1.0
C      1  0.5591140000000  0.5442880000000  0.5027140000000 1.0
END
