TITL C-4164247-2821-312 -3.83825072347902 125000 -9663.03859200275 0 0 64 (C1) n - 1
REM
REM in /home/nfs/bkarasulu/CARBON/AIRSS/Generating-Clusters/ReaxFF-fromJPCA2015/Units_Real/with-SteepDescent/Only-C1/SD-CG/Try1-3A/FIRE-CG
REM
REM
REM
REM
REM
REM ./C.cell (11c1c37f851c82e70ff6c80c92926a4b)
REM
REM compiler GCC version 9.2.1 20190827 (Red Hat 9.2.1-1)
REM options -cpp -mtune=generic -march=x86-64 -g -O0 -fpre-include=/usr/include/finclude/math-vector-fortran.h
REM seed -1545586870 888916850 -1505492018 2038210875 1057689506 589466176 -1707630133 -791718258 -486849227 2137885592 -142178353 1503599277 595343677 2014575278 203510223 -1013119192 964251590 60499496 -1508405658 -104374025 -281940375 531385392 660367264 -1096969113 -776694393 434192033 -1825019829 -1016557952 -1140764887 2130030705 416985793 1029954477 1116268574
REM
CELL 1.54180   50.00000   50.00000   50.00000   90.00000   90.00000   90.00000
LATT -1
SFAC C  
C      1  0.4220990000000  0.4845790000000  0.4687150000000 1.0
C      1  0.5356230000000  0.4300130000000  0.5137130000000 1.0
C      1  0.4293880000000  0.4948080000000  0.5281520000000 1.0
C      1  0.4643340000000  0.4868580000000  0.4439860000000 1.0
C      1  0.4110740000000  0.5135670000000  0.5130300000000 1.0
C      1  0.5622290000000  0.4566410000000  0.5459000000000 1.0
C      1  0.5800320000000  0.5259840000000  0.5045190000000 1.0
C      1  0.4101010000000  0.4976570000000  0.4902830000000 1.0
C      1  0.5743080000000  0.5418390000000  0.4609970000000 1.0
C      1  0.4260200000000  0.5396590000000  0.5121060000000 1.0
C      1  0.5294080000000  0.4826760000000  0.5797750000000 1.0
C      1  0.4649110000000  0.5198210000000  0.5631170000000 1.0
C      1  0.4624300000000  0.5467670000000  0.5522280000000 1.0
C      1  0.5059770000000  0.4298260000000  0.5118160000000 1.0
C      1  0.5476100000000  0.4717950000000  0.4494190000000 1.0
C      1  0.4982580000000  0.5194510000000  0.5126910000000 1.0
C      1  0.4447700000000  0.4747870000000  0.5124040000000 1.0
C      1  0.5079650000000  0.5416460000000  0.5239460000000 1.0
C      1  0.5478160000000  0.4669330000000  0.5666930000000 1.0
C      1  0.5415620000000  0.4448720000000  0.4651900000000 1.0
C      1  0.4741900000000  0.4741330000000  0.5140490000000 1.0
C      1  0.4899500000000  0.5013360000000  0.4464660000000 1.0
C      1  0.4349580000000  0.4644700000000  0.4867130000000 1.0
C      1  0.5000720000000  0.4531710000000  0.4444470000000 1.0
C      1  0.5492510000000  0.4479030000000  0.4927270000000 1.0
C      1  0.4893390000000  0.4512040000000  0.5263500000000 1.0
C      1  0.5559290000000  0.4748820000000  0.4994420000000 1.0
C      1  0.5094090000000  0.5654190000000  0.4769710000000 1.0
C      1  0.4412880000000  0.5470070000000  0.4883790000000 1.0
C      1  0.4687870000000  0.5458690000000  0.4508440000000 1.0
C      1  0.5517430000000  0.5067740000000  0.5397890000000 1.0
C      1  0.4598100000000  0.5696110000000  0.4889680000000 1.0
C      1  0.5344270000000  0.5628480000000  0.4877120000000 1.0
C      1  0.5153550000000  0.4342980000000  0.4603190000000 1.0
C      1  0.5523950000000  0.4286630000000  0.5377580000000 1.0
C      1  0.4891490000000  0.4973420000000  0.5008000000000 1.0
C      1  0.5561290000000  0.5304490000000  0.5227800000000 1.0
C      1  0.4714260000000  0.4589620000000  0.4495300000000 1.0
C      1  0.5000200000000  0.4795750000000  0.5720810000000 1.0
C      1  0.4940550000000  0.5848780000000  0.5474470000000 1.0
C      1  0.5313300000000  0.5313950000000  0.4505310000000 1.0
C      1  0.4828770000000  0.5670890000000  0.4686250000000 1.0
C      1  0.4877220000000  0.5607210000000  0.5410820000000 1.0
C      1  0.4422740000000  0.5020450000000  0.4548420000000 1.0
C      1  0.4392800000000  0.5121740000000  0.5495000000000 1.0
C      1  0.5099570000000  0.4984470000000  0.4244390000000 1.0
C      1  0.5147250000000  0.5254010000000  0.5730150000000 1.0
C      1  0.5469980000000  0.5545770000000  0.4616800000000 1.0
C      1  0.5586370000000  0.4809970000000  0.5276830000000 1.0
C      1  0.5195290000000  0.4725680000000  0.4341040000000 1.0
C      1  0.4472970000000  0.5301510000000  0.4621890000000 1.0
C      1  0.4949540000000  0.4649190000000  0.5493840000000 1.0
C      1  0.5542610000000  0.4934870000000  0.4751310000000 1.0
C      1  0.5022770000000  0.5003570000000  0.4732970000000 1.0
C      1  0.5387700000000  0.5081160000000  0.5667130000000 1.0
C      1  0.5763910000000  0.5165800000000  0.4769470000000 1.0
C      1  0.5278170000000  0.5225910000000  0.4219840000000 1.0
C      1  0.4903540000000  0.5082770000000  0.5730060000000 1.0
C      1  0.4366790000000  0.5403170000000  0.5393350000000 1.0
C      1  0.5348900000000  0.5482990000000  0.5141060000000 1.0
C      1  0.4752480000000  0.4332200000000  0.4831790000000 1.0
C      1  0.5002580000000  0.4219000000000  0.4841120000000 1.0
C      1  0.4545030000000  0.4470340000000  0.4713870000000 1.0
C      1  0.5293740000000  0.5103700000000  0.4714780000000 1.0
END
