TITL C-4164234-2335-704 23.9120709313993 125000 -18891.5018616848 0 0 127 (C1) n - 1
REM
REM in /home/nfs/bkarasulu/CARBON/AIRSS/Generating-Clusters/ReaxFF-fromJPCA2015/Units_Real/with-SteepDescent/Only-C1/SD-CG/Try1-3A/FIRE-CG
REM
REM
REM
REM
REM
REM ./C.cell (11c1c37f851c82e70ff6c80c92926a4b)
REM
REM compiler GCC version 9.2.1 20190827 (Red Hat 9.2.1-1)
REM options -cpp -mtune=generic -march=x86-64 -g -O0 -fpre-include=/usr/include/finclude/math-vector-fortran.h
REM seed 1772838961 -979341986 654327177 -389149818 -1338656993 -1691916672 -1804017699 -638565594 1919539089 1579306452 -1160259067 -1325815443 1826550597 201127806 309057005 1418537137 -1057457566 -1278168820 1952265726 -156853031 -920155873 326965524 -1213071464 804767856 -1626424115 32202490 -30855223 -1490740799 865425069 -1613978516 -1548842285 1398999156 -964829409
REM
CELL 1.54180   50.00000   50.00000   50.00000   90.00000   90.00000   90.00000
LATT -1
SFAC C  
C      1  0.5045470000000  0.5653370000000  0.5694690000000 1.0
C      1  0.4497760000000  0.5329150000000  0.5648420000000 1.0
C      1  0.5797670000000  0.4614470000000  0.4544650000000 1.0
C      1  0.4755580000000  0.4100140000000  0.4453710000000 1.0
C      1  0.5466180000000  0.5745660000000  0.5415680000000 1.0
C      1  0.4148140000000  0.5568730000000  0.5021790000000 1.0
C      1  0.4781030000000  0.5914130000000  0.4816550000000 1.0
C      1  0.4498150000000  0.5100040000000  0.4234270000000 1.0
C      1  0.5018720000000  0.5042330000000  0.4645400000000 1.0
C      1  0.4469290000000  0.4818550000000  0.4313280000000 1.0
C      1  0.4945310000000  0.4459160000000  0.5799230000000 1.0
C      1  0.4343120000000  0.5543920000000  0.5519230000000 1.0
C      1  0.4730580000000  0.4683960000000  0.4361320000000 1.0
C      1  0.4851630000000  0.4465060000000  0.5165850000000 1.0
C      1  0.5197630000000  0.5155260000000  0.4837800000000 1.0
C      1  0.4905220000000  0.4774560000000  0.4578150000000 1.0
C      1  0.4830390000000  0.4488470000000  0.4165200000000 1.0
C      1  0.4560660000000  0.5742350000000  0.5554650000000 1.0
C      1  0.4982080000000  0.4637910000000  0.3969470000000 1.0
C      1  0.4658660000000  0.4991070000000  0.5256950000000 1.0
C      1  0.4457480000000  0.4766750000000  0.4868910000000 1.0
C      1  0.4125030000000  0.5174850000000  0.5281360000000 1.0
C      1  0.4126240000000  0.4923520000000  0.4621450000000 1.0
C      1  0.4295980000000  0.4433190000000  0.4603530000000 1.0
C      1  0.4456270000000  0.4814830000000  0.5655040000000 1.0
C      1  0.4048490000000  0.4754330000000  0.5157760000000 1.0
C      1  0.5006530000000  0.5525500000000  0.4276270000000 1.0
C      1  0.5501810000000  0.5398290000000  0.5812900000000 1.0
C      1  0.5265520000000  0.5922610000000  0.5028740000000 1.0
C      1  0.5934870000000  0.5500450000000  0.5183790000000 1.0
C      1  0.5753260000000  0.5142720000000  0.4383160000000 1.0
C      1  0.5662180000000  0.5528250000000  0.5002190000000 1.0
C      1  0.5051470000000  0.5280360000000  0.5064480000000 1.0
C      1  0.4921870000000  0.5249350000000  0.4263430000000 1.0
C      1  0.5176930000000  0.5468290000000  0.5255240000000 1.0
C      1  0.5657830000000  0.4998370000000  0.5559420000000 1.0
C      1  0.4790910000000  0.5410920000000  0.4954950000000 1.0
C      1  0.4153570000000  0.4483020000000  0.5145580000000 1.0
C      1  0.4524940000000  0.5592070000000  0.4452720000000 1.0
C      1  0.5256410000000  0.5794710000000  0.4620940000000 1.0
C      1  0.5082800000000  0.5920170000000  0.4782010000000 1.0
C      1  0.4947990000000  0.4230220000000  0.4265900000000 1.0
C      1  0.5431430000000  0.4761280000000  0.4846930000000 1.0
C      1  0.5517010000000  0.5152900000000  0.5362160000000 1.0
C      1  0.5062550000000  0.4558380000000  0.4687760000000 1.0
C      1  0.5139760000000  0.5721650000000  0.5407150000000 1.0
C      1  0.4765970000000  0.5666420000000  0.5756200000000 1.0
C      1  0.4259930000000  0.4705420000000  0.4481450000000 1.0
C      1  0.4160400000000  0.5467480000000  0.5303860000000 1.0
C      1  0.5293110000000  0.5316420000000  0.5460240000000 1.0
C      1  0.4167040000000  0.4793150000000  0.4883210000000 1.0
C      1  0.4654860000000  0.5422140000000  0.5889370000000 1.0
C      1  0.5439800000000  0.4328940000000  0.4512880000000 1.0
C      1  0.4699110000000  0.5175850000000  0.5501520000000 1.0
C      1  0.5749680000000  0.4440400000000  0.4788250000000 1.0
C      1  0.4517210000000  0.4745830000000  0.5384550000000 1.0
C      1  0.5085270000000  0.4517380000000  0.4980660000000 1.0
C      1  0.4944450000000  0.4928510000000  0.3955890000000 1.0
C      1  0.4819370000000  0.4182170000000  0.5297360000000 1.0
C      1  0.4677180000000  0.5790190000000  0.5289010000000 1.0
C      1  0.4748170000000  0.5113220000000  0.4076070000000 1.0
C      1  0.5622320000000  0.5192950000000  0.5087920000000 1.0
C      1  0.4679970000000  0.5240370000000  0.4754960000000 1.0
C      1  0.5831660000000  0.4503120000000  0.5063560000000 1.0
C      1  0.5472820000000  0.5661880000000  0.4534080000000 1.0
C      1  0.5848940000000  0.4888300000000  0.4455480000000 1.0
C      1  0.5287070000000  0.4689000000000  0.5076670000000 1.0
C      1  0.4757150000000  0.5692170000000  0.4297400000000 1.0
C      1  0.5667920000000  0.5219060000000  0.4634050000000 1.0
C      1  0.5059420000000  0.5966140000000  0.5223450000000 1.0
C      1  0.5721250000000  0.4316600000000  0.5268600000000 1.0
C      1  0.4920150000000  0.4646840000000  0.5387250000000 1.0
C      1  0.4184710000000  0.5214400000000  0.4577270000000 1.0
C      1  0.4258400000000  0.5169950000000  0.5020400000000 1.0
C      1  0.4282410000000  0.4401380000000  0.4893490000000 1.0
C      1  0.4554160000000  0.5766550000000  0.4699280000000 1.0
C      1  0.4839530000000  0.5209890000000  0.5978320000000 1.0
C      1  0.5825150000000  0.5547400000000  0.5433090000000 1.0
C      1  0.4873920000000  0.4085940000000  0.4724120000000 1.0
C      1  0.4528630000000  0.4212270000000  0.5370310000000 1.0
C      1  0.5448130000000  0.4206050000000  0.5269000000000 1.0
C      1  0.5248960000000  0.4735640000000  0.5833630000000 1.0
C      1  0.5126180000000  0.4845100000000  0.5327860000000 1.0
C      1  0.4219920000000  0.4810240000000  0.5639970000000 1.0
C      1  0.5890570000000  0.5039460000000  0.5091500000000 1.0
C      1  0.4978970000000  0.4029480000000  0.5126400000000 1.0
C      1  0.4394480000000  0.5317260000000  0.4405770000000 1.0
C      1  0.4392740000000  0.4471760000000  0.5327030000000 1.0
C      1  0.6057300000000  0.5245650000000  0.5157940000000 1.0
C      1  0.5590340000000  0.5123820000000  0.4139240000000 1.0
C      1  0.5202790000000  0.4270500000000  0.4382280000000 1.0
C      1  0.4076700000000  0.4908080000000  0.5410460000000 1.0
C      1  0.4796970000000  0.5985900000000  0.5101200000000 1.0
C      1  0.4656650000000  0.4259360000000  0.4814210000000 1.0
C      1  0.5225080000000  0.5428200000000  0.5735320000000 1.0
C      1  0.5221610000000  0.4437830000000  0.5758230000000 1.0
C      1  0.4113360000000  0.5338290000000  0.4835940000000 1.0
C      1  0.5629750000000  0.5601290000000  0.5619970000000 1.0
C      1  0.5463730000000  0.4891080000000  0.5981670000000 1.0
C      1  0.5116050000000  0.3999030000000  0.4891430000000 1.0
C      1  0.5321990000000  0.5574510000000  0.4273330000000 1.0
C      1  0.5546650000000  0.4231190000000  0.4776620000000 1.0
C      1  0.5770510000000  0.4742460000000  0.5466180000000 1.0
C      1  0.4571010000000  0.4628150000000  0.5772170000000 1.0
C      1  0.5363910000000  0.4140720000000  0.4989130000000 1.0
C      1  0.4791380000000  0.4550780000000  0.5649230000000 1.0
C      1  0.4397580000000  0.5698060000000  0.4937330000000 1.0
C      1  0.4609260000000  0.5569110000000  0.5103190000000 1.0
C      1  0.5683590000000  0.4695080000000  0.4290660000000 1.0
C      1  0.5452160000000  0.5350860000000  0.4203000000000 1.0
C      1  0.4531170000000  0.5042660000000  0.4945270000000 1.0
C      1  0.4558590000000  0.4500250000000  0.4951750000000 1.0
C      1  0.5649180000000  0.5496170000000  0.4709230000000 1.0
C      1  0.5590880000000  0.5110520000000  0.5829460000000 1.0
C      1  0.4877380000000  0.5249220000000  0.4541470000000 1.0
C      1  0.5484730000000  0.5744220000000  0.5131260000000 1.0
C      1  0.5666670000000  0.4467190000000  0.5516770000000 1.0
C      1  0.5117660000000  0.4909890000000  0.5633200000000 1.0
C      1  0.5471690000000  0.5077430000000  0.4835520000000 1.0
C      1  0.5391230000000  0.4359820000000  0.5527230000000 1.0
C      1  0.4897680000000  0.5085740000000  0.5701260000000 1.0
C      1  0.4519550000000  0.4243350000000  0.4569980000000 1.0
C      1  0.4947440000000  0.5016790000000  0.5208830000000 1.0
C      1  0.5202820000000  0.4815830000000  0.4058920000000 1.0
C      1  0.5342780000000  0.4605390000000  0.4614550000000 1.0
C      1  0.5481860000000  0.4842450000000  0.4135600000000 1.0
C      1  0.5880780000000  0.4755150000000  0.5199510000000 1.0
END
