TITL C-4164246-3563-530 -0.104601485334196 125000 -19816.0600927075 0 0 132 (C1) n - 1
REM
REM in /home/nfs/bkarasulu/CARBON/AIRSS/Generating-Clusters/ReaxFF-fromJPCA2015/Units_Real/with-SteepDescent/Only-C1/SD-CG/Try1-3A/FIRE-CG
REM
REM
REM
REM
REM
REM ./C.cell (11c1c37f851c82e70ff6c80c92926a4b)
REM
REM compiler GCC version 9.2.1 20190827 (Red Hat 9.2.1-1)
REM options -cpp -mtune=generic -march=x86-64 -g -O0 -fpre-include=/usr/include/finclude/math-vector-fortran.h
REM seed 1224711234 1399448008 -1006835487 -2026572449 1203860578 -1257123106 1925871469 -1964762392 -986121518 -1082137502 -1961187967 1610812692 1295390457 -1236705767 1318552755 -867395756 2074250603 -1118947583 1406826561 312053961 1529717040 -1029595706 -1458888790 253019126 330170960 -883975642 1072271613 891333349 1853523649 -1616863895 -1743633611 -731254182 1302069847
REM
CELL 1.54180   50.00000   50.00000   50.00000   90.00000   90.00000   90.00000
LATT -1
SFAC C  
C      1  0.4490770000000  0.4124320000000  0.5081880000000 1.0
C      1  0.5165820000000  0.5661350000000  0.4757740000000 1.0
C      1  0.5070320000000  0.5895980000000  0.5430210000000 1.0
C      1  0.5453170000000  0.4590720000000  0.4213290000000 1.0
C      1  0.4313040000000  0.4587820000000  0.4504890000000 1.0
C      1  0.5431280000000  0.4578060000000  0.5711100000000 1.0
C      1  0.4459190000000  0.4895890000000  0.5680870000000 1.0
C      1  0.4961160000000  0.4328910000000  0.4453850000000 1.0
C      1  0.4567420000000  0.5788690000000  0.5367840000000 1.0
C      1  0.5453080000000  0.4428610000000  0.4663400000000 1.0
C      1  0.4105830000000  0.4806470000000  0.5292700000000 1.0
C      1  0.6020070000000  0.4521530000000  0.5138210000000 1.0
C      1  0.5147260000000  0.4929510000000  0.5472600000000 1.0
C      1  0.4994580000000  0.4329890000000  0.5668380000000 1.0
C      1  0.4534380000000  0.5960870000000  0.4752650000000 1.0
C      1  0.4891800000000  0.4492120000000  0.3942760000000 1.0
C      1  0.4595910000000  0.5725920000000  0.5080140000000 1.0
C      1  0.5922150000000  0.4788540000000  0.4853150000000 1.0
C      1  0.5298480000000  0.5100940000000  0.5983660000000 1.0
C      1  0.4575430000000  0.4344770000000  0.5624600000000 1.0
C      1  0.5816730000000  0.5371510000000  0.4719290000000 1.0
C      1  0.4136590000000  0.5512510000000  0.5353620000000 1.0
C      1  0.5044090000000  0.5415870000000  0.5384260000000 1.0
C      1  0.5031910000000  0.5212670000000  0.5975270000000 1.0
C      1  0.4353200000000  0.5135780000000  0.4964100000000 1.0
C      1  0.5182240000000  0.4443270000000  0.4826610000000 1.0
C      1  0.4139590000000  0.5260250000000  0.5499140000000 1.0
C      1  0.5194510000000  0.4836150000000  0.5958200000000 1.0
C      1  0.4500080000000  0.5440560000000  0.5683590000000 1.0
C      1  0.5887040000000  0.4498140000000  0.4897030000000 1.0
C      1  0.4660430000000  0.4972160000000  0.4656680000000 1.0
C      1  0.5436740000000  0.5848910000000  0.5103450000000 1.0
C      1  0.5447860000000  0.5510300000000  0.4424950000000 1.0
C      1  0.5166260000000  0.5958930000000  0.5143660000000 1.0
C      1  0.5744270000000  0.4367120000000  0.5529750000000 1.0
C      1  0.4170470000000  0.5537120000000  0.4787450000000 1.0
C      1  0.4495070000000  0.4736610000000  0.4699630000000 1.0
C      1  0.5621110000000  0.5587270000000  0.4657120000000 1.0
C      1  0.5223060000000  0.5132550000000  0.4036470000000 1.0
C      1  0.4782750000000  0.5297730000000  0.4225650000000 1.0
C      1  0.4761740000000  0.5562670000000  0.5706900000000 1.0
C      1  0.4072890000000  0.4880850000000  0.4777050000000 1.0
C      1  0.4544720000000  0.5236410000000  0.4752240000000 1.0
C      1  0.4734930000000  0.4035150000000  0.5211850000000 1.0
C      1  0.4359930000000  0.5623520000000  0.5498680000000 1.0
C      1  0.5107210000000  0.5927700000000  0.4652120000000 1.0
C      1  0.5024140000000  0.4292420000000  0.4055940000000 1.0
C      1  0.5466230000000  0.5004820000000  0.4124030000000 1.0
C      1  0.4375940000000  0.5177790000000  0.5663580000000 1.0
C      1  0.4766930000000  0.4669520000000  0.5074570000000 1.0
C      1  0.4762760000000  0.5767630000000  0.4355360000000 1.0
C      1  0.4068560000000  0.5205560000000  0.5034160000000 1.0
C      1  0.5630990000000  0.4344100000000  0.4906140000000 1.0
C      1  0.5175970000000  0.4703300000000  0.4225130000000 1.0
C      1  0.5479160000000  0.5341110000000  0.5614850000000 1.0
C      1  0.4999890000000  0.6018710000000  0.4913030000000 1.0
C      1  0.5184250000000  0.5208340000000  0.4709600000000 1.0
C      1  0.4593400000000  0.5897440000000  0.4536110000000 1.0
C      1  0.4295930000000  0.4719170000000  0.5500090000000 1.0
C      1  0.5932550000000  0.4989930000000  0.5057140000000 1.0
C      1  0.4732150000000  0.3908180000000  0.4517650000000 1.0
C      1  0.5200650000000  0.5417640000000  0.5595410000000 1.0
C      1  0.5952250000000  0.4458870000000  0.5375750000000 1.0
C      1  0.5012680000000  0.5437940000000  0.4652510000000 1.0
C      1  0.5201480000000  0.4198910000000  0.4992080000000 1.0
C      1  0.4697870000000  0.4955250000000  0.5223790000000 1.0
C      1  0.4916590000000  0.4937160000000  0.5953980000000 1.0
C      1  0.4797960000000  0.5483180000000  0.4450970000000 1.0
C      1  0.4060160000000  0.5501560000000  0.5058570000000 1.0
C      1  0.4995090000000  0.5423990000000  0.5786610000000 1.0
C      1  0.4546870000000  0.5121210000000  0.4212410000000 1.0
C      1  0.5178340000000  0.4214060000000  0.4283690000000 1.0
C      1  0.5740580000000  0.4918200000000  0.5591450000000 1.0
C      1  0.4353150000000  0.4438870000000  0.5460270000000 1.0
C      1  0.4805970000000  0.5786540000000  0.5529830000000 1.0
C      1  0.5943800000000  0.5271660000000  0.4965810000000 1.0
C      1  0.5517870000000  0.4738400000000  0.4625190000000 1.0
C      1  0.5418520000000  0.5235270000000  0.4524060000000 1.0
C      1  0.5480850000000  0.4238790000000  0.5125370000000 1.0
C      1  0.5050070000000  0.5824250000000  0.4381840000000 1.0
C      1  0.5774740000000  0.4868350000000  0.4549570000000 1.0
C      1  0.5438860000000  0.5668300000000  0.4873200000000 1.0
C      1  0.5699890000000  0.5154160000000  0.4570580000000 1.0
C      1  0.4971070000000  0.4095000000000  0.5102050000000 1.0
C      1  0.5329270000000  0.5820090000000  0.5506910000000 1.0
C      1  0.5909790000000  0.5013600000000  0.5374340000000 1.0
C      1  0.5906380000000  0.5543590000000  0.5429730000000 1.0
C      1  0.5319230000000  0.4823450000000  0.5702140000000 1.0
C      1  0.5704720000000  0.4631060000000  0.5653380000000 1.0
C      1  0.4918640000000  0.4830440000000  0.4637760000000 1.0
C      1  0.5456360000000  0.4846300000000  0.4885960000000 1.0
C      1  0.4979830000000  0.4621780000000  0.4430020000000 1.0
C      1  0.5079230000000  0.4873130000000  0.4001530000000 1.0
C      1  0.5163780000000  0.5194750000000  0.5000450000000 1.0
C      1  0.4166600000000  0.5025530000000  0.4565230000000 1.0
C      1  0.5010300000000  0.4667070000000  0.4857640000000 1.0
C      1  0.6033050000000  0.5443040000000  0.5183060000000 1.0
C      1  0.4971930000000  0.5391540000000  0.5127350000000 1.0
C      1  0.5573180000000  0.5792250000000  0.5371590000000 1.0
C      1  0.4849750000000  0.4960670000000  0.5455970000000 1.0
C      1  0.4969960000000  0.4704650000000  0.5462590000000 1.0
C      1  0.4022340000000  0.5079600000000  0.5301070000000 1.0
C      1  0.5283440000000  0.4350250000000  0.5612870000000 1.0
C      1  0.5284620000000  0.5037190000000  0.5211330000000 1.0
C      1  0.5203730000000  0.5592100000000  0.4282700000000 1.0
C      1  0.4812900000000  0.4761210000000  0.3932500000000 1.0
C      1  0.4770220000000  0.4499010000000  0.5773010000000 1.0
C      1  0.4745800000000  0.4154600000000  0.4579210000000 1.0
C      1  0.4429640000000  0.4681240000000  0.4267770000000 1.0
C      1  0.4263750000000  0.4367680000000  0.4702630000000 1.0
C      1  0.5535540000000  0.5089230000000  0.5747150000000 1.0
C      1  0.4073560000000  0.4706940000000  0.5012340000000 1.0
C      1  0.5066230000000  0.5358930000000  0.4151710000000 1.0
C      1  0.5424020000000  0.4347610000000  0.4366200000000 1.0
C      1  0.5639530000000  0.5553920000000  0.5531660000000 1.0
C      1  0.4686350000000  0.5436550000000  0.5033710000000 1.0
C      1  0.5507910000000  0.4839540000000  0.5186430000000 1.0
C      1  0.4564510000000  0.4850620000000  0.4091740000000 1.0
C      1  0.4298250000000  0.4302250000000  0.5197750000000 1.0
C      1  0.4162310000000  0.4433950000000  0.4969290000000 1.0
C      1  0.5645010000000  0.4818090000000  0.4243470000000 1.0
C      1  0.4347260000000  0.5401280000000  0.4586970000000 1.0
C      1  0.4527220000000  0.4268030000000  0.4811960000000 1.0
C      1  0.6031720000000  0.5275070000000  0.5420950000000 1.0
C      1  0.4703500000000  0.4789780000000  0.5812580000000 1.0
C      1  0.4309190000000  0.5187700000000  0.4381680000000 1.0
C      1  0.4806620000000  0.4267000000000  0.5433780000000 1.0
C      1  0.4873500000000  0.4517510000000  0.5287720000000 1.0
C      1  0.5490670000000  0.4263110000000  0.5417530000000 1.0
C      1  0.4552610000000  0.5196050000000  0.5170060000000 1.0
C      1  0.4573890000000  0.4556790000000  0.4894620000000 1.0
C      1  0.4711430000000  0.5976040000000  0.4970880000000 1.0
END
