TITL C-4164243-3780-203 -40.9773649313458 125000 -4951.53467647564 0 0 34 (C1) n - 1
REM
REM in /home/nfs/bkarasulu/CARBON/AIRSS/Generating-Clusters/ReaxFF-fromJPCA2015/Units_Real/with-SteepDescent/Only-C1/SD-CG/Try1-3A/FIRE-CG
REM
REM
REM
REM
REM
REM ./C.cell (11c1c37f851c82e70ff6c80c92926a4b)
REM
REM compiler GCC version 9.2.1 20190827 (Red Hat 9.2.1-1)
REM options -cpp -mtune=generic -march=x86-64 -g -O0 -fpre-include=/usr/include/finclude/math-vector-fortran.h
REM seed 170922224 -215471102 1549594856 1356536837 -1839462575 -1930749153 1996654510 -958367439 -1322344500 861219503 -1485948207 1894265848 -1523807130 662920936 -762865704 1718839780 -571873604 -1779877557 1818427404 -1752719767 1938404925 -1335579606 1966656762 97207266 1036437854 -1226994820 695387276 1851390783 1953002961 -1500367088 -734055266 158885077 -1035314226
REM
CELL 1.54180   50.00000   50.00000   50.00000   90.00000   90.00000   90.00000
LATT -1
SFAC C  
C      1  0.4731740000000  0.5059220000000  0.5430270000000 1.0
C      1  0.5427110000000  0.4551540000000  0.4825940000000 1.0
C      1  0.4972510000000  0.4729510000000  0.4671010000000 1.0
C      1  0.4861590000000  0.4611900000000  0.4932320000000 1.0
C      1  0.5447350000000  0.4921430000000  0.5211460000000 1.0
C      1  0.4755680000000  0.4774150000000  0.5472170000000 1.0
C      1  0.4483010000000  0.4851640000000  0.4440920000000 1.0
C      1  0.5197970000000  0.5147480000000  0.4440230000000 1.0
C      1  0.5156250000000  0.5457020000000  0.5524750000000 1.0
C      1  0.5269430000000  0.4697500000000  0.4630120000000 1.0
C      1  0.5003080000000  0.5186320000000  0.5370640000000 1.0
C      1  0.5028930000000  0.4706440000000  0.5382190000000 1.0
C      1  0.4604740000000  0.5386650000000  0.4813230000000 1.0
C      1  0.5552570000000  0.5682510000000  0.5051970000000 1.0
C      1  0.5411830000000  0.4952780000000  0.4568070000000 1.0
C      1  0.5190660000000  0.4941760000000  0.5345300000000 1.0
C      1  0.5037840000000  0.4523370000000  0.5146060000000 1.0
C      1  0.4511970000000  0.5352120000000  0.5087840000000 1.0
C      1  0.5557780000000  0.5152780000000  0.5053490000000 1.0
C      1  0.4520080000000  0.5068720000000  0.4571240000000 1.0
C      1  0.4752090000000  0.5482000000000  0.5039030000000 1.0
C      1  0.5000350000000  0.5049980000000  0.4628340000000 1.0
C      1  0.4420070000000  0.4849210000000  0.5148220000000 1.0
C      1  0.5311750000000  0.4445490000000  0.5075870000000 1.0
C      1  0.4990010000000  0.5389570000000  0.5151380000000 1.0
C      1  0.5496930000000  0.5067700000000  0.4809170000000 1.0
C      1  0.4713490000000  0.4713500000000  0.4449720000000 1.0
C      1  0.5216120000000  0.5551590000000  0.5260130000000 1.0
C      1  0.4733260000000  0.5196900000000  0.4650450000000 1.0
C      1  0.4585950000000  0.4634050000000  0.5022040000000 1.0
C      1  0.5498100000000  0.5453180000000  0.5139440000000 1.0
C      1  0.4508180000000  0.5109870000000  0.5251950000000 1.0
C      1  0.5509710000000  0.4657180000000  0.5091320000000 1.0
C      1  0.4541850000000  0.4644970000000  0.5313750000000 1.0
END
