TITL C-4164239-2837-377 -3.49890984578065 125000 -8350.36466740544 0 0 58 (C1) n - 1
REM
REM in /home/nfs/bkarasulu/CARBON/AIRSS/Generating-Clusters/ReaxFF-fromJPCA2015/Units_Real/with-SteepDescent/Only-C1/SD-CG/Try1-3A/FIRE-CG
REM
REM
REM
REM
REM
REM ./C.cell (11c1c37f851c82e70ff6c80c92926a4b)
REM
REM compiler GCC version 9.2.1 20190827 (Red Hat 9.2.1-1)
REM options -cpp -mtune=generic -march=x86-64 -g -O0 -fpre-include=/usr/include/finclude/math-vector-fortran.h
REM seed 2065300621 1270920647 1165423047 -1360099358 -338989758 1710718315 -1169783127 -1602040090 -1083070794 911737460 -43306010 -1488107750 -291308204 -414201436 -1699897924 1236979075 782534859 2122881039 1722222773 -2098776578 -1330308720 -1866860201 -1105996583 -1909182978 -538479807 -246020335 559931273 -673747982 -2132906519 673120328 1340286853 -1262291492 -1165822221
REM
CELL 1.54180   50.00000   50.00000   50.00000   90.00000   90.00000   90.00000
LATT -1
SFAC C  
C      1  0.4707860000000  0.5318180000000  0.5547630000000 1.0
C      1  0.5632390000000  0.5241730000000  0.4829010000000 1.0
C      1  0.5384980000000  0.4615560000000  0.4574990000000 1.0
C      1  0.4940560000000  0.5703890000000  0.5018570000000 1.0
C      1  0.4869140000000  0.4450070000000  0.4516970000000 1.0
C      1  0.4990980000000  0.5361250000000  0.5514370000000 1.0
C      1  0.4547630000000  0.4709220000000  0.4441090000000 1.0
C      1  0.4595760000000  0.4462750000000  0.4637560000000 1.0
C      1  0.5557070000000  0.5277720000000  0.5122430000000 1.0
C      1  0.5043620000000  0.4758300000000  0.4973590000000 1.0
C      1  0.5173430000000  0.4416480000000  0.4640960000000 1.0
C      1  0.5609480000000  0.4812350000000  0.5002710000000 1.0
C      1  0.5390540000000  0.4515090000000  0.5338250000000 1.0
C      1  0.5292820000000  0.4855070000000  0.4433550000000 1.0
C      1  0.4538350000000  0.5094980000000  0.5436890000000 1.0
C      1  0.5227610000000  0.4329120000000  0.5147040000000 1.0
C      1  0.4891790000000  0.5205970000000  0.4446170000000 1.0
C      1  0.4835680000000  0.4416390000000  0.5349130000000 1.0
C      1  0.5210340000000  0.5205890000000  0.5630130000000 1.0
C      1  0.4500430000000  0.4467250000000  0.4912120000000 1.0
C      1  0.4988390000000  0.4514870000000  0.5112280000000 1.0
C      1  0.5722630000000  0.4963510000000  0.4800610000000 1.0
C      1  0.5163090000000  0.5482820000000  0.4600550000000 1.0
C      1  0.4230410000000  0.4988570000000  0.4728540000000 1.0
C      1  0.4572030000000  0.4813860000000  0.5386430000000 1.0
C      1  0.4276180000000  0.4957940000000  0.5013950000000 1.0
C      1  0.4905560000000  0.4826310000000  0.4751140000000 1.0
C      1  0.4676720000000  0.4902010000000  0.4891380000000 1.0
C      1  0.4986610000000  0.4906740000000  0.4475180000000 1.0
C      1  0.5055230000000  0.5462390000000  0.5227620000000 1.0
C      1  0.5109450000000  0.5676160000000  0.4795010000000 1.0
C      1  0.4496150000000  0.4731910000000  0.5071750000000 1.0
C      1  0.4954130000000  0.4770010000000  0.5700600000000 1.0
C      1  0.5405420000000  0.5089060000000  0.4517740000000 1.0
C      1  0.4550750000000  0.5572680000000  0.5466830000000 1.0
C      1  0.4939330000000  0.5333680000000  0.4684800000000 1.0
C      1  0.4604730000000  0.5223120000000  0.4497500000000 1.0
C      1  0.4658010000000  0.5388520000000  0.4758270000000 1.0
C      1  0.5462500000000  0.5764460000000  0.5212710000000 1.0
C      1  0.5603240000000  0.4700970000000  0.4750200000000 1.0
C      1  0.5238370000000  0.4334880000000  0.4840710000000 1.0
C      1  0.4574080000000  0.5645610000000  0.5188100000000 1.0
C      1  0.5146610000000  0.4989620000000  0.5086460000000 1.0
C      1  0.4427930000000  0.5148480000000  0.5173580000000 1.0
C      1  0.4997500000000  0.4184740000000  0.5365860000000 1.0
C      1  0.4688300000000  0.5178930000000  0.5000210000000 1.0
C      1  0.5391060000000  0.4781050000000  0.5426680000000 1.0
C      1  0.4665240000000  0.5649370000000  0.4926360000000 1.0
C      1  0.5204390000000  0.4909090000000  0.5633570000000 1.0
C      1  0.5663170000000  0.5298760000000  0.5406740000000 1.0
C      1  0.5450290000000  0.5332730000000  0.4615210000000 1.0
C      1  0.5367400000000  0.5531870000000  0.5174550000000 1.0
C      1  0.4816660000000  0.4672430000000  0.4343540000000 1.0
C      1  0.4735950000000  0.4643370000000  0.5542110000000 1.0
C      1  0.4441030000000  0.4979760000000  0.4508260000000 1.0
C      1  0.5428690000000  0.4961690000000  0.5167780000000 1.0
C      1  0.5483060000000  0.5264870000000  0.5540910000000 1.0
C      1  0.4979240000000  0.5205900000000  0.5103140000000 1.0
END
