TITL C-4164242-3624-510 3.35699192562046 125000 -22845.2106759435 0 0 152 (C1) n - 1
REM
REM in /home/nfs/bkarasulu/CARBON/AIRSS/Generating-Clusters/ReaxFF-fromJPCA2015/Units_Real/with-SteepDescent/Only-C1/SD-CG/Try1-3A/FIRE-CG
REM
REM
REM
REM
REM
REM ./C.cell (11c1c37f851c82e70ff6c80c92926a4b)
REM
REM compiler GCC version 9.2.1 20190827 (Red Hat 9.2.1-1)
REM options -cpp -mtune=generic -march=x86-64 -g -O0 -fpre-include=/usr/include/finclude/math-vector-fortran.h
REM seed -673515156 404931928 -198024608 421550771 -1255703725 -34121373 -224542294 580980872 672414007 1445387484 -187701631 2046178895 -865141349 1650083141 -277986144 -1674045914 -191438496 514880302 1193904252 2015153014 123974661 -692521896 -2056352177 1954969201 1225530999 -766530606 -1531748548 2089778499 -2033121269 581300076 635649616 123774108 271460702
REM
CELL 1.54180   50.00000   50.00000   50.00000   90.00000   90.00000   90.00000
LATT -1
SFAC C  
C      1  0.4023430000000  0.4470250000000  0.5114130000000 1.0
C      1  0.4315950000000  0.5188100000000  0.5666230000000 1.0
C      1  0.5269130000000  0.5163040000000  0.5965410000000 1.0
C      1  0.4859180000000  0.4463060000000  0.5192910000000 1.0
C      1  0.5255030000000  0.4132410000000  0.4698850000000 1.0
C      1  0.4822080000000  0.5242790000000  0.4896510000000 1.0
C      1  0.4747890000000  0.5667000000000  0.5135040000000 1.0
C      1  0.5152350000000  0.5433010000000  0.5156420000000 1.0
C      1  0.4263000000000  0.4833180000000  0.4994910000000 1.0
C      1  0.6035140000000  0.4944090000000  0.4669990000000 1.0
C      1  0.5102120000000  0.6058630000000  0.4986890000000 1.0
C      1  0.5311370000000  0.4242500000000  0.4430040000000 1.0
C      1  0.6024050000000  0.5236060000000  0.5062090000000 1.0
C      1  0.5699170000000  0.4327120000000  0.4797790000000 1.0
C      1  0.5217710000000  0.4548880000000  0.5568890000000 1.0
C      1  0.4270840000000  0.3854800000000  0.4919140000000 1.0
C      1  0.5105790000000  0.4854430000000  0.5452800000000 1.0
C      1  0.5769580000000  0.5012400000000  0.4055970000000 1.0
C      1  0.4423420000000  0.5861920000000  0.4579110000000 1.0
C      1  0.4421120000000  0.5467150000000  0.4823430000000 1.0
C      1  0.5555370000000  0.4534650000000  0.5817900000000 1.0
C      1  0.4642870000000  0.5902150000000  0.4766830000000 1.0
C      1  0.5261520000000  0.4455800000000  0.5832560000000 1.0
C      1  0.5309210000000  0.5191140000000  0.4675700000000 1.0
C      1  0.5044110000000  0.5550210000000  0.4548170000000 1.0
C      1  0.4119930000000  0.5372860000000  0.5247610000000 1.0
C      1  0.5775410000000  0.5681990000000  0.5005870000000 1.0
C      1  0.4168640000000  0.5006850000000  0.4582090000000 1.0
C      1  0.4594190000000  0.5239370000000  0.5234260000000 1.0
C      1  0.5672830000000  0.5295350000000  0.5740460000000 1.0
C      1  0.5959870000000  0.5018450000000  0.4269570000000 1.0
C      1  0.4626190000000  0.4435250000000  0.4298200000000 1.0
C      1  0.5258230000000  0.4008760000000  0.5278620000000 1.0
C      1  0.4541650000000  0.5808290000000  0.4314300000000 1.0
C      1  0.4566030000000  0.5007980000000  0.3961730000000 1.0
C      1  0.4717240000000  0.5422890000000  0.5868370000000 1.0
C      1  0.5118180000000  0.4036570000000  0.5520360000000 1.0
C      1  0.5012030000000  0.4006330000000  0.5120730000000 1.0
C      1  0.6081610000000  0.5034510000000  0.5638210000000 1.0
C      1  0.5345660000000  0.4895210000000  0.4316160000000 1.0
C      1  0.5967070000000  0.4561140000000  0.5562680000000 1.0
C      1  0.4139420000000  0.4338420000000  0.4887020000000 1.0
C      1  0.4480730000000  0.4174720000000  0.5258830000000 1.0
C      1  0.5329110000000  0.4593850000000  0.4741020000000 1.0
C      1  0.4363200000000  0.5033750000000  0.4155560000000 1.0
C      1  0.5731550000000  0.4960350000000  0.5249150000000 1.0
C      1  0.5516290000000  0.5393500000000  0.4261670000000 1.0
C      1  0.4792950000000  0.5188540000000  0.4387520000000 1.0
C      1  0.5418330000000  0.4293400000000  0.4893850000000 1.0
C      1  0.4242100000000  0.5696970000000  0.4760070000000 1.0
C      1  0.4877270000000  0.4144360000000  0.5596200000000 1.0
C      1  0.5180260000000  0.5855920000000  0.5463790000000 1.0
C      1  0.5532750000000  0.5732720000000  0.4573000000000 1.0
C      1  0.4717100000000  0.4889290000000  0.5738010000000 1.0
C      1  0.6081650000000  0.4783590000000  0.5622960000000 1.0
C      1  0.4566820000000  0.4376560000000  0.4845100000000 1.0
C      1  0.4206770000000  0.4699970000000  0.5463070000000 1.0
C      1  0.5272530000000  0.5639910000000  0.4683950000000 1.0
C      1  0.4675100000000  0.5758820000000  0.5399650000000 1.0
C      1  0.5143040000000  0.5002050000000  0.4784100000000 1.0
C      1  0.3701680000000  0.5182370000000  0.4807650000000 1.0
C      1  0.4841490000000  0.5398330000000  0.5164190000000 1.0
C      1  0.5318760000000  0.4485180000000  0.5329330000000 1.0
C      1  0.4875690000000  0.4770110000000  0.4104590000000 1.0
C      1  0.4505250000000  0.4432380000000  0.5696580000000 1.0
C      1  0.6061000000000  0.4968050000000  0.4957260000000 1.0
C      1  0.4333500000000  0.4443680000000  0.4689650000000 1.0
C      1  0.5037950000000  0.5184040000000  0.3929780000000 1.0
C      1  0.4773110000000  0.4218240000000  0.4731720000000 1.0
C      1  0.3773930000000  0.4908760000000  0.4888170000000 1.0
C      1  0.4184830000000  0.5647570000000  0.5310640000000 1.0
C      1  0.4360260000000  0.5290850000000  0.5053890000000 1.0
C      1  0.5301980000000  0.5227600000000  0.5255970000000 1.0
C      1  0.4105140000000  0.5168640000000  0.5453270000000 1.0
C      1  0.4657560000000  0.5637910000000  0.4872060000000 1.0
C      1  0.4950480000000  0.6046100000000  0.4463490000000 1.0
C      1  0.5602350000000  0.4312380000000  0.4522620000000 1.0
C      1  0.4836180000000  0.4968840000000  0.3876330000000 1.0
C      1  0.4957160000000  0.5535000000000  0.5753490000000 1.0
C      1  0.4924810000000  0.5759100000000  0.5572880000000 1.0
C      1  0.5475300000000  0.4887610000000  0.4052220000000 1.0
C      1  0.4449240000000  0.4948810000000  0.5769920000000 1.0
C      1  0.4504210000000  0.5276650000000  0.4281670000000 1.0
C      1  0.4979790000000  0.4520480000000  0.5914790000000 1.0
C      1  0.5002620000000  0.4076370000000  0.4836780000000 1.0
C      1  0.4289860000000  0.4836380000000  0.4368410000000 1.0
C      1  0.4666340000000  0.4961660000000  0.5233650000000 1.0
C      1  0.5717830000000  0.5286710000000  0.4104210000000 1.0
C      1  0.4428220000000  0.5648680000000  0.5502750000000 1.0
C      1  0.4841940000000  0.5206420000000  0.6002100000000 1.0
C      1  0.5924710000000  0.5262270000000  0.5589650000000 1.0
C      1  0.4845840000000  0.5373320000000  0.4640570000000 1.0
C      1  0.4117190000000  0.4425210000000  0.5382090000000 1.0
C      1  0.4468930000000  0.5548760000000  0.4306930000000 1.0
C      1  0.5037870000000  0.5018140000000  0.6079820000000 1.0
C      1  0.5563110000000  0.5161160000000  0.4834600000000 1.0
C      1  0.5268310000000  0.5626330000000  0.4980340000000 1.0
C      1  0.4893450000000  0.6050060000000  0.4755760000000 1.0
C      1  0.4315920000000  0.5063110000000  0.4832070000000 1.0
C      1  0.6057650000000  0.5174720000000  0.4487230000000 1.0
C      1  0.5114830000000  0.4348390000000  0.4241010000000 1.0
C      1  0.5931110000000  0.5453650000000  0.4890380000000 1.0
C      1  0.4927030000000  0.4773590000000  0.4832390000000 1.0
C      1  0.5298730000000  0.5197470000000  0.4356250000000 1.0
C      1  0.4020570000000  0.4906260000000  0.5379060000000 1.0
C      1  0.4878820000000  0.4468910000000  0.4118620000000 1.0
C      1  0.4888390000000  0.4791690000000  0.5952800000000 1.0
C      1  0.4777940000000  0.4358370000000  0.5775390000000 1.0
C      1  0.5708940000000  0.5541650000000  0.4437240000000 1.0
C      1  0.5744350000000  0.4421580000000  0.5584560000000 1.0
C      1  0.4809000000000  0.4400740000000  0.4514710000000 1.0
C      1  0.4830800000000  0.4893320000000  0.4354060000000 1.0
C      1  0.5031530000000  0.4573670000000  0.5007000000000 1.0
C      1  0.5515300000000  0.5098630000000  0.5114090000000 1.0
C      1  0.5223680000000  0.4684610000000  0.4484780000000 1.0
C      1  0.4386910000000  0.4564850000000  0.4417490000000 1.0
C      1  0.5557900000000  0.4749520000000  0.4722920000000 1.0
C      1  0.4834390000000  0.4919050000000  0.5486180000000 1.0
C      1  0.4346970000000  0.4285520000000  0.5492280000000 1.0
C      1  0.4847660000000  0.5839880000000  0.4275330000000 1.0
C      1  0.4579990000000  0.4460770000000  0.5119780000000 1.0
C      1  0.3970270000000  0.4786090000000  0.5108710000000 1.0
C      1  0.5201930000000  0.5335450000000  0.5725710000000 1.0
C      1  0.5814270000000  0.4485010000000  0.5051970000000 1.0
C      1  0.5191230000000  0.5121780000000  0.5481990000000 1.0
C      1  0.5362320000000  0.5909690000000  0.4995160000000 1.0
C      1  0.5473310000000  0.5484790000000  0.5673930000000 1.0
C      1  0.3879340000000  0.4998150000000  0.4630330000000 1.0
C      1  0.5062970000000  0.5996650000000  0.5257950000000 1.0
C      1  0.4930450000000  0.4686450000000  0.4535720000000 1.0
C      1  0.5886690000000  0.4768050000000  0.5093950000000 1.0
C      1  0.5459640000000  0.5706690000000  0.5486810000000 1.0
C      1  0.5895320000000  0.5183420000000  0.5312150000000 1.0
C      1  0.5543510000000  0.5076150000000  0.5909220000000 1.0
C      1  0.5599270000000  0.5849030000000  0.4827460000000 1.0
C      1  0.4807960000000  0.4165870000000  0.5286300000000 1.0
C      1  0.5919650000000  0.5416550000000  0.4603120000000 1.0
C      1  0.4177040000000  0.5727260000000  0.5035180000000 1.0
C      1  0.4275630000000  0.4089530000000  0.5019980000000 1.0
C      1  0.5255170000000  0.5009100000000  0.3926860000000 1.0
C      1  0.4368130000000  0.4687400000000  0.5707980000000 1.0
C      1  0.4779860000000  0.4974100000000  0.4961420000000 1.0
C      1  0.5730620000000  0.4354840000000  0.5297800000000 1.0
C      1  0.5655770000000  0.5693740000000  0.5273380000000 1.0
C      1  0.5730710000000  0.4960930000000  0.4685440000000 1.0
C      1  0.5189760000000  0.4703630000000  0.5189910000000 1.0
C      1  0.4455540000000  0.5434620000000  0.5696000000000 1.0
C      1  0.5017950000000  0.5604730000000  0.4278330000000 1.0
C      1  0.5447470000000  0.4244250000000  0.5201540000000 1.0
C      1  0.5022610000000  0.5318200000000  0.4203270000000 1.0
C      1  0.5559470000000  0.4798190000000  0.5861650000000 1.0
C      1  0.4436690000000  0.4736300000000  0.5203870000000 1.0
END
