TITL C-4164246-3563-248 17.483523563465 125000 -18427.9553101051 0 0 124 (C1) n - 1
REM
REM in /home/nfs/bkarasulu/CARBON/AIRSS/Generating-Clusters/ReaxFF-fromJPCA2015/Units_Real/with-SteepDescent/Only-C1/SD-CG/Try1-3A/FIRE-CG
REM
REM
REM
REM
REM
REM ./C.cell (11c1c37f851c82e70ff6c80c92926a4b)
REM
REM compiler GCC version 9.2.1 20190827 (Red Hat 9.2.1-1)
REM options -cpp -mtune=generic -march=x86-64 -g -O0 -fpre-include=/usr/include/finclude/math-vector-fortran.h
REM seed 1573175933 -96514169 374356751 -801183091 1144136114 -9194645 -1089246440 -747819682 2012174583 1383496115 -729730524 -1182280835 -43491819 1868598644 857485824 1491956509 -1995252618 -322403884 -295117059 -1165059045 -356622972 1720472473 541373968 -801086537 -777191508 -730746433 -92623314 -395542449 244875147 418000248 -514391061 -1016642166 1840452462
REM
CELL 1.54180   50.00000   50.00000   50.00000   90.00000   90.00000   90.00000
LATT -1
SFAC C  
C      1  0.4980050000000  0.5586990000000  0.4968130000000 1.0
C      1  0.5085040000000  0.4420120000000  0.5001270000000 1.0
C      1  0.4423430000000  0.4992240000000  0.4719940000000 1.0
C      1  0.5252170000000  0.5519820000000  0.4916590000000 1.0
C      1  0.5640070000000  0.5256970000000  0.4409020000000 1.0
C      1  0.4911040000000  0.5171800000000  0.4499070000000 1.0
C      1  0.4706340000000  0.4930690000000  0.4542260000000 1.0
C      1  0.4776600000000  0.5422690000000  0.4905540000000 1.0
C      1  0.4495080000000  0.6064010000000  0.4976410000000 1.0
C      1  0.4648380000000  0.4853010000000  0.4254960000000 1.0
C      1  0.4923280000000  0.4801230000000  0.5197990000000 1.0
C      1  0.5003600000000  0.4146470000000  0.4945420000000 1.0
C      1  0.4671430000000  0.4166340000000  0.5302040000000 1.0
C      1  0.5720620000000  0.5447070000000  0.4578690000000 1.0
C      1  0.4775830000000  0.4327800000000  0.4657430000000 1.0
C      1  0.4769140000000  0.5184260000000  0.5399840000000 1.0
C      1  0.5193860000000  0.4060930000000  0.4734810000000 1.0
C      1  0.4515540000000  0.5001290000000  0.5030900000000 1.0
C      1  0.4535700000000  0.5538660000000  0.4488410000000 1.0
C      1  0.4714260000000  0.5518460000000  0.5778420000000 1.0
C      1  0.5389760000000  0.4008890000000  0.5357290000000 1.0
C      1  0.4893960000000  0.6052930000000  0.5387550000000 1.0
C      1  0.4437830000000  0.4765970000000  0.5577070000000 1.0
C      1  0.5470420000000  0.4777610000000  0.5103120000000 1.0
C      1  0.5063440000000  0.4910120000000  0.4786140000000 1.0
C      1  0.4341680000000  0.5376440000000  0.5351990000000 1.0
C      1  0.5043410000000  0.4550540000000  0.5821230000000 1.0
C      1  0.4296700000000  0.5118420000000  0.5196530000000 1.0
C      1  0.5873210000000  0.5366920000000  0.4840530000000 1.0
C      1  0.5085460000000  0.4882650000000  0.5417840000000 1.0
C      1  0.5711020000000  0.4965320000000  0.4732990000000 1.0
C      1  0.5733030000000  0.4818290000000  0.5251040000000 1.0
C      1  0.5071210000000  0.5613660000000  0.5408560000000 1.0
C      1  0.4398140000000  0.5164780000000  0.4131260000000 1.0
C      1  0.4301160000000  0.5605810000000  0.5184640000000 1.0
C      1  0.4826300000000  0.5942070000000  0.4620600000000 1.0
C      1  0.5297300000000  0.4908400000000  0.4339120000000 1.0
C      1  0.4427570000000  0.4330770000000  0.5295210000000 1.0
C      1  0.5486170000000  0.4773270000000  0.5634300000000 1.0
C      1  0.5490200000000  0.5646710000000  0.4541670000000 1.0
C      1  0.5413410000000  0.5222550000000  0.5827930000000 1.0
C      1  0.5637310000000  0.4386800000000  0.5416360000000 1.0
C      1  0.4470110000000  0.5185500000000  0.5793620000000 1.0
C      1  0.4717030000000  0.4107370000000  0.5025390000000 1.0
C      1  0.4990670000000  0.5169750000000  0.4201960000000 1.0
C      1  0.5578660000000  0.4042890000000  0.5120930000000 1.0
C      1  0.4968100000000  0.5705230000000  0.5791500000000 1.0
C      1  0.4890330000000  0.5652170000000  0.5208470000000 1.0
C      1  0.4646600000000  0.5001660000000  0.5609850000000 1.0
C      1  0.5911190000000  0.4416180000000  0.4958670000000 1.0
C      1  0.4860170000000  0.4206440000000  0.5535510000000 1.0
C      1  0.5194000000000  0.5150650000000  0.5441270000000 1.0
C      1  0.5458510000000  0.4043590000000  0.4848540000000 1.0
C      1  0.4873870000000  0.4736340000000  0.4676520000000 1.0
C      1  0.5004450000000  0.5017690000000  0.5042270000000 1.0
C      1  0.5476290000000  0.5477280000000  0.5729800000000 1.0
C      1  0.5413400000000  0.5747520000000  0.4819160000000 1.0
C      1  0.5259870000000  0.5635780000000  0.4378250000000 1.0
C      1  0.5058790000000  0.5862840000000  0.5556490000000 1.0
C      1  0.4442500000000  0.5873070000000  0.5198650000000 1.0
C      1  0.5554780000000  0.5767090000000  0.5054560000000 1.0
C      1  0.4137190000000  0.5431990000000  0.4715290000000 1.0
C      1  0.5447120000000  0.4394770000000  0.4419050000000 1.0
C      1  0.4701230000000  0.5835780000000  0.5326630000000 1.0
C      1  0.5774210000000  0.4386570000000  0.4694000000000 1.0
C      1  0.4992580000000  0.5339510000000  0.5489870000000 1.0
C      1  0.4195290000000  0.4645690000000  0.4952390000000 1.0
C      1  0.4768240000000  0.6120870000000  0.4852690000000 1.0
C      1  0.5729820000000  0.4845910000000  0.4465240000000 1.0
C      1  0.5430160000000  0.5260050000000  0.5300720000000 1.0
C      1  0.4871890000000  0.5786270000000  0.4420890000000 1.0
C      1  0.4302560000000  0.4669140000000  0.4402380000000 1.0
C      1  0.4485990000000  0.4443000000000  0.4369190000000 1.0
C      1  0.4760770000000  0.5177480000000  0.5094650000000 1.0
C      1  0.5214560000000  0.4224950000000  0.4480500000000 1.0
C      1  0.6010360000000  0.4678410000000  0.4986450000000 1.0
C      1  0.4139560000000  0.4861580000000  0.5165440000000 1.0
C      1  0.5023120000000  0.5636080000000  0.4233950000000 1.0
C      1  0.4826640000000  0.4534590000000  0.4874860000000 1.0
C      1  0.4717010000000  0.4212210000000  0.5795200000000 1.0
C      1  0.4367320000000  0.4866280000000  0.4190950000000 1.0
C      1  0.4720710000000  0.5265720000000  0.5932930000000 1.0
C      1  0.4253080000000  0.4746980000000  0.4687230000000 1.0
C      1  0.5394130000000  0.5272680000000  0.5009310000000 1.0
C      1  0.5824190000000  0.5475570000000  0.5086040000000 1.0
C      1  0.4469000000000  0.5426990000000  0.5629510000000 1.0
C      1  0.4756600000000  0.4456130000000  0.4238180000000 1.0
C      1  0.5695550000000  0.4545760000000  0.4458300000000 1.0
C      1  0.5344790000000  0.4770670000000  0.5386080000000 1.0
C      1  0.5085650000000  0.4894470000000  0.4138280000000 1.0
C      1  0.4859950000000  0.4705140000000  0.4117710000000 1.0
C      1  0.4199220000000  0.4801790000000  0.5434430000000 1.0
C      1  0.5720730000000  0.4660030000000  0.5500590000000 1.0
C      1  0.4189860000000  0.5609890000000  0.4914450000000 1.0
C      1  0.5355270000000  0.4518220000000  0.4976800000000 1.0
C      1  0.4651610000000  0.4719310000000  0.5125980000000 1.0
C      1  0.4845770000000  0.5003850000000  0.5862550000000 1.0
C      1  0.5754320000000  0.4270070000000  0.5180550000000 1.0
C      1  0.4892340000000  0.5403470000000  0.4053460000000 1.0
C      1  0.5227390000000  0.5584900000000  0.5817760000000 1.0
C      1  0.5447900000000  0.5028480000000  0.4856780000000 1.0
C      1  0.4297380000000  0.4380150000000  0.5037200000000 1.0
C      1  0.5513970000000  0.4332560000000  0.4821930000000 1.0
C      1  0.4504220000000  0.4250500000000  0.4592540000000 1.0
C      1  0.4761890000000  0.5398560000000  0.4616770000000 1.0
C      1  0.5946360000000  0.5081320000000  0.4864590000000 1.0
C      1  0.5980630000000  0.4921670000000  0.5116620000000 1.0
C      1  0.5572910000000  0.5014900000000  0.4281140000000 1.0
C      1  0.5370720000000  0.4267060000000  0.5501710000000 1.0
C      1  0.4889890000000  0.6129610000000  0.5112730000000 1.0
C      1  0.5694590000000  0.5640860000000  0.5235020000000 1.0
C      1  0.4636160000000  0.5298750000000  0.4043840000000 1.0
C      1  0.4466290000000  0.4195940000000  0.4881320000000 1.0
C      1  0.5101390000000  0.4362560000000  0.5599450000000 1.0
C      1  0.5367530000000  0.4948370000000  0.5851770000000 1.0
C      1  0.5083970000000  0.4842200000000  0.5877000000000 1.0
C      1  0.4549300000000  0.4585270000000  0.5377770000000 1.0
C      1  0.5577450000000  0.5471830000000  0.5425020000000 1.0
C      1  0.4318800000000  0.5642750000000  0.4656680000000 1.0
C      1  0.4935780000000  0.4304890000000  0.4414810000000 1.0
C      1  0.5227410000000  0.5051660000000  0.4589290000000 1.0
C      1  0.4245630000000  0.5202880000000  0.4600000000000 1.0
C      1  0.4816330000000  0.4435400000000  0.5976690000000 1.0
C      1  0.4358170000000  0.5330260000000  0.4367390000000 1.0
END
