TITL C-4164232-771-603 68.8994362069698 125000 -26034.4093779123 0 0 173 (C1) n - 1
REM
REM in /home/nfs/bkarasulu/CARBON/AIRSS/Generating-Clusters/ReaxFF-fromJPCA2015/Units_Real/with-SteepDescent/Only-C1/SD-CG/Try1-3A/FIRE-CG
REM
REM
REM
REM
REM
REM ./C.cell (11c1c37f851c82e70ff6c80c92926a4b)
REM
REM compiler GCC version 9.2.1 20190827 (Red Hat 9.2.1-1)
REM options -cpp -mtune=generic -march=x86-64 -g -O0 -fpre-include=/usr/include/finclude/math-vector-fortran.h
REM seed 268441161 -1763941774 -205275353 -1506779824 -808426410 -1699597989 979361915 -544576502 1889180451 688981061 1809691938 -969977470 -793356319 -724450204 -1573245253 1421749216 -365773453 171104080 -750272978 -1489807350 -2074084588 -850117386 901938209 1266831348 -886001857 -236365343 -1899146470 405790341 -1785856503 -1431932664 -1004775847 2062081963 -1807620179
REM
CELL 1.54180   50.00000   50.00000   50.00000   90.00000   90.00000   90.00000
LATT -1
SFAC C  
C      1  0.5055270000000  0.4089920000000  0.5553080000000 1.0
C      1  0.5192410000000  0.3947490000000  0.5339400000000 1.0
C      1  0.4904500000000  0.5154310000000  0.6122950000000 1.0
C      1  0.4334750000000  0.5834720000000  0.5077350000000 1.0
C      1  0.5186170000000  0.4238530000000  0.5771150000000 1.0
C      1  0.5057610000000  0.5369290000000  0.4496210000000 1.0
C      1  0.5741350000000  0.5081200000000  0.5222870000000 1.0
C      1  0.5932390000000  0.4621630000000  0.5209760000000 1.0
C      1  0.5442800000000  0.4029080000000  0.5212670000000 1.0
C      1  0.4232630000000  0.4851680000000  0.5445020000000 1.0
C      1  0.4773300000000  0.5474370000000  0.4863030000000 1.0
C      1  0.5825330000000  0.5006680000000  0.4313350000000 1.0
C      1  0.5125390000000  0.4677510000000  0.4179340000000 1.0
C      1  0.4955130000000  0.5560130000000  0.5058360000000 1.0
C      1  0.4000890000000  0.5380030000000  0.4799530000000 1.0
C      1  0.4795420000000  0.3825310000000  0.4720140000000 1.0
C      1  0.4204910000000  0.5601580000000  0.5224630000000 1.0
C      1  0.4174160000000  0.4177660000000  0.5152340000000 1.0
C      1  0.4864350000000  0.3724530000000  0.4955770000000 1.0
C      1  0.4799770000000  0.5757630000000  0.5154640000000 1.0
C      1  0.5281920000000  0.5797150000000  0.5982020000000 1.0
C      1  0.4821020000000  0.4101050000000  0.5085870000000 1.0
C      1  0.4607850000000  0.5262470000000  0.4739240000000 1.0
C      1  0.5522710000000  0.5988990000000  0.5082930000000 1.0
C      1  0.4764950000000  0.4038730000000  0.4542860000000 1.0
C      1  0.4686830000000  0.4929560000000  0.4373530000000 1.0
C      1  0.4648420000000  0.4857450000000  0.5944740000000 1.0
C      1  0.4983990000000  0.4892420000000  0.4322250000000 1.0
C      1  0.5976010000000  0.5032000000000  0.4558740000000 1.0
C      1  0.5417940000000  0.5857940000000  0.5711700000000 1.0
C      1  0.5118890000000  0.4990340000000  0.5375600000000 1.0
C      1  0.5981190000000  0.4775190000000  0.4716540000000 1.0
C      1  0.5392390000000  0.4875740000000  0.4906090000000 1.0
C      1  0.4342540000000  0.5230030000000  0.4105250000000 1.0
C      1  0.4856420000000  0.4607960000000  0.5498590000000 1.0
C      1  0.5985490000000  0.5095670000000  0.5093250000000 1.0
C      1  0.5060310000000  0.4994880000000  0.5664540000000 1.0
C      1  0.5709750000000  0.4850380000000  0.4077450000000 1.0
C      1  0.4804710000000  0.5317630000000  0.4007530000000 1.0
C      1  0.4902700000000  0.5833630000000  0.4590540000000 1.0
C      1  0.5479810000000  0.5011400000000  0.3977550000000 1.0
C      1  0.5016360000000  0.6167780000000  0.5179020000000 1.0
C      1  0.3989310000000  0.5122010000000  0.4671400000000 1.0
C      1  0.4862320000000  0.5469880000000  0.5502540000000 1.0
C      1  0.5090500000000  0.4773350000000  0.3900030000000 1.0
C      1  0.5186130000000  0.5286770000000  0.4746620000000 1.0
C      1  0.4487570000000  0.4693070000000  0.4376560000000 1.0
C      1  0.5257410000000  0.4825280000000  0.5817800000000 1.0
C      1  0.4396930000000  0.4732980000000  0.5864620000000 1.0
C      1  0.5359170000000  0.5157960000000  0.5308520000000 1.0
C      1  0.5443770000000  0.5338150000000  0.4870680000000 1.0
C      1  0.5552720000000  0.4988470000000  0.5847160000000 1.0
C      1  0.5181220000000  0.4476560000000  0.5143050000000 1.0
C      1  0.4718290000000  0.5029070000000  0.4635450000000 1.0
C      1  0.4307710000000  0.5476320000000  0.4426250000000 1.0
C      1  0.4732450000000  0.4809040000000  0.5064800000000 1.0
C      1  0.5941070000000  0.5314390000000  0.4678670000000 1.0
C      1  0.5214230000000  0.5032180000000  0.3859230000000 1.0
C      1  0.4569050000000  0.4583140000000  0.5114500000000 1.0
C      1  0.5074080000000  0.4664970000000  0.6018040000000 1.0
C      1  0.4439620000000  0.4508000000000  0.5677000000000 1.0
C      1  0.3961460000000  0.5221250000000  0.5306730000000 1.0
C      1  0.4323700000000  0.4643820000000  0.4605830000000 1.0
C      1  0.5418140000000  0.5140690000000  0.4237780000000 1.0
C      1  0.5575970000000  0.5038030000000  0.4455880000000 1.0
C      1  0.5079590000000  0.4650600000000  0.5339320000000 1.0
C      1  0.4725930000000  0.5548780000000  0.4155010000000 1.0
C      1  0.5140590000000  0.5323490000000  0.6039880000000 1.0
C      1  0.4594280000000  0.5081150000000  0.4072820000000 1.0
C      1  0.5680510000000  0.4593270000000  0.4172690000000 1.0
C      1  0.4880010000000  0.4850590000000  0.6124100000000 1.0
C      1  0.4547130000000  0.5457710000000  0.4541670000000 1.0
C      1  0.5484650000000  0.4268200000000  0.4313670000000 1.0
C      1  0.5891600000000  0.4514920000000  0.4623030000000 1.0
C      1  0.5503390000000  0.4698460000000  0.5374150000000 1.0
C      1  0.4662140000000  0.4255290000000  0.5259980000000 1.0
C      1  0.4051300000000  0.4921660000000  0.5243160000000 1.0
C      1  0.5286190000000  0.6084390000000  0.5260860000000 1.0
C      1  0.4229450000000  0.4928550000000  0.5724470000000 1.0
C      1  0.5579390000000  0.4202330000000  0.4764510000000 1.0
C      1  0.5428340000000  0.4003470000000  0.4918210000000 1.0
C      1  0.5838120000000  0.4325170000000  0.4832390000000 1.0
C      1  0.4794350000000  0.6093470000000  0.5379290000000 1.0
C      1  0.5835490000000  0.5159360000000  0.5472790000000 1.0
C      1  0.4029170000000  0.4561410000000  0.4900770000000 1.0
C      1  0.4249730000000  0.4324010000000  0.5536600000000 1.0
C      1  0.5720370000000  0.5513450000000  0.4267930000000 1.0
C      1  0.5666950000000  0.4205270000000  0.5305410000000 1.0
C      1  0.5404840000000  0.5207500000000  0.5969530000000 1.0
C      1  0.5068260000000  0.5490770000000  0.5305550000000 1.0
C      1  0.4766380000000  0.4435960000000  0.4012810000000 1.0
C      1  0.4555500000000  0.5638140000000  0.5840580000000 1.0
C      1  0.4902770000000  0.4875380000000  0.4785480000000 1.0
C      1  0.5438510000000  0.5806000000000  0.4855290000000 1.0
C      1  0.5069110000000  0.4045360000000  0.4499140000000 1.0
C      1  0.5778160000000  0.5867280000000  0.5146440000000 1.0
C      1  0.4129890000000  0.5626270000000  0.5524180000000 1.0
C      1  0.5707760000000  0.5605920000000  0.5605570000000 1.0
C      1  0.5151210000000  0.5011240000000  0.4833780000000 1.0
C      1  0.5851980000000  0.4360450000000  0.5125200000000 1.0
C      1  0.4815090000000  0.5029720000000  0.5248710000000 1.0
C      1  0.5115120000000  0.5139010000000  0.4336130000000 1.0
C      1  0.5462460000000  0.4838910000000  0.4634790000000 1.0
C      1  0.5336360000000  0.5445120000000  0.5319240000000 1.0
C      1  0.5681440000000  0.4358820000000  0.5548320000000 1.0
C      1  0.4645430000000  0.5682390000000  0.4691460000000 1.0
C      1  0.4582330000000  0.4803880000000  0.3936360000000 1.0
C      1  0.4435670000000  0.5368370000000  0.5929830000000 1.0
C      1  0.4229660000000  0.4977450000000  0.4991670000000 1.0
C      1  0.5828180000000  0.5563210000000  0.5145570000000 1.0
C      1  0.5015530000000  0.4402340000000  0.4167510000000 1.0
C      1  0.4677440000000  0.5299370000000  0.5351740000000 1.0
C      1  0.4775420000000  0.4172200000000  0.5517730000000 1.0
C      1  0.5283990000000  0.4622010000000  0.4558240000000 1.0
C      1  0.4054690000000  0.5339930000000  0.5560810000000 1.0
C      1  0.4516070000000  0.4574210000000  0.4107850000000 1.0
C      1  0.5455520000000  0.4364670000000  0.5727930000000 1.0
C      1  0.5422040000000  0.4623390000000  0.5105840000000 1.0
C      1  0.4344910000000  0.5687540000000  0.5681600000000 1.0
C      1  0.4122910000000  0.4844970000000  0.4737490000000 1.0
C      1  0.5194950000000  0.4189920000000  0.4265370000000 1.0
C      1  0.5023410000000  0.4260130000000  0.4951250000000 1.0
C      1  0.5072190000000  0.5597380000000  0.5949310000000 1.0
C      1  0.4168620000000  0.5593110000000  0.4659590000000 1.0
C      1  0.5080550000000  0.5292680000000  0.3920070000000 1.0
C      1  0.4936100000000  0.5951150000000  0.5584800000000 1.0
C      1  0.5015810000000  0.6048800000000  0.4926340000000 1.0
C      1  0.4996260000000  0.4415000000000  0.5896940000000 1.0
C      1  0.5269760000000  0.5503530000000  0.4002250000000 1.0
C      1  0.5454590000000  0.5596970000000  0.5578540000000 1.0
C      1  0.3967090000000  0.4614350000000  0.5169370000000 1.0
C      1  0.4671310000000  0.5269170000000  0.6027900000000 1.0
C      1  0.5747430000000  0.4425470000000  0.4360670000000 1.0
C      1  0.4604470000000  0.5911700000000  0.5202350000000 1.0
C      1  0.4043600000000  0.4378710000000  0.5326730000000 1.0
C      1  0.4783590000000  0.4960250000000  0.5717450000000 1.0
C      1  0.4957160000000  0.5642070000000  0.4364420000000 1.0
C      1  0.5534090000000  0.5406790000000  0.4081420000000 1.0
C      1  0.4437650000000  0.5363060000000  0.5223930000000 1.0
C      1  0.4646840000000  0.4291000000000  0.4634780000000 1.0
C      1  0.6012080000000  0.4812650000000  0.5005980000000 1.0
C      1  0.5817990000000  0.5545650000000  0.4526270000000 1.0
C      1  0.4882890000000  0.4409660000000  0.4743180000000 1.0
C      1  0.4948700000000  0.3853810000000  0.5188780000000 1.0
C      1  0.5753020000000  0.4944800000000  0.5649510000000 1.0
C      1  0.5506400000000  0.5111760000000  0.5069470000000 1.0
C      1  0.4220810000000  0.5214610000000  0.5761070000000 1.0
C      1  0.4445180000000  0.4684810000000  0.5389750000000 1.0
C      1  0.5219830000000  0.5998000000000  0.5531410000000 1.0
C      1  0.5212810000000  0.5715360000000  0.4196370000000 1.0
C      1  0.5779110000000  0.4666790000000  0.5475470000000 1.0
C      1  0.4410890000000  0.5187140000000  0.4996670000000 1.0
C      1  0.5016310000000  0.4639080000000  0.4652040000000 1.0
C      1  0.4689870000000  0.4836360000000  0.5475080000000 1.0
C      1  0.5129800000000  0.5904860000000  0.4751900000000 1.0
C      1  0.5497800000000  0.5558630000000  0.5040630000000 1.0
C      1  0.4442480000000  0.5615100000000  0.4196880000000 1.0
C      1  0.4850750000000  0.5676920000000  0.5726220000000 1.0
C      1  0.4765080000000  0.4408810000000  0.5683230000000 1.0
C      1  0.4398950000000  0.4158070000000  0.5348090000000 1.0
C      1  0.4231600000000  0.5470710000000  0.3999030000000 1.0
C      1  0.5409490000000  0.5758790000000  0.4386920000000 1.0
C      1  0.5401600000000  0.4353260000000  0.4580420000000 1.0
C      1  0.5182930000000  0.4052130000000  0.4770010000000 1.0
C      1  0.4820820000000  0.4668050000000  0.3833740000000 1.0
C      1  0.4445550000000  0.4444380000000  0.4807830000000 1.0
C      1  0.5869390000000  0.5455140000000  0.5440460000000 1.0
C      1  0.4184660000000  0.4315790000000  0.4893020000000 1.0
C      1  0.3989080000000  0.5413620000000  0.5102150000000 1.0
C      1  0.5598820000000  0.5754550000000  0.4587480000000 1.0
C      1  0.4343520000000  0.5768350000000  0.4804160000000 1.0
C      1  0.5968160000000  0.5352950000000  0.4954030000000 1.0
C      1  0.5381310000000  0.4628300000000  0.5627590000000 1.0
END
