TITL C-4164241-3639-534 44.4646953982931 125000 -26651.9505356403 0 0 179 (C1) n - 1
REM
REM in /home/nfs/bkarasulu/CARBON/AIRSS/Generating-Clusters/ReaxFF-fromJPCA2015/Units_Real/with-SteepDescent/Only-C1/SD-CG/Try1-3A/FIRE-CG
REM
REM
REM
REM
REM
REM ./C.cell (11c1c37f851c82e70ff6c80c92926a4b)
REM
REM compiler GCC version 9.2.1 20190827 (Red Hat 9.2.1-1)
REM options -cpp -mtune=generic -march=x86-64 -g -O0 -fpre-include=/usr/include/finclude/math-vector-fortran.h
REM seed 1228908381 304003086 1777371322 649155682 158666448 -851598838 -1871465138 -907375000 -539729668 -1059237728 -834397478 1958393701 -382855091 1634969717 512252555 1634158985 1736426653 710375518 -1434769294 -1073443778 985095184 1287371160 -1707193095 -1816668006 485146254 1744957612 -1841945653 134858051 2052005646 360648631 1469210836 2098501920 491320675
REM
CELL 1.54180   50.00000   50.00000   50.00000   90.00000   90.00000   90.00000
LATT -1
SFAC C  
C      1  0.5396100000000  0.4134480000000  0.4944780000000 1.0
C      1  0.4899480000000  0.4852180000000  0.5345920000000 1.0
C      1  0.5526130000000  0.5026320000000  0.4686360000000 1.0
C      1  0.6104530000000  0.5009160000000  0.4768510000000 1.0
C      1  0.5393670000000  0.4471460000000  0.4143150000000 1.0
C      1  0.4245280000000  0.5111740000000  0.4981700000000 1.0
C      1  0.4882850000000  0.4851970000000  0.4816120000000 1.0
C      1  0.5277900000000  0.4645740000000  0.4533080000000 1.0
C      1  0.4565890000000  0.5862260000000  0.4283270000000 1.0
C      1  0.6158350000000  0.5255990000000  0.4910980000000 1.0
C      1  0.4905700000000  0.5109980000000  0.6177970000000 1.0
C      1  0.5536970000000  0.5981490000000  0.5012630000000 1.0
C      1  0.4574050000000  0.4159880000000  0.5617410000000 1.0
C      1  0.4071220000000  0.5503790000000  0.5369530000000 1.0
C      1  0.4483490000000  0.5018480000000  0.5537310000000 1.0
C      1  0.5193680000000  0.4862330000000  0.4368250000000 1.0
C      1  0.5573370000000  0.4240370000000  0.5579880000000 1.0
C      1  0.5665490000000  0.5891650000000  0.4750580000000 1.0
C      1  0.4362000000000  0.5467810000000  0.4727670000000 1.0
C      1  0.3846030000000  0.5268070000000  0.4734030000000 1.0
C      1  0.4921920000000  0.3892350000000  0.4754050000000 1.0
C      1  0.5032840000000  0.5746690000000  0.4294360000000 1.0
C      1  0.5988650000000  0.5478560000000  0.4778170000000 1.0
C      1  0.4603730000000  0.5728880000000  0.5604110000000 1.0
C      1  0.4492060000000  0.5104840000000  0.4180870000000 1.0
C      1  0.4922320000000  0.5117080000000  0.5699120000000 1.0
C      1  0.4898370000000  0.5452370000000  0.4755190000000 1.0
C      1  0.5089670000000  0.5005810000000  0.5223970000000 1.0
C      1  0.5382880000000  0.5259560000000  0.4587290000000 1.0
C      1  0.5297130000000  0.4046990000000  0.4425350000000 1.0
C      1  0.4326690000000  0.5836420000000  0.4423640000000 1.0
C      1  0.5084140000000  0.3930450000000  0.5469340000000 1.0
C      1  0.4980610000000  0.4414070000000  0.4897700000000 1.0
C      1  0.4933280000000  0.4526700000000  0.4115720000000 1.0
C      1  0.4431660000000  0.4580990000000  0.5688640000000 1.0
C      1  0.5670420000000  0.5075960000000  0.4920290000000 1.0
C      1  0.4817270000000  0.5900900000000  0.4409480000000 1.0
C      1  0.4048920000000  0.5297710000000  0.5561140000000 1.0
C      1  0.5735620000000  0.4235900000000  0.4627750000000 1.0
C      1  0.4092710000000  0.4968120000000  0.5197420000000 1.0
C      1  0.5005230000000  0.4388410000000  0.5184510000000 1.0
C      1  0.5266610000000  0.4341700000000  0.5264680000000 1.0
C      1  0.4069150000000  0.5150280000000  0.5839130000000 1.0
C      1  0.5386270000000  0.4603110000000  0.5252300000000 1.0
C      1  0.5159320000000  0.4619990000000  0.4798740000000 1.0
C      1  0.5097740000000  0.5533860000000  0.4097110000000 1.0
C      1  0.4708550000000  0.4118100000000  0.5869400000000 1.0
C      1  0.5431540000000  0.5289000000000  0.5711590000000 1.0
C      1  0.4835350000000  0.6235220000000  0.5156150000000 1.0
C      1  0.5897920000000  0.4457400000000  0.4681510000000 1.0
C      1  0.4513160000000  0.4124630000000  0.4516810000000 1.0
C      1  0.4856580000000  0.6056080000000  0.4662280000000 1.0
C      1  0.4769070000000  0.4838270000000  0.6028860000000 1.0
C      1  0.4287410000000  0.4202060000000  0.4681430000000 1.0
C      1  0.5100800000000  0.6084690000000  0.5270280000000 1.0
C      1  0.4647230000000  0.4958450000000  0.5281360000000 1.0
C      1  0.6069510000000  0.4870120000000  0.5037260000000 1.0
C      1  0.5193670000000  0.5142970000000  0.3889720000000 1.0
C      1  0.5149250000000  0.5310320000000  0.4775520000000 1.0
C      1  0.4654720000000  0.5128100000000  0.4472750000000 1.0
C      1  0.4584880000000  0.5460640000000  0.5195280000000 1.0
C      1  0.5155650000000  0.3852020000000  0.5215630000000 1.0
C      1  0.5367330000000  0.4683140000000  0.4981730000000 1.0
C      1  0.5082050000000  0.6110210000000  0.4808150000000 1.0
C      1  0.5451060000000  0.5106230000000  0.5453590000000 1.0
C      1  0.5646040000000  0.5871320000000  0.5261220000000 1.0
C      1  0.5772390000000  0.4620120000000  0.4453830000000 1.0
C      1  0.4855690000000  0.4560290000000  0.6098430000000 1.0
C      1  0.5561240000000  0.4889380000000  0.5932430000000 1.0
C      1  0.4369110000000  0.4806110000000  0.4300070000000 1.0
C      1  0.5495640000000  0.5798780000000  0.5507370000000 1.0
C      1  0.5941010000000  0.5812160000000  0.4757810000000 1.0
C      1  0.4107270000000  0.5598010000000  0.5112650000000 1.0
C      1  0.5489510000000  0.4102380000000  0.4662380000000 1.0
C      1  0.5612920000000  0.5424600000000  0.4490110000000 1.0
C      1  0.4847740000000  0.4872280000000  0.3918070000000 1.0
C      1  0.4936140000000  0.5244490000000  0.4392990000000 1.0
C      1  0.5866350000000  0.4670330000000  0.5450100000000 1.0
C      1  0.4478520000000  0.4411690000000  0.5206900000000 1.0
C      1  0.5435210000000  0.5305530000000  0.5249940000000 1.0
C      1  0.4530760000000  0.5218340000000  0.5121740000000 1.0
C      1  0.4962010000000  0.5311090000000  0.3960830000000 1.0
C      1  0.5252930000000  0.4211670000000  0.5533100000000 1.0
C      1  0.5559390000000  0.5606910000000  0.4301450000000 1.0
C      1  0.5125320000000  0.4367280000000  0.5757760000000 1.0
C      1  0.5790020000000  0.5515880000000  0.5000010000000 1.0
C      1  0.4609930000000  0.4444200000000  0.5472080000000 1.0
C      1  0.5147710000000  0.4861320000000  0.3887050000000 1.0
C      1  0.5962800000000  0.5192990000000  0.5426490000000 1.0
C      1  0.5124620000000  0.5323720000000  0.5702020000000 1.0
C      1  0.5091520000000  0.5559940000000  0.5545210000000 1.0
C      1  0.4691370000000  0.4639230000000  0.4008180000000 1.0
C      1  0.3996840000000  0.4692970000000  0.5179520000000 1.0
C      1  0.5040310000000  0.5700720000000  0.4773620000000 1.0
C      1  0.4915990000000  0.4565900000000  0.5410240000000 1.0
C      1  0.5786740000000  0.4886930000000  0.4340250000000 1.0
C      1  0.5075280000000  0.3957660000000  0.4554540000000 1.0
C      1  0.5840560000000  0.5656960000000  0.5253690000000 1.0
C      1  0.4648150000000  0.5743900000000  0.5281250000000 1.0
C      1  0.5189900000000  0.3915870000000  0.4949620000000 1.0
C      1  0.4191770000000  0.4321290000000  0.5217660000000 1.0
C      1  0.4163700000000  0.4470370000000  0.4709670000000 1.0
C      1  0.5492960000000  0.5809000000000  0.4502900000000 1.0
C      1  0.4532450000000  0.4589690000000  0.4243390000000 1.0
C      1  0.5421280000000  0.5139440000000  0.5996490000000 1.0
C      1  0.4630990000000  0.5364410000000  0.4673510000000 1.0
C      1  0.4933460000000  0.4306310000000  0.5966260000000 1.0
C      1  0.5682020000000  0.4508430000000  0.5612460000000 1.0
C      1  0.4197160000000  0.5071740000000  0.5446940000000 1.0
C      1  0.5434580000000  0.4823030000000  0.5446310000000 1.0
C      1  0.4834500000000  0.5366250000000  0.6111140000000 1.0
C      1  0.5677300000000  0.4194850000000  0.5059050000000 1.0
C      1  0.5187760000000  0.5474160000000  0.5238990000000 1.0
C      1  0.5379440000000  0.5467470000000  0.4115870000000 1.0
C      1  0.5208990000000  0.4248160000000  0.4224550000000 1.0
C      1  0.4779950000000  0.4855590000000  0.4542130000000 1.0
C      1  0.5247380000000  0.5949520000000  0.5532240000000 1.0
C      1  0.5111660000000  0.4630100000000  0.5686110000000 1.0
C      1  0.5852970000000  0.4432880000000  0.4975960000000 1.0
C      1  0.5500730000000  0.4512090000000  0.4409570000000 1.0
C      1  0.4662280000000  0.4852340000000  0.5014870000000 1.0
C      1  0.4284240000000  0.5745030000000  0.4697110000000 1.0
C      1  0.4750930000000  0.4395180000000  0.4739420000000 1.0
C      1  0.5619530000000  0.5305440000000  0.5049300000000 1.0
C      1  0.4248100000000  0.5830160000000  0.4980580000000 1.0
C      1  0.5571480000000  0.4944750000000  0.4131300000000 1.0
C      1  0.5559780000000  0.4834530000000  0.4881750000000 1.0
C      1  0.5126480000000  0.5694180000000  0.5048170000000 1.0
C      1  0.4128970000000  0.5371750000000  0.4898430000000 1.0
C      1  0.4542890000000  0.4442340000000  0.4925120000000 1.0
C      1  0.3654020000000  0.5121120000000  0.4823650000000 1.0
C      1  0.5448770000000  0.4696600000000  0.5715130000000 1.0
C      1  0.5943470000000  0.5062590000000  0.4518830000000 1.0
C      1  0.5922200000000  0.4939360000000  0.5570560000000 1.0
C      1  0.5204600000000  0.5147400000000  0.4376450000000 1.0
C      1  0.4064290000000  0.4480830000000  0.4984320000000 1.0
C      1  0.4046340000000  0.4521390000000  0.5410330000000 1.0
C      1  0.5595190000000  0.5540250000000  0.5617970000000 1.0
C      1  0.4965020000000  0.4843230000000  0.5805770000000 1.0
C      1  0.5840870000000  0.4946810000000  0.5862940000000 1.0
C      1  0.3965250000000  0.5249410000000  0.4464140000000 1.0
C      1  0.5833980000000  0.5463670000000  0.5477620000000 1.0
C      1  0.4552790000000  0.5476720000000  0.5740470000000 1.0
C      1  0.4152000000000  0.4618870000000  0.5662510000000 1.0
C      1  0.4655440000000  0.5218210000000  0.5650510000000 1.0
C      1  0.4810210000000  0.3881500000000  0.5412640000000 1.0
C      1  0.4119860000000  0.5266400000000  0.4291350000000 1.0
C      1  0.4494060000000  0.5933090000000  0.5081030000000 1.0
C      1  0.6103360000000  0.5130610000000  0.5175440000000 1.0
C      1  0.4684340000000  0.6114380000000  0.4939030000000 1.0
C      1  0.4209470000000  0.4727960000000  0.4532320000000 1.0
C      1  0.4697780000000  0.5580440000000  0.5987840000000 1.0
C      1  0.4396490000000  0.5649660000000  0.4217820000000 1.0
C      1  0.4738780000000  0.5126800000000  0.3993670000000 1.0
C      1  0.4478560000000  0.4839210000000  0.5822180000000 1.0
C      1  0.4282070000000  0.4881970000000  0.4763390000000 1.0
C      1  0.5446610000000  0.5193170000000  0.4032550000000 1.0
C      1  0.5065860000000  0.5804130000000  0.5701400000000 1.0
C      1  0.4629330000000  0.3951620000000  0.4725850000000 1.0
C      1  0.4921600000000  0.4274640000000  0.4250780000000 1.0
C      1  0.5008940000000  0.5262230000000  0.5151030000000 1.0
C      1  0.5384420000000  0.4740190000000  0.4021780000000 1.0
C      1  0.4438510000000  0.4710190000000  0.4930230000000 1.0
C      1  0.5935970000000  0.4640540000000  0.5162770000000 1.0
C      1  0.4345980000000  0.4023950000000  0.5184670000000 1.0
C      1  0.4179710000000  0.4879930000000  0.5855390000000 1.0
C      1  0.4939070000000  0.4747080000000  0.4325320000000 1.0
C      1  0.5677340000000  0.4205240000000  0.5335010000000 1.0
C      1  0.4945290000000  0.5836330000000  0.5214520000000 1.0
C      1  0.5202320000000  0.5790280000000  0.4528880000000 1.0
C      1  0.4533370000000  0.3948310000000  0.5400850000000 1.0
C      1  0.5082510000000  0.5088740000000  0.4932330000000 1.0
C      1  0.4394140000000  0.4005490000000  0.4901660000000 1.0
C      1  0.4343910000000  0.5364770000000  0.4163010000000 1.0
C      1  0.5871100000000  0.5338750000000  0.4540360000000 1.0
C      1  0.5278380000000  0.6109970000000  0.5011110000000 1.0
C      1  0.4782790000000  0.5816730000000  0.5810180000000 1.0
C      1  0.4692530000000  0.4359840000000  0.4440650000000 1.0
C      1  0.5175340000000  0.5147390000000  0.6123040000000 1.0
END
