TITL C-4164242-3624-765 -0.448562806245925 125000 -4442.26977343431 0 0 31 (C1) n - 1
REM
REM in /home/nfs/bkarasulu/CARBON/AIRSS/Generating-Clusters/ReaxFF-fromJPCA2015/Units_Real/with-SteepDescent/Only-C1/SD-CG/Try1-3A/FIRE-CG
REM
REM
REM
REM
REM
REM ./C.cell (11c1c37f851c82e70ff6c80c92926a4b)
REM
REM compiler GCC version 9.2.1 20190827 (Red Hat 9.2.1-1)
REM options -cpp -mtune=generic -march=x86-64 -g -O0 -fpre-include=/usr/include/finclude/math-vector-fortran.h
REM seed 1760635411 646621683 1450618675 -339388092 -59139813 1930834414 381174393 1916162364 1399457845 -283241106 1761756699 1799035923 465368586 -1268662667 658164458 -1829618049 350474439 -452456863 765331299 1233730051 -2014776725 -131879205 342745040 -199928288 2016976224 -1762018436 -1043281122 -267729489 1470496543 -1679943148 982543802 945471826 -1787260567
REM
CELL 1.54180   50.00000   50.00000   50.00000   90.00000   90.00000   90.00000
LATT -1
SFAC C  
C      1  0.5053050000000  0.5575340000000  0.5274910000000 1.0
C      1  0.4887720000000  0.4942420000000  0.5514860000000 1.0
C      1  0.5387020000000  0.4785530000000  0.5158580000000 1.0
C      1  0.4911290000000  0.4754400000000  0.5292390000000 1.0
C      1  0.5313080000000  0.5109410000000  0.4703120000000 1.0
C      1  0.5609540000000  0.4973970000000  0.4739210000000 1.0
C      1  0.4931910000000  0.5110700000000  0.4401760000000 1.0
C      1  0.5178170000000  0.5225000000000  0.4416160000000 1.0
C      1  0.4743210000000  0.5326010000000  0.4961420000000 1.0
C      1  0.5250480000000  0.5483340000000  0.5482780000000 1.0
C      1  0.4546100000000  0.4526770000000  0.4644380000000 1.0
C      1  0.5173600000000  0.4610640000000  0.5262650000000 1.0
C      1  0.4770820000000  0.4785550000000  0.4996390000000 1.0
C      1  0.5224710000000  0.4812170000000  0.4707620000000 1.0
C      1  0.4825600000000  0.4281840000000  0.5011350000000 1.0
C      1  0.4836410000000  0.5584510000000  0.5490220000000 1.0
C      1  0.5244980000000  0.5225150000000  0.4975260000000 1.0
C      1  0.4623980000000  0.4519760000000  0.4910140000000 1.0
C      1  0.4641700000000  0.5053260000000  0.4924910000000 1.0
C      1  0.5470400000000  0.4751790000000  0.4875670000000 1.0
C      1  0.5312880000000  0.5194950000000  0.5469250000000 1.0
C      1  0.5079950000000  0.5134580000000  0.5642140000000 1.0
C      1  0.4541690000000  0.5118180000000  0.4653830000000 1.0
C      1  0.4591730000000  0.5414260000000  0.4707740000000 1.0
C      1  0.4696640000000  0.4977990000000  0.4438340000000 1.0
C      1  0.5027310000000  0.5434030000000  0.5674750000000 1.0
C      1  0.5351650000000  0.5072820000000  0.5202710000000 1.0
C      1  0.4749140000000  0.4694860000000  0.4539580000000 1.0
C      1  0.4958600000000  0.4718340000000  0.4753180000000 1.0
C      1  0.5025510000000  0.5405440000000  0.5033390000000 1.0
C      1  0.5041130000000  0.4397000000000  0.5141320000000 1.0
END
