TITL C-4164235-1454-195 101.784152653671 125000 -19273.7541962602 0 0 131 (C1) n - 1
REM
REM in /home/nfs/bkarasulu/CARBON/AIRSS/Generating-Clusters/ReaxFF-fromJPCA2015/Units_Real/with-SteepDescent/Only-C1/SD-CG/Try1-3A/FIRE-CG
REM
REM
REM
REM
REM
REM ./C.cell (11c1c37f851c82e70ff6c80c92926a4b)
REM
REM compiler GCC version 9.2.1 20190827 (Red Hat 9.2.1-1)
REM options -cpp -mtune=generic -march=x86-64 -g -O0 -fpre-include=/usr/include/finclude/math-vector-fortran.h
REM seed 1308152699 709632912 -2004779779 730961742 -247094899 1266666735 -596911074 529479008 358825351 -1634348425 1044717238 -198214509 -697364960 1686548243 -87114499 -504808387 1852519277 23283830 1857261669 -319674846 1270841839 -745433742 1618618361 1920214774 1982195747 1456375999 1632316241 -405733479 -1301868008 148612910 1383867119 -824832126 -291429126
REM
CELL 1.54180   50.00000   50.00000   50.00000   90.00000   90.00000   90.00000
LATT -1
SFAC C  
C      1  0.4285930000000  0.4453740000000  0.5464210000000 1.0
C      1  0.5326980000000  0.4540140000000  0.4208270000000 1.0
C      1  0.4241400000000  0.5147440000000  0.5587710000000 1.0
C      1  0.4750720000000  0.5245470000000  0.4121760000000 1.0
C      1  0.5055750000000  0.5914300000000  0.4752290000000 1.0
C      1  0.4404620000000  0.4761140000000  0.4535140000000 1.0
C      1  0.5660630000000  0.4794360000000  0.4258330000000 1.0
C      1  0.3943910000000  0.4782010000000  0.4826870000000 1.0
C      1  0.5921160000000  0.5521140000000  0.4952170000000 1.0
C      1  0.5706970000000  0.5141060000000  0.5699930000000 1.0
C      1  0.4761760000000  0.4825400000000  0.4066220000000 1.0
C      1  0.4779270000000  0.5831100000000  0.5216920000000 1.0
C      1  0.5234680000000  0.5006360000000  0.5754190000000 1.0
C      1  0.4614210000000  0.5431240000000  0.5825920000000 1.0
C      1  0.4809400000000  0.4728890000000  0.6006270000000 1.0
C      1  0.4767100000000  0.5251680000000  0.4467450000000 1.0
C      1  0.5561430000000  0.4639010000000  0.5704910000000 1.0
C      1  0.5594010000000  0.5396250000000  0.5673890000000 1.0
C      1  0.4266450000000  0.5126870000000  0.5121290000000 1.0
C      1  0.4344050000000  0.4612020000000  0.5678720000000 1.0
C      1  0.5577060000000  0.5634450000000  0.5268380000000 1.0
C      1  0.5071770000000  0.4244890000000  0.4952820000000 1.0
C      1  0.4097660000000  0.5264940000000  0.4894860000000 1.0
C      1  0.4978790000000  0.4808890000000  0.4486090000000 1.0
C      1  0.4651890000000  0.4658230000000  0.5413690000000 1.0
C      1  0.5062270000000  0.4804800000000  0.5627550000000 1.0
C      1  0.5752150000000  0.4388410000000  0.5231330000000 1.0
C      1  0.5010950000000  0.5201550000000  0.4963280000000 1.0
C      1  0.4572350000000  0.4998830000000  0.5814140000000 1.0
C      1  0.5440380000000  0.4887760000000  0.5239450000000 1.0
C      1  0.4806640000000  0.4394610000000  0.5770640000000 1.0
C      1  0.5567470000000  0.5751880000000  0.4614730000000 1.0
C      1  0.5470280000000  0.5248740000000  0.4351770000000 1.0
C      1  0.4320610000000  0.4471120000000  0.5123550000000 1.0
C      1  0.5373670000000  0.4277270000000  0.5591590000000 1.0
C      1  0.4324420000000  0.5355650000000  0.4387830000000 1.0
C      1  0.5334130000000  0.4467250000000  0.5781640000000 1.0
C      1  0.4991240000000  0.5640600000000  0.4356480000000 1.0
C      1  0.4297230000000  0.5101510000000  0.4233000000000 1.0
C      1  0.5214500000000  0.4744020000000  0.5365230000000 1.0
C      1  0.5180830000000  0.4973270000000  0.4379080000000 1.0
C      1  0.5911060000000  0.5241420000000  0.4814510000000 1.0
C      1  0.5598420000000  0.4148640000000  0.5172510000000 1.0
C      1  0.5562680000000  0.4230240000000  0.4885370000000 1.0
C      1  0.4853820000000  0.5311050000000  0.5934790000000 1.0
C      1  0.5307080000000  0.4912730000000  0.4758880000000 1.0
C      1  0.4592870000000  0.5598980000000  0.5578880000000 1.0
C      1  0.5326560000000  0.5343860000000  0.4112350000000 1.0
C      1  0.4811520000000  0.4704710000000  0.5020990000000 1.0
C      1  0.5253860000000  0.5610910000000  0.4220290000000 1.0
C      1  0.4514310000000  0.4982650000000  0.4707160000000 1.0
C      1  0.4290320000000  0.5320770000000  0.5353990000000 1.0
C      1  0.5513580000000  0.4907270000000  0.4959330000000 1.0
C      1  0.5895560000000  0.5573490000000  0.5228230000000 1.0
C      1  0.4761280000000  0.3858420000000  0.4501290000000 1.0
C      1  0.5694210000000  0.5439380000000  0.4364870000000 1.0
C      1  0.4590350000000  0.4549520000000  0.4443780000000 1.0
C      1  0.4734990000000  0.5569670000000  0.4158500000000 1.0
C      1  0.4581110000000  0.5761980000000  0.4575010000000 1.0
C      1  0.5790210000000  0.4668660000000  0.4487240000000 1.0
C      1  0.5602440000000  0.4517130000000  0.4304840000000 1.0
C      1  0.5298260000000  0.4200800000000  0.4754420000000 1.0
C      1  0.5559640000000  0.5155010000000  0.5296340000000 1.0
C      1  0.4870170000000  0.5851550000000  0.4546270000000 1.0
C      1  0.4208170000000  0.4857850000000  0.5537270000000 1.0
C      1  0.4926770000000  0.4250260000000  0.5409700000000 1.0
C      1  0.5110350000000  0.4137730000000  0.5258180000000 1.0
C      1  0.4084080000000  0.4679650000000  0.5057270000000 1.0
C      1  0.4494880000000  0.5516900000000  0.5319760000000 1.0
C      1  0.3964890000000  0.4890400000000  0.4561310000000 1.0
C      1  0.4743690000000  0.4907240000000  0.5547460000000 1.0
C      1  0.5235080000000  0.5087840000000  0.3999500000000 1.0
C      1  0.5503880000000  0.5691110000000  0.4353280000000 1.0
C      1  0.4655990000000  0.5609570000000  0.5048140000000 1.0
C      1  0.4603480000000  0.4577140000000  0.5867430000000 1.0
C      1  0.4437050000000  0.4338240000000  0.4865620000000 1.0
C      1  0.5389940000000  0.4100870000000  0.5379990000000 1.0
C      1  0.5232530000000  0.5647570000000  0.5699600000000 1.0
C      1  0.5156960000000  0.5326220000000  0.5177220000000 1.0
C      1  0.5739610000000  0.4465650000000  0.4936380000000 1.0
C      1  0.4588470000000  0.5113200000000  0.5095960000000 1.0
C      1  0.5069330000000  0.5877170000000  0.5228950000000 1.0
C      1  0.4713320000000  0.4389550000000  0.5502070000000 1.0
C      1  0.4931090000000  0.4516450000000  0.4825560000000 1.0
C      1  0.5807720000000  0.5332840000000  0.4594400000000 1.0
C      1  0.4205290000000  0.5526250000000  0.4823980000000 1.0
C      1  0.4483510000000  0.5601700000000  0.4353520000000 1.0
C      1  0.5502930000000  0.5635190000000  0.5585800000000 1.0
C      1  0.5830110000000  0.5154840000000  0.5422060000000 1.0
C      1  0.5439010000000  0.5381120000000  0.5199900000000 1.0
C      1  0.4891900000000  0.5446670000000  0.4866390000000 1.0
C      1  0.5764470000000  0.4541240000000  0.5493250000000 1.0
C      1  0.5951420000000  0.4967260000000  0.5227350000000 1.0
C      1  0.4912680000000  0.4014570000000  0.4631620000000 1.0
C      1  0.5068440000000  0.5820130000000  0.5528360000000 1.0
C      1  0.4457950000000  0.5685370000000  0.4828740000000 1.0
C      1  0.5090790000000  0.4412150000000  0.4305620000000 1.0
C      1  0.5123250000000  0.4703370000000  0.4706880000000 1.0
C      1  0.5272520000000  0.5175980000000  0.4571670000000 1.0
C      1  0.4816200000000  0.4986540000000  0.4976150000000 1.0
C      1  0.5118120000000  0.5392530000000  0.5830000000000 1.0
C      1  0.4185280000000  0.4875780000000  0.4381240000000 1.0
C      1  0.4491600000000  0.5268060000000  0.4608890000000 1.0
C      1  0.5022020000000  0.4720830000000  0.5184130000000 1.0
C      1  0.5234590000000  0.5919190000000  0.4989400000000 1.0
C      1  0.4995960000000  0.5254610000000  0.5391290000000 1.0
C      1  0.4777950000000  0.5029700000000  0.6012940000000 1.0
C      1  0.4770820000000  0.5823790000000  0.5516000000000 1.0
C      1  0.4836100000000  0.4058320000000  0.4937580000000 1.0
C      1  0.4825900000000  0.4599530000000  0.4260300000000 1.0
C      1  0.4736520000000  0.5131930000000  0.5348440000000 1.0
C      1  0.4540820000000  0.5031150000000  0.4088460000000 1.0
C      1  0.4564340000000  0.4638060000000  0.5152710000000 1.0
C      1  0.4663080000000  0.4419520000000  0.4688990000000 1.0
C      1  0.4778270000000  0.4985940000000  0.4579050000000 1.0
C      1  0.5139660000000  0.4211190000000  0.4508530000000 1.0
C      1  0.5509810000000  0.5823390000000  0.5032500000000 1.0
C      1  0.5836240000000  0.4691800000000  0.4777130000000 1.0
C      1  0.5912160000000  0.4746940000000  0.5384970000000 1.0
C      1  0.5035780000000  0.4577570000000  0.5812340000000 1.0
C      1  0.5006840000000  0.5407760000000  0.4602500000000 1.0
C      1  0.5836050000000  0.4958390000000  0.4933110000000 1.0
C      1  0.5154170000000  0.5230780000000  0.5623310000000 1.0
C      1  0.3923290000000  0.5067970000000  0.4767460000000 1.0
C      1  0.5363640000000  0.4853740000000  0.4173010000000 1.0
C      1  0.4587830000000  0.4173260000000  0.5011320000000 1.0
C      1  0.5709100000000  0.5745960000000  0.4843660000000 1.0
C      1  0.5517990000000  0.4919820000000  0.5757250000000 1.0
C      1  0.4949010000000  0.5045280000000  0.3990560000000 1.0
C      1  0.4398190000000  0.5229670000000  0.5819840000000 1.0
C      1  0.4130140000000  0.4874590000000  0.5257320000000 1.0
END
