TITL C-4164232-771-213 42.2816786742317 125000 -27103.6265153619 0 0 182 (C1) n - 1
REM
REM in /home/nfs/bkarasulu/CARBON/AIRSS/Generating-Clusters/ReaxFF-fromJPCA2015/Units_Real/with-SteepDescent/Only-C1/SD-CG/Try1-3A/FIRE-CG
REM
REM
REM
REM
REM
REM ./C.cell (11c1c37f851c82e70ff6c80c92926a4b)
REM
REM compiler GCC version 9.2.1 20190827 (Red Hat 9.2.1-1)
REM options -cpp -mtune=generic -march=x86-64 -g -O0 -fpre-include=/usr/include/finclude/math-vector-fortran.h
REM seed -422021183 1342698773 70041348 -954677409 -188123514 1211222384 -792357669 -1516704662 1659505569 1688053499 1624020319 -1549610429 -2112933103 -1482920234 -12722556 -1985832350 -23106565 -1327382914 -1781978812 100954752 -102789604 -42561126 1707494654 782542637 -1132717353 966223208 -370714692 2111541587 1461619356 985738654 398192261 1041790351 1961186825
REM
CELL 1.54180   50.00000   50.00000   50.00000   90.00000   90.00000   90.00000
LATT -1
SFAC C  
C      1  0.5279060000000  0.4390520000000  0.4992790000000 1.0
C      1  0.5294130000000  0.4045370000000  0.5456930000000 1.0
C      1  0.4171510000000  0.5812300000000  0.4609590000000 1.0
C      1  0.4777690000000  0.5255270000000  0.5601970000000 1.0
C      1  0.5917510000000  0.5209670000000  0.4477550000000 1.0
C      1  0.4037270000000  0.4377510000000  0.4947420000000 1.0
C      1  0.4795220000000  0.5139800000000  0.6054220000000 1.0
C      1  0.4631390000000  0.4007500000000  0.5323190000000 1.0
C      1  0.5467960000000  0.4288820000000  0.5748290000000 1.0
C      1  0.5180600000000  0.5547710000000  0.5760290000000 1.0
C      1  0.5600530000000  0.5633590000000  0.4974150000000 1.0
C      1  0.4597060000000  0.4055680000000  0.4686450000000 1.0
C      1  0.6142640000000  0.4559000000000  0.5540420000000 1.0
C      1  0.4304570000000  0.4806950000000  0.4928010000000 1.0
C      1  0.4341930000000  0.4111180000000  0.5278740000000 1.0
C      1  0.5395630000000  0.5480560000000  0.5158140000000 1.0
C      1  0.4672710000000  0.4706640000000  0.5397460000000 1.0
C      1  0.4082490000000  0.4563140000000  0.5472030000000 1.0
C      1  0.4931930000000  0.4194990000000  0.5777810000000 1.0
C      1  0.4646870000000  0.5961370000000  0.4505530000000 1.0
C      1  0.5135890000000  0.5396960000000  0.4535950000000 1.0
C      1  0.5716890000000  0.4089510000000  0.4745330000000 1.0
C      1  0.3864790000000  0.4571660000000  0.5010690000000 1.0
C      1  0.4513790000000  0.5169400000000  0.3942270000000 1.0
C      1  0.4173830000000  0.5450840000000  0.5373890000000 1.0
C      1  0.5560230000000  0.5473760000000  0.4134140000000 1.0
C      1  0.6066590000000  0.4787310000000  0.4765080000000 1.0
C      1  0.4932160000000  0.5706620000000  0.5337750000000 1.0
C      1  0.4414090000000  0.5646030000000  0.5343650000000 1.0
C      1  0.5200170000000  0.4584160000000  0.5826650000000 1.0
C      1  0.4204010000000  0.4303340000000  0.5466090000000 1.0
C      1  0.5703530000000  0.4304530000000  0.4340620000000 1.0
C      1  0.5327870000000  0.4058490000000  0.5036160000000 1.0
C      1  0.4643420000000  0.5515390000000  0.4300130000000 1.0
C      1  0.6069840000000  0.4889160000000  0.5044110000000 1.0
C      1  0.5569350000000  0.4714020000000  0.5532360000000 1.0
C      1  0.4894970000000  0.5020130000000  0.5100890000000 1.0
C      1  0.4893350000000  0.5903430000000  0.4858420000000 1.0
C      1  0.4475310000000  0.4385190000000  0.5544700000000 1.0
C      1  0.4863160000000  0.3952450000000  0.4837350000000 1.0
C      1  0.4683060000000  0.5616980000000  0.5217100000000 1.0
C      1  0.4973810000000  0.5281860000000  0.5392180000000 1.0
C      1  0.4676200000000  0.6048790000000  0.5303060000000 1.0
C      1  0.3911740000000  0.4951760000000  0.4688660000000 1.0
C      1  0.6036190000000  0.4828610000000  0.5640780000000 1.0
C      1  0.4211030000000  0.4567650000000  0.4804380000000 1.0
C      1  0.4759400000000  0.4766110000000  0.4658180000000 1.0
C      1  0.5306680000000  0.5058120000000  0.5344450000000 1.0
C      1  0.5115140000000  0.5689700000000  0.4190440000000 1.0
C      1  0.4391620000000  0.4863100000000  0.5801490000000 1.0
C      1  0.4034680000000  0.5409660000000  0.4889180000000 1.0
C      1  0.4931630000000  0.4475960000000  0.5876520000000 1.0
C      1  0.4900420000000  0.4838840000000  0.5309350000000 1.0
C      1  0.5728540000000  0.4327790000000  0.5238690000000 1.0
C      1  0.5928910000000  0.4459400000000  0.4460480000000 1.0
C      1  0.4860070000000  0.3945020000000  0.5137400000000 1.0
C      1  0.4779570000000  0.5056920000000  0.3888790000000 1.0
C      1  0.4910800000000  0.5855640000000  0.5852640000000 1.0
C      1  0.5587240000000  0.5937250000000  0.5054770000000 1.0
C      1  0.5732800000000  0.4734220000000  0.4155370000000 1.0
C      1  0.5530130000000  0.4215920000000  0.5468590000000 1.0
C      1  0.4432550000000  0.5148630000000  0.5241730000000 1.0
C      1  0.5714980000000  0.5223560000000  0.5659550000000 1.0
C      1  0.5567660000000  0.4495960000000  0.4166370000000 1.0
C      1  0.5266000000000  0.4213840000000  0.4532780000000 1.0
C      1  0.5476480000000  0.5746190000000  0.4574110000000 1.0
C      1  0.5270950000000  0.5965900000000  0.5483700000000 1.0
C      1  0.4482560000000  0.5265940000000  0.4986800000000 1.0
C      1  0.5994910000000  0.5313360000000  0.5608120000000 1.0
C      1  0.4003130000000  0.4829530000000  0.5489910000000 1.0
C      1  0.5185630000000  0.5857530000000  0.5736430000000 1.0
C      1  0.5286290000000  0.4715720000000  0.4681610000000 1.0
C      1  0.4913200000000  0.5223550000000  0.4084800000000 1.0
C      1  0.4308290000000  0.4474080000000  0.4560520000000 1.0
C      1  0.4881460000000  0.4784360000000  0.3956050000000 1.0
C      1  0.3842240000000  0.4850380000000  0.4970380000000 1.0
C      1  0.5632150000000  0.5520480000000  0.4718230000000 1.0
C      1  0.5062350000000  0.4064610000000  0.4685440000000 1.0
C      1  0.4971110000000  0.5602080000000  0.5984160000000 1.0
C      1  0.4460480000000  0.5427460000000  0.4079570000000 1.0
C      1  0.4514660000000  0.5879940000000  0.5492240000000 1.0
C      1  0.4859290000000  0.4730770000000  0.5994200000000 1.0
C      1  0.5639720000000  0.4640800000000  0.5238780000000 1.0
C      1  0.4021710000000  0.4795950000000  0.4463690000000 1.0
C      1  0.5967340000000  0.4720300000000  0.4330090000000 1.0
C      1  0.5671720000000  0.5670710000000  0.5519020000000 1.0
C      1  0.4623510000000  0.4907190000000  0.5986330000000 1.0
C      1  0.5042480000000  0.4973050000000  0.6029150000000 1.0
C      1  0.4161540000000  0.5252330000000  0.4410270000000 1.0
C      1  0.4589790000000  0.4302160000000  0.4850010000000 1.0
C      1  0.5352450000000  0.6073440000000  0.4955070000000 1.0
C      1  0.5017090000000  0.5109230000000  0.5616690000000 1.0
C      1  0.5918610000000  0.5531620000000  0.5425260000000 1.0
C      1  0.4212290000000  0.4613480000000  0.4327300000000 1.0
C      1  0.5385710000000  0.4633830000000  0.5119020000000 1.0
C      1  0.4604840000000  0.6109740000000  0.5040610000000 1.0
C      1  0.5274210000000  0.4526350000000  0.4127570000000 1.0
C      1  0.4256470000000  0.4927050000000  0.5182190000000 1.0
C      1  0.5508440000000  0.3958230000000  0.4869740000000 1.0
C      1  0.4704560000000  0.4594060000000  0.4094410000000 1.0
C      1  0.5487290000000  0.5074830000000  0.4435880000000 1.0
C      1  0.5288750000000  0.4689530000000  0.5590050000000 1.0
C      1  0.5140920000000  0.5523450000000  0.5418770000000 1.0
C      1  0.4159170000000  0.4998040000000  0.5676580000000 1.0
C      1  0.5564050000000  0.4104090000000  0.4495240000000 1.0
C      1  0.4629150000000  0.4259040000000  0.4447340000000 1.0
C      1  0.4997830000000  0.4461250000000  0.4942960000000 1.0
C      1  0.4646920000000  0.5023760000000  0.4448140000000 1.0
C      1  0.5658220000000  0.5248740000000  0.5155650000000 1.0
C      1  0.5514660000000  0.5981960000000  0.4763510000000 1.0
C      1  0.5266390000000  0.4924210000000  0.4479790000000 1.0
C      1  0.4352090000000  0.4951570000000  0.4064530000000 1.0
C      1  0.4490050000000  0.5528290000000  0.4857720000000 1.0
C      1  0.5322140000000  0.5041390000000  0.5949160000000 1.0
C      1  0.5373740000000  0.4868500000000  0.4944910000000 1.0
C      1  0.4740070000000  0.5661740000000  0.4930830000000 1.0
C      1  0.4832060000000  0.5761560000000  0.4361450000000 1.0
C      1  0.5785560000000  0.5356340000000  0.4274910000000 1.0
C      1  0.5464520000000  0.4528380000000  0.5932740000000 1.0
C      1  0.5138300000000  0.3944990000000  0.5224810000000 1.0
C      1  0.3998730000000  0.5229310000000  0.4658090000000 1.0
C      1  0.5361450000000  0.5298690000000  0.3991340000000 1.0
C      1  0.5583590000000  0.4988430000000  0.4167790000000 1.0
C      1  0.4824950000000  0.4373120000000  0.4258270000000 1.0
C      1  0.5006970000000  0.5992730000000  0.5301410000000 1.0
C      1  0.5933810000000  0.4516260000000  0.4742860000000 1.0
C      1  0.5788120000000  0.4831410000000  0.5066820000000 1.0
C      1  0.5191130000000  0.5382300000000  0.4981620000000 1.0
C      1  0.5184530000000  0.5076410000000  0.5074670000000 1.0
C      1  0.5941500000000  0.5357630000000  0.5191740000000 1.0
C      1  0.5625270000000  0.5031690000000  0.4935240000000 1.0
C      1  0.5102060000000  0.5117470000000  0.4531320000000 1.0
C      1  0.5569450000000  0.5132990000000  0.5412840000000 1.0
C      1  0.4193940000000  0.4101110000000  0.5024090000000 1.0
C      1  0.5170290000000  0.4773580000000  0.3994930000000 1.0
C      1  0.5216990000000  0.4120820000000  0.5727160000000 1.0
C      1  0.5371170000000  0.5333560000000  0.5865970000000 1.0
C      1  0.5750210000000  0.4801370000000  0.5723120000000 1.0
C      1  0.4366010000000  0.5944160000000  0.4454080000000 1.0
C      1  0.5387690000000  0.5683240000000  0.4255080000000 1.0
C      1  0.5093140000000  0.6014420000000  0.5019040000000 1.0
C      1  0.5005110000000  0.4637320000000  0.4736230000000 1.0
C      1  0.4640180000000  0.5323980000000  0.4518480000000 1.0
C      1  0.4223230000000  0.5626450000000  0.4819300000000 1.0
C      1  0.4423350000000  0.4673310000000  0.4115140000000 1.0
C      1  0.4580390000000  0.4476220000000  0.4622400000000 1.0
C      1  0.4697010000000  0.6079200000000  0.4768350000000 1.0
C      1  0.4635510000000  0.5812480000000  0.5757870000000 1.0
C      1  0.4744470000000  0.5429860000000  0.6039080000000 1.0
C      1  0.4534980000000  0.5573290000000  0.5890780000000 1.0
C      1  0.5518270000000  0.5872370000000  0.5380300000000 1.0
C      1  0.4753020000000  0.4075920000000  0.5575990000000 1.0
C      1  0.5593690000000  0.5472430000000  0.5741140000000 1.0
C      1  0.4520550000000  0.4656990000000  0.5640590000000 1.0
C      1  0.4384830000000  0.5379890000000  0.5725990000000 1.0
C      1  0.4659160000000  0.4439350000000  0.5326000000000 1.0
C      1  0.4345980000000  0.5034070000000  0.4344370000000 1.0
C      1  0.5422220000000  0.4434680000000  0.4737050000000 1.0
C      1  0.6125450000000  0.5072030000000  0.5503950000000 1.0
C      1  0.6119790000000  0.5125140000000  0.5214160000000 1.0
C      1  0.4217310000000  0.5479850000000  0.4233480000000 1.0
C      1  0.4515770000000  0.5233980000000  0.5510060000000 1.0
C      1  0.5532440000000  0.4818780000000  0.5931460000000 1.0
C      1  0.5124130000000  0.4885100000000  0.5478480000000 1.0
C      1  0.5358210000000  0.5003510000000  0.3981610000000 1.0
C      1  0.5110130000000  0.5448680000000  0.4029580000000 1.0
C      1  0.4184980000000  0.5749390000000  0.4340090000000 1.0
C      1  0.3961400000000  0.5007190000000  0.5201640000000 1.0
C      1  0.4947270000000  0.5603530000000  0.4595050000000 1.0
C      1  0.5655880000000  0.5216150000000  0.4649550000000 1.0
C      1  0.4924070000000  0.5051260000000  0.4322300000000 1.0
C      1  0.5955930000000  0.4404860000000  0.5377840000000 1.0
C      1  0.5219510000000  0.5628970000000  0.4656640000000 1.0
C      1  0.4733340000000  0.4953930000000  0.4872710000000 1.0
C      1  0.4027930000000  0.5315490000000  0.5163420000000 1.0
C      1  0.4317230000000  0.3965090000000  0.4809430000000 1.0
C      1  0.4466520000000  0.5023290000000  0.4834110000000 1.0
C      1  0.4128320000000  0.5292940000000  0.5628820000000 1.0
C      1  0.5110080000000  0.4355310000000  0.4286620000000 1.0
C      1  0.4759460000000  0.4358550000000  0.5068890000000 1.0
C      1  0.6037120000000  0.4937260000000  0.4511890000000 1.0
C      1  0.5712410000000  0.4366900000000  0.4875080000000 1.0
END
