TITL C-4164243-3780-307 10.206317467756 125000 -29418.642081858 0 0 196 (C1) n - 1
REM
REM in /home/nfs/bkarasulu/CARBON/AIRSS/Generating-Clusters/ReaxFF-fromJPCA2015/Units_Real/with-SteepDescent/Only-C1/SD-CG/Try1-3A/FIRE-CG
REM
REM
REM
REM
REM
REM ./C.cell (11c1c37f851c82e70ff6c80c92926a4b)
REM
REM compiler GCC version 9.2.1 20190827 (Red Hat 9.2.1-1)
REM options -cpp -mtune=generic -march=x86-64 -g -O0 -fpre-include=/usr/include/finclude/math-vector-fortran.h
REM seed 58278132 1970856108 1235865555 1273437698 267174474 -1733186945 1688878052 -300129979 -1143048150 -277094327 1134090829 -200979956 1677461089 -1449190671 1145159197 1202862633 162480329 489434514 -525456402 -714500761 156405685 -1032662327 -1810410305 1752869555 -1856669887 364514058 1684458911 1575026183 745885498 -108766009 -1854553657 -1496203320 -1183764479
REM
CELL 1.54180   50.00000   50.00000   50.00000   90.00000   90.00000   90.00000
LATT -1
SFAC C  
C      1  0.4955970000000  0.5037450000000  0.5719360000000 1.0
C      1  0.4397250000000  0.4199820000000  0.4844290000000 1.0
C      1  0.3848470000000  0.5138860000000  0.5418190000000 1.0
C      1  0.5016950000000  0.5637510000000  0.5118650000000 1.0
C      1  0.4047540000000  0.4688950000000  0.5226280000000 1.0
C      1  0.5728610000000  0.4385710000000  0.4643240000000 1.0
C      1  0.5650090000000  0.5383550000000  0.5069160000000 1.0
C      1  0.4741980000000  0.4034260000000  0.4604350000000 1.0
C      1  0.4940730000000  0.6122840000000  0.5121260000000 1.0
C      1  0.4159570000000  0.4575790000000  0.5653730000000 1.0
C      1  0.4956120000000  0.5011120000000  0.6198630000000 1.0
C      1  0.4490290000000  0.4345650000000  0.5961790000000 1.0
C      1  0.5684970000000  0.4925660000000  0.4911510000000 1.0
C      1  0.4944600000000  0.5330210000000  0.5668910000000 1.0
C      1  0.5172320000000  0.5980360000000  0.4410530000000 1.0
C      1  0.5159770000000  0.4503400000000  0.4989260000000 1.0
C      1  0.4289600000000  0.4815200000000  0.5964220000000 1.0
C      1  0.5300900000000  0.4847410000000  0.5424460000000 1.0
C      1  0.4590140000000  0.4460530000000  0.4373120000000 1.0
C      1  0.4639550000000  0.6176930000000  0.5168930000000 1.0
C      1  0.5368820000000  0.5856940000000  0.4260440000000 1.0
C      1  0.4761860000000  0.4797660000000  0.5259540000000 1.0
C      1  0.4686360000000  0.4522320000000  0.6070880000000 1.0
C      1  0.5784410000000  0.4351740000000  0.4935030000000 1.0
C      1  0.5918490000000  0.4685070000000  0.4223110000000 1.0
C      1  0.5576970000000  0.4209270000000  0.5108610000000 1.0
C      1  0.5352420000000  0.5133370000000  0.4708900000000 1.0
C      1  0.6114660000000  0.5299490000000  0.4751480000000 1.0
C      1  0.4167240000000  0.4402910000000  0.4335360000000 1.0
C      1  0.4726000000000  0.5018550000000  0.5999890000000 1.0
C      1  0.4315510000000  0.5756980000000  0.5450150000000 1.0
C      1  0.6037640000000  0.4957400000000  0.4335540000000 1.0
C      1  0.5273860000000  0.5007130000000  0.4256300000000 1.0
C      1  0.4473980000000  0.4605220000000  0.4146980000000 1.0
C      1  0.5220670000000  0.6083880000000  0.5280390000000 1.0
C      1  0.5043610000000  0.3950770000000  0.5217430000000 1.0
C      1  0.4468860000000  0.4509910000000  0.5512690000000 1.0
C      1  0.5922130000000  0.4224510000000  0.5482290000000 1.0
C      1  0.5251650000000  0.5542810000000  0.5241520000000 1.0
C      1  0.3926230000000  0.5035080000000  0.4496470000000 1.0
C      1  0.5396860000000  0.5642170000000  0.4794530000000 1.0
C      1  0.5453500000000  0.5577590000000  0.5062880000000 1.0
C      1  0.5123240000000  0.4231390000000  0.5883670000000 1.0
C      1  0.4774080000000  0.5636370000000  0.4969350000000 1.0
C      1  0.5216760000000  0.5418630000000  0.6055930000000 1.0
C      1  0.5605880000000  0.5815980000000  0.4696290000000 1.0
C      1  0.4454570000000  0.4026130000000  0.4614180000000 1.0
C      1  0.4656880000000  0.5074850000000  0.4433800000000 1.0
C      1  0.4777890000000  0.5261810000000  0.3984370000000 1.0
C      1  0.5570610000000  0.5463320000000  0.4003810000000 1.0
C      1  0.5850070000000  0.5160260000000  0.5437510000000 1.0
C      1  0.5845340000000  0.5161270000000  0.5737560000000 1.0
C      1  0.5400150000000  0.3946380000000  0.5028120000000 1.0
C      1  0.5543090000000  0.4479670000000  0.5742590000000 1.0
C      1  0.5114300000000  0.4791030000000  0.6100180000000 1.0
C      1  0.3941410000000  0.4592250000000  0.4968420000000 1.0
C      1  0.4787260000000  0.5310710000000  0.4532560000000 1.0
C      1  0.5912120000000  0.5783350000000  0.5236290000000 1.0
C      1  0.4283900000000  0.4881140000000  0.5251980000000 1.0
C      1  0.5508180000000  0.4988650000000  0.4092330000000 1.0
C      1  0.5539500000000  0.4200160000000  0.4451320000000 1.0
C      1  0.5658410000000  0.5932620000000  0.5323250000000 1.0
C      1  0.5058660000000  0.5824360000000  0.5728670000000 1.0
C      1  0.4928380000000  0.4503230000000  0.5175380000000 1.0
C      1  0.4006480000000  0.4319730000000  0.5046250000000 1.0
C      1  0.5151780000000  0.4097560000000  0.4334510000000 1.0
C      1  0.4311600000000  0.5337730000000  0.5858980000000 1.0
C      1  0.4168820000000  0.5078550000000  0.5505820000000 1.0
C      1  0.5180920000000  0.5257430000000  0.4882150000000 1.0
C      1  0.4891650000000  0.4712680000000  0.3870340000000 1.0
C      1  0.4553520000000  0.5293710000000  0.6030600000000 1.0
C      1  0.5499610000000  0.4567290000000  0.4659310000000 1.0
C      1  0.4637230000000  0.5311970000000  0.4762690000000 1.0
C      1  0.5199730000000  0.3982380000000  0.4825240000000 1.0
C      1  0.4744890000000  0.4205490000000  0.4355450000000 1.0
C      1  0.4567980000000  0.5262910000000  0.3811650000000 1.0
C      1  0.5320390000000  0.4359460000000  0.5164490000000 1.0
C      1  0.5020180000000  0.4693500000000  0.4555640000000 1.0
C      1  0.6067750000000  0.4438590000000  0.5331740000000 1.0
C      1  0.4257560000000  0.4517830000000  0.5912310000000 1.0
C      1  0.5692960000000  0.5232430000000  0.4112220000000 1.0
C      1  0.5107420000000  0.5524910000000  0.3943300000000 1.0
C      1  0.4635160000000  0.4819860000000  0.4002390000000 1.0
C      1  0.4985830000000  0.4093140000000  0.5460770000000 1.0
C      1  0.3983420000000  0.5377000000000  0.4949450000000 1.0
C      1  0.4773020000000  0.5823190000000  0.5687370000000 1.0
C      1  0.5064380000000  0.5407020000000  0.4497990000000 1.0
C      1  0.5609670000000  0.5267410000000  0.5337760000000 1.0
C      1  0.5383990000000  0.4203750000000  0.5765520000000 1.0
C      1  0.5309750000000  0.3881180000000  0.5299980000000 1.0
C      1  0.5465340000000  0.6056590000000  0.5134740000000 1.0
C      1  0.4616550000000  0.5729840000000  0.5436730000000 1.0
C      1  0.4291280000000  0.5423810000000  0.4294400000000 1.0
C      1  0.4689230000000  0.4620950000000  0.4614250000000 1.0
C      1  0.6151130000000  0.5035440000000  0.4732250000000 1.0
C      1  0.4511920000000  0.4737900000000  0.5358460000000 1.0
C      1  0.5048510000000  0.4921970000000  0.3739790000000 1.0
C      1  0.5520840000000  0.4733610000000  0.3931430000000 1.0
C      1  0.6065000000000  0.4611610000000  0.5588360000000 1.0
C      1  0.4730350000000  0.4984650000000  0.5043580000000 1.0
C      1  0.5040800000000  0.4813950000000  0.4285080000000 1.0
C      1  0.5953410000000  0.4570990000000  0.4489450000000 1.0
C      1  0.4509350000000  0.5994870000000  0.4738160000000 1.0
C      1  0.4119510000000  0.4721180000000  0.4764020000000 1.0
C      1  0.6141000000000  0.4811010000000  0.4569700000000 1.0
C      1  0.4910410000000  0.4049250000000  0.4858560000000 1.0
C      1  0.4239830000000  0.5534680000000  0.5637480000000 1.0
C      1  0.5907090000000  0.4838370000000  0.5070440000000 1.0
C      1  0.4886710000000  0.4517660000000  0.5705960000000 1.0
C      1  0.5205420000000  0.5169510000000  0.3732430000000 1.0
C      1  0.4288780000000  0.5340710000000  0.5434900000000 1.0
C      1  0.4460000000000  0.5665550000000  0.4327830000000 1.0
C      1  0.5946030000000  0.5420650000000  0.4528140000000 1.0
C      1  0.4097540000000  0.4948840000000  0.4273720000000 1.0
C      1  0.4144510000000  0.5438960000000  0.4537250000000 1.0
C      1  0.4464180000000  0.3948530000000  0.5551630000000 1.0
C      1  0.5901170000000  0.5222750000000  0.4323140000000 1.0
C      1  0.4056930000000  0.4478200000000  0.5411810000000 1.0
C      1  0.4562360000000  0.5412440000000  0.5336160000000 1.0
C      1  0.4069740000000  0.5218120000000  0.4697030000000 1.0
C      1  0.4292920000000  0.4333730000000  0.5361420000000 1.0
C      1  0.4591140000000  0.4421130000000  0.4847440000000 1.0
C      1  0.4877310000000  0.5933890000000  0.4394540000000 1.0
C      1  0.4291060000000  0.4039370000000  0.5362010000000 1.0
C      1  0.4819040000000  0.5813040000000  0.5189220000000 1.0
C      1  0.4244670000000  0.4143680000000  0.4415960000000 1.0
C      1  0.4369180000000  0.5818530000000  0.4561710000000 1.0
C      1  0.5017940000000  0.5299630000000  0.6243920000000 1.0
C      1  0.4258740000000  0.5162870000000  0.4157380000000 1.0
C      1  0.5281280000000  0.5224900000000  0.4449850000000 1.0
C      1  0.4547040000000  0.4879340000000  0.4599460000000 1.0
C      1  0.5351580000000  0.4581460000000  0.5524390000000 1.0
C      1  0.4578910000000  0.5421960000000  0.5005560000000 1.0
C      1  0.4416960000000  0.5060810000000  0.3929520000000 1.0
C      1  0.3910420000000  0.4780860000000  0.4609290000000 1.0
C      1  0.5682610000000  0.4094330000000  0.5384800000000 1.0
C      1  0.5842260000000  0.5701700000000  0.4531920000000 1.0
C      1  0.4234350000000  0.5064930000000  0.5800240000000 1.0
C      1  0.5419270000000  0.4417890000000  0.4299170000000 1.0
C      1  0.4319920000000  0.4967320000000  0.4766250000000 1.0
C      1  0.4438030000000  0.6020650000000  0.5031150000000 1.0
C      1  0.4799190000000  0.4297450000000  0.4998050000000 1.0
C      1  0.4980730000000  0.4259620000000  0.4187250000000 1.0
C      1  0.5473330000000  0.4772430000000  0.4806970000000 1.0
C      1  0.4445270000000  0.5023230000000  0.5030360000000 1.0
C      1  0.5389680000000  0.5407460000000  0.5461640000000 1.0
C      1  0.4252350000000  0.5810620000000  0.5166470000000 1.0
C      1  0.5589510000000  0.4728150000000  0.5921910000000 1.0
C      1  0.5525510000000  0.5564070000000  0.5664160000000 1.0
C      1  0.6023550000000  0.5065150000000  0.5217250000000 1.0
C      1  0.5352140000000  0.4508570000000  0.4024240000000 1.0
C      1  0.4725980000000  0.5739040000000  0.4245250000000 1.0
C      1  0.5074220000000  0.5538020000000  0.5818860000000 1.0
C      1  0.5943580000000  0.5534350000000  0.5097430000000 1.0
C      1  0.5215140000000  0.4937160000000  0.5685650000000 1.0
C      1  0.5052830000000  0.4547020000000  0.4057930000000 1.0
C      1  0.5333830000000  0.5421620000000  0.3821550000000 1.0
C      1  0.5530030000000  0.5846800000000  0.5571790000000 1.0
C      1  0.5257070000000  0.4528470000000  0.4522090000000 1.0
C      1  0.4191800000000  0.4106500000000  0.5045390000000 1.0
C      1  0.4769150000000  0.5277930000000  0.5458290000000 1.0
C      1  0.5940780000000  0.4543230000000  0.5084250000000 1.0
C      1  0.4994460000000  0.5109120000000  0.5057870000000 1.0
C      1  0.4995000000000  0.4532430000000  0.5987160000000 1.0
C      1  0.5328730000000  0.4023300000000  0.4540820000000 1.0
C      1  0.4629770000000  0.4147420000000  0.5756600000000 1.0
C      1  0.5238690000000  0.6096780000000  0.4688600000000 1.0
C      1  0.4773990000000  0.6057810000000  0.4639480000000 1.0
C      1  0.4197900000000  0.4662800000000  0.4226000000000 1.0
C      1  0.4864420000000  0.5552630000000  0.4046340000000 1.0
C      1  0.4989550000000  0.6138410000000  0.4819730000000 1.0
C      1  0.5577660000000  0.5182910000000  0.4857770000000 1.0
C      1  0.6111810000000  0.5296930000000  0.5055450000000 1.0
C      1  0.5457090000000  0.4025520000000  0.5544620000000 1.0
C      1  0.5641730000000  0.5360290000000  0.5849900000000 1.0
C      1  0.4704110000000  0.4404300000000  0.5625500000000 1.0
C      1  0.4928660000000  0.4066000000000  0.5745850000000 1.0
C      1  0.4555830000000  0.4785210000000  0.6071930000000 1.0
C      1  0.5858440000000  0.4420590000000  0.5692650000000 1.0
C      1  0.4784000000000  0.5002720000000  0.4193160000000 1.0
C      1  0.5206790000000  0.4770020000000  0.4895750000000 1.0
C      1  0.5345880000000  0.4920340000000  0.5956160000000 1.0
C      1  0.4164870000000  0.5671140000000  0.4690450000000 1.0
C      1  0.5183150000000  0.4911640000000  0.5156960000000 1.0
C      1  0.5742460000000  0.4927090000000  0.5831500000000 1.0
C      1  0.5486940000000  0.6047970000000  0.4832200000000 1.0
C      1  0.5849890000000  0.5816900000000  0.4262500000000 1.0
C      1  0.5264040000000  0.5961600000000  0.5535760000000 1.0
C      1  0.5142580000000  0.4390340000000  0.5405610000000 1.0
C      1  0.5135210000000  0.5521190000000  0.4752680000000 1.0
C      1  0.4754050000000  0.5383730000000  0.6184950000000 1.0
C      1  0.4786750000000  0.4999430000000  0.5488020000000 1.0
C      1  0.5582690000000  0.5739370000000  0.4126220000000 1.0
C      1  0.3902440000000  0.5255720000000  0.5176430000000 1.0
C      1  0.5431770000000  0.5238070000000  0.6001430000000 1.0
C      1  0.4109860000000  0.5646540000000  0.4973340000000 1.0
END
