TITL C-4164244-2836-486 112.121750728356 125000 -23440.059925631 0 0 159 (C1) n - 1
REM
REM in /home/nfs/bkarasulu/CARBON/AIRSS/Generating-Clusters/ReaxFF-fromJPCA2015/Units_Real/with-SteepDescent/Only-C1/SD-CG/Try1-3A/FIRE-CG
REM
REM
REM
REM
REM
REM ./C.cell (11c1c37f851c82e70ff6c80c92926a4b)
REM
REM compiler GCC version 9.2.1 20190827 (Red Hat 9.2.1-1)
REM options -cpp -mtune=generic -march=x86-64 -g -O0 -fpre-include=/usr/include/finclude/math-vector-fortran.h
REM seed -2001212100 -1218051239 -1792586491 921474881 1901204030 696934922 47507975 468048605 -1796883570 -707654557 757647569 872591641 -143530504 -766008239 -785950135 -1311041744 244308996 141645600 -748646308 1547187074 -98079349 714116992 755349083 -428178087 -889625221 7316578 763376255 437363194 966370996 1382237110 114544019 1606369388 882101057
REM
CELL 1.54180   50.00000   50.00000   50.00000   90.00000   90.00000   90.00000
LATT -1
SFAC C  
C      1  0.4646080000000  0.5996660000000  0.5235460000000 1.0
C      1  0.4277280000000  0.5005000000000  0.5633030000000 1.0
C      1  0.5379570000000  0.4613720000000  0.4163550000000 1.0
C      1  0.5070730000000  0.5957910000000  0.5570930000000 1.0
C      1  0.3962180000000  0.5263310000000  0.5011410000000 1.0
C      1  0.4764300000000  0.4606460000000  0.3982440000000 1.0
C      1  0.5362590000000  0.4418060000000  0.5611750000000 1.0
C      1  0.4932070000000  0.5431460000000  0.4816020000000 1.0
C      1  0.5505850000000  0.5690480000000  0.5508210000000 1.0
C      1  0.4447400000000  0.5780840000000  0.4528360000000 1.0
C      1  0.4656970000000  0.4585830000000  0.5295140000000 1.0
C      1  0.5313230000000  0.5000090000000  0.5516300000000 1.0
C      1  0.5705400000000  0.4214360000000  0.5349850000000 1.0
C      1  0.4333830000000  0.5528720000000  0.4954830000000 1.0
C      1  0.5762910000000  0.4821800000000  0.5700510000000 1.0
C      1  0.4526020000000  0.3961250000000  0.5307750000000 1.0
C      1  0.4215520000000  0.5008510000000  0.4222240000000 1.0
C      1  0.3948520000000  0.5078280000000  0.5236820000000 1.0
C      1  0.4726630000000  0.5789010000000  0.5737680000000 1.0
C      1  0.4523140000000  0.4670990000000  0.4914200000000 1.0
C      1  0.5652740000000  0.4014320000000  0.4996810000000 1.0
C      1  0.4082120000000  0.4900620000000  0.4677400000000 1.0
C      1  0.5000190000000  0.4406400000000  0.5090940000000 1.0
C      1  0.5228900000000  0.6000730000000  0.4686660000000 1.0
C      1  0.4893870000000  0.4910100000000  0.5610560000000 1.0
C      1  0.6069230000000  0.4825570000000  0.4717600000000 1.0
C      1  0.4835240000000  0.5422550000000  0.4091940000000 1.0
C      1  0.5010010000000  0.5035670000000  0.6095490000000 1.0
C      1  0.5487570000000  0.5921960000000  0.4734720000000 1.0
C      1  0.4107270000000  0.5489590000000  0.4569010000000 1.0
C      1  0.5502830000000  0.4432820000000  0.4342190000000 1.0
C      1  0.6030230000000  0.4406350000000  0.5012770000000 1.0
C      1  0.4783890000000  0.5970560000000  0.5513150000000 1.0
C      1  0.5229850000000  0.4034480000000  0.5307350000000 1.0
C      1  0.4845180000000  0.5790560000000  0.4440550000000 1.0
C      1  0.5062390000000  0.4595100000000  0.5864770000000 1.0
C      1  0.5583060000000  0.4488980000000  0.5390610000000 1.0
C      1  0.5205670000000  0.4810370000000  0.4311590000000 1.0
C      1  0.4450610000000  0.4574670000000  0.4430900000000 1.0
C      1  0.5840270000000  0.5347630000000  0.5327740000000 1.0
C      1  0.4366730000000  0.5999340000000  0.5206240000000 1.0
C      1  0.5066680000000  0.4796710000000  0.5154260000000 1.0
C      1  0.4083160000000  0.5216860000000  0.4743950000000 1.0
C      1  0.5626800000000  0.5640770000000  0.5008140000000 1.0
C      1  0.5428730000000  0.5073440000000  0.3962920000000 1.0
C      1  0.4974530000000  0.4695400000000  0.4678840000000 1.0
C      1  0.5449970000000  0.4646490000000  0.5120200000000 1.0
C      1  0.4193770000000  0.5434090000000  0.5406300000000 1.0
C      1  0.4614760000000  0.4788250000000  0.5903150000000 1.0
C      1  0.5240620000000  0.5786360000000  0.5404650000000 1.0
C      1  0.4401040000000  0.5283850000000  0.4794160000000 1.0
C      1  0.5141610000000  0.5879130000000  0.4416220000000 1.0
C      1  0.4606690000000  0.4321550000000  0.5627930000000 1.0
C      1  0.5952560000000  0.4830370000000  0.5238480000000 1.0
C      1  0.5357760000000  0.5009090000000  0.4456500000000 1.0
C      1  0.5637140000000  0.5277300000000  0.5562100000000 1.0
C      1  0.5019490000000  0.3964080000000  0.5112000000000 1.0
C      1  0.5506500000000  0.4784100000000  0.3939840000000 1.0
C      1  0.5104600000000  0.5623990000000  0.4950480000000 1.0
C      1  0.4512400000000  0.5055330000000  0.5842170000000 1.0
C      1  0.4081810000000  0.5179920000000  0.5474370000000 1.0
C      1  0.5631290000000  0.5563010000000  0.4529300000000 1.0
C      1  0.5280760000000  0.4441660000000  0.4960000000000 1.0
C      1  0.4182750000000  0.5770870000000  0.4641650000000 1.0
C      1  0.5302100000000  0.4951730000000  0.5228700000000 1.0
C      1  0.4886470000000  0.4777370000000  0.6017440000000 1.0
C      1  0.5821060000000  0.4675890000000  0.5454580000000 1.0
C      1  0.5614410000000  0.4747520000000  0.4904880000000 1.0
C      1  0.6210550000000  0.5089800000000  0.4704750000000 1.0
C      1  0.5014450000000  0.5788060000000  0.5816300000000 1.0
C      1  0.4867320000000  0.5682660000000  0.4180720000000 1.0
C      1  0.5559410000000  0.5518770000000  0.4242190000000 1.0
C      1  0.5140750000000  0.5507920000000  0.5415680000000 1.0
C      1  0.5848660000000  0.4785980000000  0.4533110000000 1.0
C      1  0.4050040000000  0.4629560000000  0.5414180000000 1.0
C      1  0.4954330000000  0.5327790000000  0.5281590000000 1.0
C      1  0.4802280000000  0.3993490000000  0.5333150000000 1.0
C      1  0.4434780000000  0.4431410000000  0.5250480000000 1.0
C      1  0.4753080000000  0.4200050000000  0.4749570000000 1.0
C      1  0.4589510000000  0.5282040000000  0.4012790000000 1.0
C      1  0.5052690000000  0.4550110000000  0.5329730000000 1.0
C      1  0.5415410000000  0.5425800000000  0.5428000000000 1.0
C      1  0.4916780000000  0.4395880000000  0.4092500000000 1.0
C      1  0.5035690000000  0.4287710000000  0.4258080000000 1.0
C      1  0.5758690000000  0.5173590000000  0.4676110000000 1.0
C      1  0.4350290000000  0.5280570000000  0.4187240000000 1.0
C      1  0.5369070000000  0.5479040000000  0.4947900000000 1.0
C      1  0.4566890000000  0.5056360000000  0.4613060000000 1.0
C      1  0.4939730000000  0.4620310000000  0.5591910000000 1.0
C      1  0.5566080000000  0.4307260000000  0.4580390000000 1.0
C      1  0.4537450000000  0.4277950000000  0.4553810000000 1.0
C      1  0.5699530000000  0.4577780000000  0.4671700000000 1.0
C      1  0.5667050000000  0.5045080000000  0.4418440000000 1.0
C      1  0.3965760000000  0.4788980000000  0.5171360000000 1.0
C      1  0.4588700000000  0.5527200000000  0.5706870000000 1.0
C      1  0.4298630000000  0.5490310000000  0.4363570000000 1.0
C      1  0.4106080000000  0.5484830000000  0.5129370000000 1.0
C      1  0.4238240000000  0.4687760000000  0.5629610000000 1.0
C      1  0.4989860000000  0.5277140000000  0.5886970000000 1.0
C      1  0.4384520000000  0.4849110000000  0.4046670000000 1.0
C      1  0.5279350000000  0.5033920000000  0.6083950000000 1.0
C      1  0.5058370000000  0.5909720000000  0.4919420000000 1.0
C      1  0.4458180000000  0.4937090000000  0.5391110000000 1.0
C      1  0.5144270000000  0.4999100000000  0.3919520000000 1.0
C      1  0.4326470000000  0.5820700000000  0.4926770000000 1.0
C      1  0.5331250000000  0.5708490000000  0.4271710000000 1.0
C      1  0.4258370000000  0.4483580000000  0.4964600000000 1.0
C      1  0.5439060000000  0.5557140000000  0.5811540000000 1.0
C      1  0.4802270000000  0.4822540000000  0.5220440000000 1.0
C      1  0.4545140000000  0.5180640000000  0.5035990000000 1.0
C      1  0.4932900000000  0.5306460000000  0.4380040000000 1.0
C      1  0.4419270000000  0.4193030000000  0.5428370000000 1.0
C      1  0.4978670000000  0.4883600000000  0.4885720000000 1.0
C      1  0.4673870000000  0.5289160000000  0.5850220000000 1.0
C      1  0.5247230000000  0.4057220000000  0.4677190000000 1.0
C      1  0.4865860000000  0.4192020000000  0.5552870000000 1.0
C      1  0.5569080000000  0.4791410000000  0.5914860000000 1.0
C      1  0.4738190000000  0.5021800000000  0.5408590000000 1.0
C      1  0.4492770000000  0.4570660000000  0.5740170000000 1.0
C      1  0.5161360000000  0.5548000000000  0.5884940000000 1.0
C      1  0.5584310000000  0.5229580000000  0.4173710000000 1.0
C      1  0.5518470000000  0.4006010000000  0.5256930000000 1.0
C      1  0.4349790000000  0.4318260000000  0.4745790000000 1.0
C      1  0.5595340000000  0.5331250000000  0.5867570000000 1.0
C      1  0.5539400000000  0.5077650000000  0.6019800000000 1.0
C      1  0.5710670000000  0.5761110000000  0.4745240000000 1.0
C      1  0.4939510000000  0.4807230000000  0.4425070000000 1.0
C      1  0.5710670000000  0.5030740000000  0.4924290000000 1.0
C      1  0.4994780000000  0.4022260000000  0.4830110000000 1.0
C      1  0.4776270000000  0.5966430000000  0.4957410000000 1.0
C      1  0.6065910000000  0.4692240000000  0.4999400000000 1.0
C      1  0.4445740000000  0.4911170000000  0.5100420000000 1.0
C      1  0.5737780000000  0.5609530000000  0.5275470000000 1.0
C      1  0.4772740000000  0.4439730000000  0.4910530000000 1.0
C      1  0.6024200000000  0.5321770000000  0.4666750000000 1.0
C      1  0.5867050000000  0.5106130000000  0.5164980000000 1.0
C      1  0.5596540000000  0.5002530000000  0.5537940000000 1.0
C      1  0.4513970000000  0.4608110000000  0.4139860000000 1.0
C      1  0.5099960000000  0.5091590000000  0.5678120000000 1.0
C      1  0.5157530000000  0.4218030000000  0.5534610000000 1.0
C      1  0.5043790000000  0.5163460000000  0.4862980000000 1.0
C      1  0.5195210000000  0.5209160000000  0.5102620000000 1.0
C      1  0.4668110000000  0.5375650000000  0.5229030000000 1.0
C      1  0.4882430000000  0.4882290000000  0.3896870000000 1.0
C      1  0.4486580000000  0.5476980000000  0.5434600000000 1.0
C      1  0.4059610000000  0.4720480000000  0.4905430000000 1.0
C      1  0.5176460000000  0.4504150000000  0.4690950000000 1.0
C      1  0.4552070000000  0.4773150000000  0.4644860000000 1.0
C      1  0.4568810000000  0.5908960000000  0.4757580000000 1.0
C      1  0.5881650000000  0.4167900000000  0.5113780000000 1.0
C      1  0.5464860000000  0.4164680000000  0.4824180000000 1.0
C      1  0.5228280000000  0.5262180000000  0.4486800000000 1.0
C      1  0.4785800000000  0.5052380000000  0.4448360000000 1.0
C      1  0.4829990000000  0.5516440000000  0.4560020000000 1.0
C      1  0.5398290000000  0.5436150000000  0.4645100000000 1.0
C      1  0.4620520000000  0.5008340000000  0.3926630000000 1.0
C      1  0.5161620000000  0.4281640000000  0.4510300000000 1.0
C      1  0.5357530000000  0.4589060000000  0.5841830000000 1.0
C      1  0.4196000000000  0.4812800000000  0.4429620000000 1.0
END
