TITL C-4164235-1454-342 -11.2451710089014 125000 -17594.2570730801 0 0 118 (C1) n - 1
REM
REM in /home/nfs/bkarasulu/CARBON/AIRSS/Generating-Clusters/ReaxFF-fromJPCA2015/Units_Real/with-SteepDescent/Only-C1/SD-CG/Try1-3A/FIRE-CG
REM
REM
REM
REM
REM
REM ./C.cell (11c1c37f851c82e70ff6c80c92926a4b)
REM
REM compiler GCC version 9.2.1 20190827 (Red Hat 9.2.1-1)
REM options -cpp -mtune=generic -march=x86-64 -g -O0 -fpre-include=/usr/include/finclude/math-vector-fortran.h
REM seed -15220970 1913276708 -529517490 694649618 445048735 -236920003 70565303 2048330497 -1273223578 -737449503 -1356564245 -1872330511 -1522331874 -388821164 1410948450 -1335405869 1164125205 1254375052 -1783776250 3349335 1510769355 2105503097 -853529881 -1689163276 1358147579 1394561086 -1372764753 1333272425 -1935420463 379343964 1916543485 1108021708 -292070417
REM
CELL 1.54180   50.00000   50.00000   50.00000   90.00000   90.00000   90.00000
LATT -1
SFAC C  
C      1  0.5466900000000  0.4434090000000  0.5281310000000 1.0
C      1  0.5192030000000  0.5199850000000  0.5239300000000 1.0
C      1  0.4347040000000  0.5147360000000  0.5237660000000 1.0
C      1  0.4821380000000  0.5556460000000  0.4786900000000 1.0
C      1  0.4284940000000  0.4966480000000  0.4406920000000 1.0
C      1  0.5171190000000  0.5378090000000  0.5027260000000 1.0
C      1  0.5342870000000  0.5831620000000  0.5170520000000 1.0
C      1  0.4805690000000  0.4663780000000  0.4945160000000 1.0
C      1  0.5499620000000  0.4378440000000  0.5578650000000 1.0
C      1  0.5656600000000  0.5103490000000  0.5650440000000 1.0
C      1  0.4756760000000  0.5383560000000  0.5203560000000 1.0
C      1  0.5411440000000  0.4548760000000  0.4349440000000 1.0
C      1  0.5352210000000  0.4109320000000  0.4652750000000 1.0
C      1  0.5097210000000  0.4131650000000  0.4559870000000 1.0
C      1  0.4520910000000  0.4609830000000  0.5708010000000 1.0
C      1  0.4554780000000  0.4744060000000  0.4025070000000 1.0
C      1  0.4298250000000  0.5475630000000  0.4470610000000 1.0
C      1  0.4564280000000  0.4985580000000  0.5127960000000 1.0
C      1  0.5847900000000  0.4891470000000  0.4625290000000 1.0
C      1  0.4609950000000  0.4732510000000  0.4474790000000 1.0
C      1  0.4618820000000  0.5878360000000  0.5095500000000 1.0
C      1  0.5886770000000  0.5141750000000  0.5152490000000 1.0
C      1  0.4361480000000  0.5635310000000  0.4715990000000 1.0
C      1  0.4751650000000  0.4113680000000  0.5246730000000 1.0
C      1  0.4455490000000  0.5425330000000  0.5194520000000 1.0
C      1  0.4521510000000  0.5736530000000  0.5321450000000 1.0
C      1  0.4965800000000  0.5806400000000  0.5620650000000 1.0
C      1  0.4707810000000  0.5267740000000  0.5853950000000 1.0
C      1  0.4599940000000  0.4744280000000  0.4763750000000 1.0
C      1  0.4134580000000  0.5236550000000  0.4837220000000 1.0
C      1  0.4113900000000  0.4626790000000  0.4786210000000 1.0
C      1  0.5531370000000  0.5004720000000  0.4263930000000 1.0
C      1  0.5052450000000  0.4855110000000  0.4347930000000 1.0
C      1  0.4803610000000  0.4811600000000  0.5942380000000 1.0
C      1  0.5577530000000  0.5587670000000  0.4804570000000 1.0
C      1  0.5265810000000  0.4425580000000  0.5746940000000 1.0
C      1  0.5259190000000  0.4912340000000  0.5087320000000 1.0
C      1  0.4972810000000  0.5266830000000  0.5969450000000 1.0
C      1  0.4285770000000  0.5468300000000  0.4927790000000 1.0
C      1  0.5287010000000  0.4705010000000  0.5289160000000 1.0
C      1  0.5293610000000  0.4935860000000  0.5960220000000 1.0
C      1  0.5741180000000  0.4470920000000  0.4742740000000 1.0
C      1  0.5590240000000  0.5811290000000  0.5007800000000 1.0
C      1  0.4854920000000  0.4630500000000  0.4340100000000 1.0
C      1  0.5890890000000  0.4881650000000  0.5042250000000 1.0
C      1  0.4190960000000  0.5207450000000  0.4548500000000 1.0
C      1  0.4392130000000  0.4566530000000  0.4386720000000 1.0
C      1  0.5706940000000  0.4832010000000  0.5616740000000 1.0
C      1  0.5214990000000  0.5378530000000  0.5829630000000 1.0
C      1  0.4914650000000  0.5354940000000  0.4606560000000 1.0
C      1  0.4514470000000  0.4242070000000  0.4793070000000 1.0
C      1  0.4128020000000  0.5051000000000  0.5067850000000 1.0
C      1  0.5858000000000  0.4621650000000  0.4510230000000 1.0
C      1  0.5412590000000  0.5346010000000  0.4878350000000 1.0
C      1  0.5454210000000  0.4212410000000  0.5041060000000 1.0
C      1  0.4464840000000  0.4489980000000  0.5229120000000 1.0
C      1  0.5742620000000  0.4560850000000  0.5568750000000 1.0
C      1  0.5912920000000  0.5264770000000  0.4896250000000 1.0
C      1  0.5452220000000  0.5266820000000  0.4335990000000 1.0
C      1  0.4820230000000  0.5951430000000  0.4590040000000 1.0
C      1  0.5668270000000  0.5432590000000  0.4418720000000 1.0
C      1  0.4953520000000  0.4371320000000  0.4562130000000 1.0
C      1  0.4887480000000  0.4978030000000  0.5514930000000 1.0
C      1  0.5844090000000  0.4610810000000  0.5023450000000 1.0
C      1  0.5783570000000  0.4855850000000  0.4341940000000 1.0
C      1  0.5165510000000  0.4503030000000  0.4791050000000 1.0
C      1  0.5411320000000  0.5170080000000  0.5832470000000 1.0
C      1  0.4938010000000  0.5525890000000  0.5032230000000 1.0
C      1  0.5226460000000  0.5688580000000  0.4469840000000 1.0
C      1  0.4699950000000  0.4209320000000  0.4554460000000 1.0
C      1  0.5891990000000  0.5361900000000  0.4631520000000 1.0
C      1  0.5200520000000  0.5615940000000  0.5651270000000 1.0
C      1  0.5462380000000  0.5058590000000  0.4908990000000 1.0
C      1  0.5126290000000  0.4793310000000  0.5508260000000 1.0
C      1  0.4370400000000  0.4493390000000  0.4800450000000 1.0
C      1  0.4555380000000  0.4325740000000  0.4322060000000 1.0
C      1  0.4620500000000  0.5779310000000  0.4791960000000 1.0
C      1  0.4315890000000  0.5542160000000  0.5617180000000 1.0
C      1  0.4553800000000  0.5516580000000  0.5750510000000 1.0
C      1  0.5708940000000  0.5237240000000  0.5387750000000 1.0
C      1  0.4487120000000  0.5390680000000  0.4284870000000 1.0
C      1  0.4673670000000  0.5741830000000  0.5572970000000 1.0
C      1  0.4084740000000  0.4762240000000  0.5050260000000 1.0
C      1  0.5766090000000  0.4490620000000  0.5276360000000 1.0
C      1  0.4813440000000  0.5115960000000  0.4681600000000 1.0
C      1  0.5509030000000  0.5659790000000  0.4513000000000 1.0
C      1  0.5140520000000  0.5405610000000  0.4369630000000 1.0
C      1  0.5029780000000  0.4956780000000  0.4620790000000 1.0
C      1  0.4688850000000  0.4492190000000  0.4117210000000 1.0
C      1  0.5113530000000  0.5881430000000  0.4984260000000 1.0
C      1  0.5562090000000  0.4878460000000  0.4714240000000 1.0
C      1  0.5588780000000  0.4206340000000  0.4788260000000 1.0
C      1  0.5312640000000  0.4799230000000  0.4228820000000 1.0
C      1  0.5449530000000  0.5358290000000  0.5368430000000 1.0
C      1  0.5363290000000  0.5632020000000  0.5417530000000 1.0
C      1  0.4197340000000  0.4602210000000  0.5269600000000 1.0
C      1  0.4884180000000  0.6004940000000  0.5131660000000 1.0
C      1  0.5264570000000  0.4719140000000  0.5762470000000 1.0
C      1  0.5017970000000  0.4159430000000  0.5200700000000 1.0
C      1  0.4268880000000  0.4655140000000  0.5563390000000 1.0
C      1  0.5442490000000  0.4598720000000  0.4651990000000 1.0
C      1  0.4162890000000  0.4710890000000  0.4505190000000 1.0
C      1  0.4660200000000  0.5256640000000  0.4118660000000 1.0
C      1  0.4596800000000  0.5024140000000  0.4842420000000 1.0
C      1  0.4998690000000  0.5947500000000  0.5383420000000 1.0
C      1  0.5179390000000  0.4279250000000  0.4991300000000 1.0
C      1  0.5017750000000  0.4986780000000  0.6045670000000 1.0
C      1  0.4469890000000  0.4990260000000  0.4159890000000 1.0
C      1  0.4982200000000  0.4369990000000  0.5684440000000 1.0
C      1  0.4920910000000  0.5204080000000  0.5345710000000 1.0
C      1  0.4923420000000  0.4195050000000  0.5463330000000 1.0
C      1  0.4540250000000  0.4236030000000  0.5088210000000 1.0
C      1  0.4778370000000  0.4544690000000  0.5812110000000 1.0
C      1  0.4937970000000  0.5333620000000  0.4160850000000 1.0
C      1  0.4692550000000  0.4997670000000  0.5737230000000 1.0
C      1  0.5052240000000  0.4763950000000  0.4856730000000 1.0
C      1  0.5081950000000  0.5870350000000  0.4660400000000 1.0
C      1  0.4655870000000  0.4709820000000  0.5183840000000 1.0
END
