TITL C-4164243-3780-539 13.0795112947138 125000 -13535.1817979535 0 0 93 (C1) n - 1
REM
REM in /home/nfs/bkarasulu/CARBON/AIRSS/Generating-Clusters/ReaxFF-fromJPCA2015/Units_Real/with-SteepDescent/Only-C1/SD-CG/Try1-3A/FIRE-CG
REM
REM
REM
REM
REM
REM ./C.cell (11c1c37f851c82e70ff6c80c92926a4b)
REM
REM compiler GCC version 9.2.1 20190827 (Red Hat 9.2.1-1)
REM options -cpp -mtune=generic -march=x86-64 -g -O0 -fpre-include=/usr/include/finclude/math-vector-fortran.h
REM seed 1319414443 1938516521 -963636266 646974834 193618576 -1522992695 489518748 428486118 1040614954 367814866 1480534209 -1612029728 -1123947711 2017799389 296731642 -1816686692 -1081314732 882496662 201482014 149076346 787203669 -866274157 -1399143106 -1338477908 239762369 1561844801 -1234499146 -362768322 1072450691 -196406129 1247086184 -240059956 -248090219
REM
CELL 1.54180   50.00000   50.00000   50.00000   90.00000   90.00000   90.00000
LATT -1
SFAC C  
C      1  0.4731670000000  0.5139790000000  0.5787520000000 1.0
C      1  0.5223110000000  0.4775060000000  0.5027790000000 1.0
C      1  0.5576310000000  0.4734840000000  0.4399840000000 1.0
C      1  0.4556540000000  0.4376940000000  0.4437910000000 1.0
C      1  0.5410940000000  0.5493900000000  0.4413680000000 1.0
C      1  0.5327370000000  0.4971340000000  0.4173840000000 1.0
C      1  0.5557500000000  0.5029730000000  0.4347580000000 1.0
C      1  0.4491460000000  0.5135780000000  0.5611400000000 1.0
C      1  0.5437720000000  0.4870290000000  0.5721110000000 1.0
C      1  0.5113610000000  0.4221650000000  0.5520940000000 1.0
C      1  0.5314090000000  0.5885280000000  0.4780580000000 1.0
C      1  0.5729240000000  0.4529710000000  0.5006020000000 1.0
C      1  0.4822290000000  0.5394070000000  0.5654380000000 1.0
C      1  0.4785040000000  0.5855300000000  0.4937480000000 1.0
C      1  0.5573400000000  0.5268520000000  0.4519560000000 1.0
C      1  0.4604880000000  0.5566260000000  0.5545120000000 1.0
C      1  0.4787740000000  0.5468110000000  0.4351140000000 1.0
C      1  0.4644050000000  0.5236180000000  0.4258930000000 1.0
C      1  0.4905080000000  0.5171380000000  0.4969310000000 1.0
C      1  0.4336710000000  0.4878100000000  0.4487840000000 1.0
C      1  0.5463210000000  0.4540590000000  0.5414010000000 1.0
C      1  0.5518040000000  0.4403490000000  0.5147410000000 1.0
C      1  0.4898100000000  0.4499600000000  0.5103230000000 1.0
C      1  0.5195060000000  0.4221220000000  0.4756230000000 1.0
C      1  0.5822240000000  0.4785130000000  0.5086680000000 1.0
C      1  0.4883280000000  0.4915570000000  0.4515880000000 1.0
C      1  0.4566680000000  0.4284660000000  0.5079170000000 1.0
C      1  0.4736530000000  0.4694660000000  0.4622410000000 1.0
C      1  0.5109460000000  0.5299230000000  0.4644090000000 1.0
C      1  0.4946530000000  0.4415960000000  0.5692560000000 1.0
C      1  0.5298340000000  0.4815970000000  0.5300160000000 1.0
C      1  0.5638120000000  0.4736280000000  0.5574560000000 1.0
C      1  0.5386960000000  0.5729130000000  0.4557870000000 1.0
C      1  0.4244900000000  0.4953660000000  0.5080320000000 1.0
C      1  0.4927760000000  0.5451610000000  0.4973340000000 1.0
C      1  0.5099070000000  0.5153130000000  0.4177010000000 1.0
C      1  0.4351460000000  0.4688830000000  0.4979660000000 1.0
C      1  0.5331760000000  0.5264970000000  0.5716260000000 1.0
C      1  0.4366900000000  0.5385530000000  0.4579260000000 1.0
C      1  0.4229080000000  0.5424650000000  0.5287260000000 1.0
C      1  0.5214770000000  0.5080590000000  0.5365560000000 1.0
C      1  0.4600500000000  0.5568210000000  0.4540520000000 1.0
C      1  0.4895710000000  0.4191210000000  0.4734050000000 1.0
C      1  0.5309350000000  0.4850660000000  0.4781080000000 1.0
C      1  0.4987910000000  0.4926510000000  0.5076300000000 1.0
C      1  0.4367510000000  0.5659110000000  0.5184840000000 1.0
C      1  0.4658730000000  0.5135240000000  0.5370450000000 1.0
C      1  0.5364270000000  0.5643180000000  0.4957230000000 1.0
C      1  0.4906810000000  0.5571670000000  0.5253920000000 1.0
C      1  0.5700870000000  0.4585570000000  0.4756110000000 1.0
C      1  0.5774970000000  0.4883260000000  0.5361330000000 1.0
C      1  0.5508330000000  0.4689080000000  0.4658780000000 1.0
C      1  0.5585700000000  0.5364860000000  0.5284700000000 1.0
C      1  0.5697430000000  0.5036820000000  0.4982830000000 1.0
C      1  0.4795010000000  0.4675770000000  0.5591180000000 1.0
C      1  0.5115640000000  0.5766040000000  0.5372790000000 1.0
C      1  0.4750810000000  0.4416340000000  0.4868170000000 1.0
C      1  0.5354520000000  0.5745030000000  0.5525600000000 1.0
C      1  0.4210020000000  0.5406740000000  0.4823080000000 1.0
C      1  0.4521380000000  0.5035090000000  0.5128330000000 1.0
C      1  0.4848620000000  0.5027560000000  0.4244930000000 1.0
C      1  0.5592070000000  0.5463400000000  0.5011790000000 1.0
C      1  0.5298870000000  0.4254260000000  0.5040760000000 1.0
C      1  0.5115930000000  0.5010360000000  0.4646070000000 1.0
C      1  0.4417530000000  0.4488830000000  0.5230070000000 1.0
C      1  0.4367460000000  0.5394640000000  0.5542140000000 1.0
C      1  0.4780240000000  0.4544290000000  0.4368230000000 1.0
C      1  0.5100190000000  0.5398880000000  0.4352070000000 1.0
C      1  0.4523240000000  0.4588470000000  0.5476650000000 1.0
C      1  0.5092650000000  0.4175090000000  0.5232440000000 1.0
C      1  0.4390190000000  0.5155590000000  0.4397420000000 1.0
C      1  0.4326900000000  0.5664010000000  0.4895950000000 1.0
C      1  0.4906560000000  0.4917120000000  0.5750710000000 1.0
C      1  0.4624030000000  0.4777520000000  0.5053440000000 1.0
C      1  0.5320290000000  0.4683930000000  0.4251000000000 1.0
C      1  0.5043520000000  0.5893100000000  0.4874640000000 1.0
C      1  0.5203680000000  0.4376590000000  0.4526330000000 1.0
C      1  0.5596710000000  0.5085020000000  0.5251840000000 1.0
C      1  0.5171090000000  0.5451600000000  0.4866340000000 1.0
C      1  0.4169060000000  0.5234730000000  0.5062200000000 1.0
C      1  0.5459190000000  0.5445480000000  0.5535360000000 1.0
C      1  0.5186190000000  0.4456530000000  0.5868930000000 1.0
C      1  0.5654480000000  0.5263910000000  0.4807680000000 1.0
C      1  0.4926390000000  0.5268600000000  0.5404450000000 1.0
C      1  0.4810290000000  0.4248960000000  0.5239120000000 1.0
C      1  0.4637160000000  0.5713350000000  0.5292290000000 1.0
C      1  0.4833980000000  0.4731910000000  0.5236540000000 1.0
C      1  0.4686960000000  0.4125800000000  0.4519140000000 1.0
C      1  0.4428740000000  0.4644000000000  0.4634730000000 1.0
C      1  0.4582610000000  0.5752660000000  0.4773870000000 1.0
C      1  0.5088030000000  0.4507360000000  0.4323280000000 1.0
C      1  0.5204620000000  0.5009520000000  0.5801390000000 1.0
C      1  0.5350120000000  0.4349810000000  0.5631970000000 1.0
END
