TITL C-4164243-3780-225 46.4446825566567 125000 -21671.4650561832 0 0 147 (C1) n - 1
REM
REM in /home/nfs/bkarasulu/CARBON/AIRSS/Generating-Clusters/ReaxFF-fromJPCA2015/Units_Real/with-SteepDescent/Only-C1/SD-CG/Try1-3A/FIRE-CG
REM
REM
REM
REM
REM
REM ./C.cell (11c1c37f851c82e70ff6c80c92926a4b)
REM
REM compiler GCC version 9.2.1 20190827 (Red Hat 9.2.1-1)
REM options -cpp -mtune=generic -march=x86-64 -g -O0 -fpre-include=/usr/include/finclude/math-vector-fortran.h
REM seed 1651273696 1783122002 -1966625895 -681365315 1946980069 -402699067 1586457012 867612827 -1074721507 -104903757 -2122023687 -833355643 836235309 -96844731 -498041311 -740717329 -1101026424 941446323 -1403293427 1518596960 2073400905 -411810537 893644320 2107430687 386538640 -943902787 -1520339644 1521620428 -746935016 -1193950960 941119241 2043691322 570052816
REM
CELL 1.54180   50.00000   50.00000   50.00000   90.00000   90.00000   90.00000
LATT -1
SFAC C  
C      1  0.4854130000000  0.5129840000000  0.4061290000000 1.0
C      1  0.5081100000000  0.3810980000000  0.4951450000000 1.0
C      1  0.5101520000000  0.5780570000000  0.4794440000000 1.0
C      1  0.5062470000000  0.4679350000000  0.4494380000000 1.0
C      1  0.4827620000000  0.4586410000000  0.4608680000000 1.0
C      1  0.5335250000000  0.4587200000000  0.4218700000000 1.0
C      1  0.4749510000000  0.4598730000000  0.4076980000000 1.0
C      1  0.4168360000000  0.5335230000000  0.5406540000000 1.0
C      1  0.5442570000000  0.5506930000000  0.5027280000000 1.0
C      1  0.5330650000000  0.4718350000000  0.5281570000000 1.0
C      1  0.6193870000000  0.5146720000000  0.5084620000000 1.0
C      1  0.5759010000000  0.5401910000000  0.4549640000000 1.0
C      1  0.4593020000000  0.4456130000000  0.4445440000000 1.0
C      1  0.4406630000000  0.5597910000000  0.5095600000000 1.0
C      1  0.4814360000000  0.4536240000000  0.5313110000000 1.0
C      1  0.5532870000000  0.4775660000000  0.5801560000000 1.0
C      1  0.4403790000000  0.5157440000000  0.5390560000000 1.0
C      1  0.5080430000000  0.4735930000000  0.4214790000000 1.0
C      1  0.4934460000000  0.5219950000000  0.5388530000000 1.0
C      1  0.4775760000000  0.4575880000000  0.5844650000000 1.0
C      1  0.4959270000000  0.4067660000000  0.5404250000000 1.0
C      1  0.4293260000000  0.4792380000000  0.4259720000000 1.0
C      1  0.4805790000000  0.4981560000000  0.4948980000000 1.0
C      1  0.5139550000000  0.5263860000000  0.4678320000000 1.0
C      1  0.4500750000000  0.4199920000000  0.4540140000000 1.0
C      1  0.4713650000000  0.5373050000000  0.4117500000000 1.0
C      1  0.4703210000000  0.5401900000000  0.4740510000000 1.0
C      1  0.5339720000000  0.4966480000000  0.5123580000000 1.0
C      1  0.5788450000000  0.5150150000000  0.4715710000000 1.0
C      1  0.4297390000000  0.4289500000000  0.4745520000000 1.0
C      1  0.5800770000000  0.4889990000000  0.4583180000000 1.0
C      1  0.4686770000000  0.5296770000000  0.5936110000000 1.0
C      1  0.5581520000000  0.4536090000000  0.5621450000000 1.0
C      1  0.5532420000000  0.4145710000000  0.4821930000000 1.0
C      1  0.4243910000000  0.5348700000000  0.4540140000000 1.0
C      1  0.4498210000000  0.5988640000000  0.5278780000000 1.0
C      1  0.5124880000000  0.4243860000000  0.5580630000000 1.0
C      1  0.4657170000000  0.5151520000000  0.4444030000000 1.0
C      1  0.4219540000000  0.5596560000000  0.4684340000000 1.0
C      1  0.5523400000000  0.5839170000000  0.4809980000000 1.0
C      1  0.4535730000000  0.5039810000000  0.5892310000000 1.0
C      1  0.5416880000000  0.4298690000000  0.5565040000000 1.0
C      1  0.5410020000000  0.5208030000000  0.5296530000000 1.0
C      1  0.4490780000000  0.5328030000000  0.5143700000000 1.0
C      1  0.5718780000000  0.5572040000000  0.5445710000000 1.0
C      1  0.4680210000000  0.4905670000000  0.4038840000000 1.0
C      1  0.4722870000000  0.4137360000000  0.5566860000000 1.0
C      1  0.5193920000000  0.5386560000000  0.5900180000000 1.0
C      1  0.5248240000000  0.5079290000000  0.4486060000000 1.0
C      1  0.5072980000000  0.5611070000000  0.5764510000000 1.0
C      1  0.4760410000000  0.4847770000000  0.4687410000000 1.0
C      1  0.4876470000000  0.4765320000000  0.5465290000000 1.0
C      1  0.5795000000000  0.4579900000000  0.5420030000000 1.0
C      1  0.5460910000000  0.5318690000000  0.5791520000000 1.0
C      1  0.4684280000000  0.4080450000000  0.4903060000000 1.0
C      1  0.5184190000000  0.5105050000000  0.5455650000000 1.0
C      1  0.4050940000000  0.4528890000000  0.5051460000000 1.0
C      1  0.5064020000000  0.5899020000000  0.4516620000000 1.0
C      1  0.5995200000000  0.4755600000000  0.4896700000000 1.0
C      1  0.5245010000000  0.5434320000000  0.5216400000000 1.0
C      1  0.5658270000000  0.5273720000000  0.4303810000000 1.0
C      1  0.4856210000000  0.4442940000000  0.4859240000000 1.0
C      1  0.5896230000000  0.4496990000000  0.4905340000000 1.0
C      1  0.6086280000000  0.4867890000000  0.5144550000000 1.0
C      1  0.4614300000000  0.4533120000000  0.4949920000000 1.0
C      1  0.4310310000000  0.5763500000000  0.5311590000000 1.0
C      1  0.4601950000000  0.4338790000000  0.5385150000000 1.0
C      1  0.4040110000000  0.5085580000000  0.4951930000000 1.0
C      1  0.5009420000000  0.4742150000000  0.5911750000000 1.0
C      1  0.4995200000000  0.4514110000000  0.5087390000000 1.0
C      1  0.5126820000000  0.5033220000000  0.4202580000000 1.0
C      1  0.4946020000000  0.5515390000000  0.5225980000000 1.0
C      1  0.5234550000000  0.5779110000000  0.4321670000000 1.0
C      1  0.5006900000000  0.4233150000000  0.4425590000000 1.0
C      1  0.4398960000000  0.4175520000000  0.4979490000000 1.0
C      1  0.4835540000000  0.5755340000000  0.4423610000000 1.0
C      1  0.5465220000000  0.4698270000000  0.4844340000000 1.0
C      1  0.4761530000000  0.5039850000000  0.5532320000000 1.0
C      1  0.4106350000000  0.4827530000000  0.5128330000000 1.0
C      1  0.5295800000000  0.4353490000000  0.4410340000000 1.0
C      1  0.5682060000000  0.4586610000000  0.4693160000000 1.0
C      1  0.5493920000000  0.5567390000000  0.5630840000000 1.0
C      1  0.4526880000000  0.4937240000000  0.4568780000000 1.0
C      1  0.5723560000000  0.5676240000000  0.4664520000000 1.0
C      1  0.5226240000000  0.5554690000000  0.4169430000000 1.0
C      1  0.4446950000000  0.5759020000000  0.4850250000000 1.0
C      1  0.5825940000000  0.5072100000000  0.5554050000000 1.0
C      1  0.4418910000000  0.5009850000000  0.4124780000000 1.0
C      1  0.4967890000000  0.5214160000000  0.5972320000000 1.0
C      1  0.4760690000000  0.5929210000000  0.5393030000000 1.0
C      1  0.5472090000000  0.5902520000000  0.5125240000000 1.0
C      1  0.4265190000000  0.4898590000000  0.5391110000000 1.0
C      1  0.4331500000000  0.4430810000000  0.5441560000000 1.0
C      1  0.4667750000000  0.5241440000000  0.4955220000000 1.0
C      1  0.5250060000000  0.5905670000000  0.5316810000000 1.0
C      1  0.4895470000000  0.5578730000000  0.4204190000000 1.0
C      1  0.4548340000000  0.6029230000000  0.4996230000000 1.0
C      1  0.5154110000000  0.4824580000000  0.5467420000000 1.0
C      1  0.5577080000000  0.4892370000000  0.5014050000000 1.0
C      1  0.4772610000000  0.4127170000000  0.4623430000000 1.0
C      1  0.4871400000000  0.5298750000000  0.4563030000000 1.0
C      1  0.5513400000000  0.4329540000000  0.4601410000000 1.0
C      1  0.5249580000000  0.4838010000000  0.4669630000000 1.0
C      1  0.4596900000000  0.5534330000000  0.5600900000000 1.0
C      1  0.5702150000000  0.4971370000000  0.4323140000000 1.0
C      1  0.4536710000000  0.4764630000000  0.5802590000000 1.0
C      1  0.4876740000000  0.4321570000000  0.5742100000000 1.0
C      1  0.5293990000000  0.4506370000000  0.5082710000000 1.0
C      1  0.4178830000000  0.4567500000000  0.4790130000000 1.0
C      1  0.4135990000000  0.5116160000000  0.4670590000000 1.0
C      1  0.5488810000000  0.4143410000000  0.5325660000000 1.0
C      1  0.4056490000000  0.5490010000000  0.4886980000000 1.0
C      1  0.4710730000000  0.5673250000000  0.4730280000000 1.0
C      1  0.4827410000000  0.6119010000000  0.5008110000000 1.0
C      1  0.5268710000000  0.4054460000000  0.4915140000000 1.0
C      1  0.4792660000000  0.5659440000000  0.5427610000000 1.0
C      1  0.5390370000000  0.5066050000000  0.4045740000000 1.0
C      1  0.4232120000000  0.4337520000000  0.5179720000000 1.0
C      1  0.5932090000000  0.5282590000000  0.5139910000000 1.0
C      1  0.4989090000000  0.6036130000000  0.5253500000000 1.0
C      1  0.5838420000000  0.4402770000000  0.5179120000000 1.0
C      1  0.5672500000000  0.4186250000000  0.5094060000000 1.0
C      1  0.5284460000000  0.4703380000000  0.5861140000000 1.0
C      1  0.5254360000000  0.4205540000000  0.5165070000000 1.0
C      1  0.4306240000000  0.5562880000000  0.5523340000000 1.0
C      1  0.5511770000000  0.4821470000000  0.4157030000000 1.0
C      1  0.5437370000000  0.5343430000000  0.4129700000000 1.0
C      1  0.4322730000000  0.4798750000000  0.4939800000000 1.0
C      1  0.4032450000000  0.5320830000000  0.5117010000000 1.0
C      1  0.4885730000000  0.3972950000000  0.5103590000000 1.0
C      1  0.5919550000000  0.4834550000000  0.5400860000000 1.0
C      1  0.5117890000000  0.5036690000000  0.4882050000000 1.0
C      1  0.4912970000000  0.5659000000000  0.4953870000000 1.0
C      1  0.4915000000000  0.4361740000000  0.4188480000000 1.0
C      1  0.5880260000000  0.5332650000000  0.5426400000000 1.0
C      1  0.4927430000000  0.5003960000000  0.5787540000000 1.0
C      1  0.5332710000000  0.5609070000000  0.4779170000000 1.0
C      1  0.4243540000000  0.4850120000000  0.4548240000000 1.0
C      1  0.5646610000000  0.5683550000000  0.5180780000000 1.0
C      1  0.5692310000000  0.5162020000000  0.4994510000000 1.0
C      1  0.4481120000000  0.4566650000000  0.4203550000000 1.0
C      1  0.4342520000000  0.4696460000000  0.5572820000000 1.0
C      1  0.4776860000000  0.5560840000000  0.5820680000000 1.0
C      1  0.4450600000000  0.5278500000000  0.4265280000000 1.0
C      1  0.5609540000000  0.5072350000000  0.5743560000000 1.0
C      1  0.4584710000000  0.4781280000000  0.5062810000000 1.0
C      1  0.5259140000000  0.5732520000000  0.5570810000000 1.0
END
