TITL C-4164234-2335-701 -3.04861827113807 125000 -9240.16205433262 0 0 63 (C1) n - 1
REM
REM in /home/nfs/bkarasulu/CARBON/AIRSS/Generating-Clusters/ReaxFF-fromJPCA2015/Units_Real/with-SteepDescent/Only-C1/SD-CG/Try1-3A/FIRE-CG
REM
REM
REM
REM
REM
REM ./C.cell (11c1c37f851c82e70ff6c80c92926a4b)
REM
REM compiler GCC version 9.2.1 20190827 (Red Hat 9.2.1-1)
REM options -cpp -mtune=generic -march=x86-64 -g -O0 -fpre-include=/usr/include/finclude/math-vector-fortran.h
REM seed -1146427571 207060907 -805937131 2143067983 2095846127 -869013134 -37031223 1520153930 365711999 -2032421288 23971072 593852173 1660535730 -1838437541 1344196245 1097768939 -1145980569 -738904914 663094860 -232781645 1462519397 -156123085 263534467 1833137471 -377679202 -604016065 -1231600627 -632110403 1444669591 296653917 1108198012 1469643871 1513861407
REM
CELL 1.54180   50.00000   50.00000   50.00000   90.00000   90.00000   90.00000
LATT -1
SFAC C  
C      1  0.4833330000000  0.4906420000000  0.4799700000000 1.0
C      1  0.5024670000000  0.5280750000000  0.4479700000000 1.0
C      1  0.4697710000000  0.5025470000000  0.4395240000000 1.0
C      1  0.4750190000000  0.4424090000000  0.5350270000000 1.0
C      1  0.5547270000000  0.5599740000000  0.5071420000000 1.0
C      1  0.5239380000000  0.4764600000000  0.5420800000000 1.0
C      1  0.4726020000000  0.5028130000000  0.5822490000000 1.0
C      1  0.4934280000000  0.4702440000000  0.4290020000000 1.0
C      1  0.5315450000000  0.5776680000000  0.5049020000000 1.0
C      1  0.4990460000000  0.4253280000000  0.4941940000000 1.0
C      1  0.4714050000000  0.5353720000000  0.5081260000000 1.0
C      1  0.5103610000000  0.5669600000000  0.4585390000000 1.0
C      1  0.4370980000000  0.4637570000000  0.4937800000000 1.0
C      1  0.5324820000000  0.5665510000000  0.5492170000000 1.0
C      1  0.4897150000000  0.5150710000000  0.5228560000000 1.0
C      1  0.5142150000000  0.5849730000000  0.4816640000000 1.0
C      1  0.4236710000000  0.4876710000000  0.4960860000000 1.0
C      1  0.4698480000000  0.5032950000000  0.5417520000000 1.0
C      1  0.5261480000000  0.5453270000000  0.4455630000000 1.0
C      1  0.4697380000000  0.4718490000000  0.4681480000000 1.0
C      1  0.5185240000000  0.4594290000000  0.4364690000000 1.0
C      1  0.5163640000000  0.5794170000000  0.5301850000000 1.0
C      1  0.5085920000000  0.4420520000000  0.5577760000000 1.0
C      1  0.5374170000000  0.5393930000000  0.5501730000000 1.0
C      1  0.4909640000000  0.4245390000000  0.4663860000000 1.0
C      1  0.5330800000000  0.5186150000000  0.5060750000000 1.0
C      1  0.5515570000000  0.4839500000000  0.4772300000000 1.0
C      1  0.5592490000000  0.4686440000000  0.5062300000000 1.0
C      1  0.4458300000000  0.5186450000000  0.5345290000000 1.0
C      1  0.4820710000000  0.4526870000000  0.5598910000000 1.0
C      1  0.5275230000000  0.4319580000000  0.4960680000000 1.0
C      1  0.4299000000000  0.5051530000000  0.4723590000000 1.0
C      1  0.5405940000000  0.4638230000000  0.4573800000000 1.0
C      1  0.4553880000000  0.4571680000000  0.4504770000000 1.0
C      1  0.5647130000000  0.4874950000000  0.5280720000000 1.0
C      1  0.4663710000000  0.4761110000000  0.4270240000000 1.0
C      1  0.4693520000000  0.5272890000000  0.5758100000000 1.0
C      1  0.5531790000000  0.5316690000000  0.4494200000000 1.0
C      1  0.4623480000000  0.4313350000000  0.4634020000000 1.0
C      1  0.5558750000000  0.5575800000000  0.5360270000000 1.0
C      1  0.4534940000000  0.5180310000000  0.4611970000000 1.0
C      1  0.4243260000000  0.5058720000000  0.5217360000000 1.0
C      1  0.5604150000000  0.5151530000000  0.4721110000000 1.0
C      1  0.5363410000000  0.4370410000000  0.4678340000000 1.0
C      1  0.5141900000000  0.4771270000000  0.5139910000000 1.0
C      1  0.5239640000000  0.5206440000000  0.5332100000000 1.0
C      1  0.4900190000000  0.4900630000000  0.5083620000000 1.0
C      1  0.5550000000000  0.5327020000000  0.4953160000000 1.0
C      1  0.4741910000000  0.4838840000000  0.5640480000000 1.0
C      1  0.5139270000000  0.4323780000000  0.4495490000000 1.0
C      1  0.4674510000000  0.5379560000000  0.4788240000000 1.0
C      1  0.4747750000000  0.4324480000000  0.5098700000000 1.0
C      1  0.5424840000000  0.4992250000000  0.5449620000000 1.0
C      1  0.4915810000000  0.5872220000000  0.4985210000000 1.0
C      1  0.4941250000000  0.5018420000000  0.4552390000000 1.0
C      1  0.4673690000000  0.5548520000000  0.5301290000000 1.0
C      1  0.4516810000000  0.4400360000000  0.4896750000000 1.0
C      1  0.4666800000000  0.5451430000000  0.5567500000000 1.0
C      1  0.5429040000000  0.4457560000000  0.5159850000000 1.0
C      1  0.4868330000000  0.5786270000000  0.5245690000000 1.0
C      1  0.4873560000000  0.5489790000000  0.4605560000000 1.0
C      1  0.5329260000000  0.4479660000000  0.5444440000000 1.0
C      1  0.5285190000000  0.4931130000000  0.4943460000000 1.0
END
