TITL C-4164239-2837-12 0.614981047845643 125000 -11546.8523255828 0 0 78 (C1) n - 1
REM
REM in /home/nfs/bkarasulu/CARBON/AIRSS/Generating-Clusters/ReaxFF-fromJPCA2015/Units_Real/with-SteepDescent/Only-C1/SD-CG/Try1-3A/FIRE-CG
REM
REM
REM
REM
REM
REM ./C.cell (11c1c37f851c82e70ff6c80c92926a4b)
REM
REM compiler GCC version 9.2.1 20190827 (Red Hat 9.2.1-1)
REM options -cpp -mtune=generic -march=x86-64 -g -O0 -fpre-include=/usr/include/finclude/math-vector-fortran.h
REM seed 2109051413 -371418369 288406182 1534831062 372511393 -923538618 -372337524 188219403 -260890124 -121516404 1060699282 -1347719398 -205158195 -1846326253 798112219 1657517925 -144131866 -1724206947 -2105671848 -2048778345 1744599672 -1975422984 -127266142 -1560561016 1640054234 -973950286 -1469219372 2027555918 1803079817 165051430 353143086 1133716391 -1286875378
REM
CELL 1.54180   50.00000   50.00000   50.00000   90.00000   90.00000   90.00000
LATT -1
SFAC C  
C      1  0.5301810000000  0.4444630000000  0.5327620000000 1.0
C      1  0.4740210000000  0.4485790000000  0.5232730000000 1.0
C      1  0.4628880000000  0.4719660000000  0.4470010000000 1.0
C      1  0.4896480000000  0.4296570000000  0.5062650000000 1.0
C      1  0.4502690000000  0.5554820000000  0.4554100000000 1.0
C      1  0.5023400000000  0.4859900000000  0.5885680000000 1.0
C      1  0.4440940000000  0.4937610000000  0.4425360000000 1.0
C      1  0.4316420000000  0.5351270000000  0.4565280000000 1.0
C      1  0.5264920000000  0.5043140000000  0.5102320000000 1.0
C      1  0.4954550000000  0.4370660000000  0.4563370000000 1.0
C      1  0.4179600000000  0.5116850000000  0.5154150000000 1.0
C      1  0.4332250000000  0.4410880000000  0.5023650000000 1.0
C      1  0.5050100000000  0.4651460000000  0.4195440000000 1.0
C      1  0.4790230000000  0.4766140000000  0.5178770000000 1.0
C      1  0.4330180000000  0.5077130000000  0.4651270000000 1.0
C      1  0.4752770000000  0.5064380000000  0.4044310000000 1.0
C      1  0.5761750000000  0.5074170000000  0.5531070000000 1.0
C      1  0.4516370000000  0.5634100000000  0.5300890000000 1.0
C      1  0.5586470000000  0.4773330000000  0.4392240000000 1.0
C      1  0.5557660000000  0.4562510000000  0.5256100000000 1.0
C      1  0.4776090000000  0.4257750000000  0.4799550000000 1.0
C      1  0.5257720000000  0.4363610000000  0.4578520000000 1.0
C      1  0.4676840000000  0.4829640000000  0.5662710000000 1.0
C      1  0.5108080000000  0.4964710000000  0.4906930000000 1.0
C      1  0.4762850000000  0.5228010000000  0.5017680000000 1.0
C      1  0.5625550000000  0.5369460000000  0.4896420000000 1.0
C      1  0.5174980000000  0.4612070000000  0.5541980000000 1.0
C      1  0.5577060000000  0.5238900000000  0.4649110000000 1.0
C      1  0.5637630000000  0.5335090000000  0.5580220000000 1.0
C      1  0.5355300000000  0.5433700000000  0.5558520000000 1.0
C      1  0.5270160000000  0.5605550000000  0.5339210000000 1.0
C      1  0.4351380000000  0.5003050000000  0.4936230000000 1.0
C      1  0.5018630000000  0.4916060000000  0.4056630000000 1.0
C      1  0.5623400000000  0.4823860000000  0.5415350000000 1.0
C      1  0.5073860000000  0.4823990000000  0.5144740000000 1.0
C      1  0.4998390000000  0.5685170000000  0.4691280000000 1.0
C      1  0.4682560000000  0.5454860000000  0.5631420000000 1.0
C      1  0.5006290000000  0.4657100000000  0.4682540000000 1.0
C      1  0.4708230000000  0.5629910000000  0.4755890000000 1.0
C      1  0.4426210000000  0.4859840000000  0.5507960000000 1.0
C      1  0.4749620000000  0.5683180000000  0.5477430000000 1.0
C      1  0.5838160000000  0.5301680000000  0.5367630000000 1.0
C      1  0.5313910000000  0.4588610000000  0.4376720000000 1.0
C      1  0.5787640000000  0.5219830000000  0.5086010000000 1.0
C      1  0.5658090000000  0.4942130000000  0.4612220000000 1.0
C      1  0.4455210000000  0.4379680000000  0.5278860000000 1.0
C      1  0.4777430000000  0.4822400000000  0.4698700000000 1.0
C      1  0.4452740000000  0.5390630000000  0.5473210000000 1.0
C      1  0.5190840000000  0.5085280000000  0.4472200000000 1.0
C      1  0.5582090000000  0.4531960000000  0.4967910000000 1.0
C      1  0.5224380000000  0.4794750000000  0.4574970000000 1.0
C      1  0.5257940000000  0.5004020000000  0.5784620000000 1.0
C      1  0.5389830000000  0.5533010000000  0.5022460000000 1.0
C      1  0.4517100000000  0.4326040000000  0.4867440000000 1.0
C      1  0.4795600000000  0.5021390000000  0.5838540000000 1.0
C      1  0.5165810000000  0.5273020000000  0.5715250000000 1.0
C      1  0.4826780000000  0.4547910000000  0.4330860000000 1.0
C      1  0.5364240000000  0.4819200000000  0.5586590000000 1.0
C      1  0.4877420000000  0.5276970000000  0.5745060000000 1.0
C      1  0.5690920000000  0.4790330000000  0.4880830000000 1.0
C      1  0.5115720000000  0.5129450000000  0.4214460000000 1.0
C      1  0.4986280000000  0.5638940000000  0.5309300000000 1.0
C      1  0.5359640000000  0.4369240000000  0.4850220000000 1.0
C      1  0.5252200000000  0.5685120000000  0.4810390000000 1.0
C      1  0.5722690000000  0.4936890000000  0.5118010000000 1.0
C      1  0.4921990000000  0.4662450000000  0.5691960000000 1.0
C      1  0.5189340000000  0.4323930000000  0.5085810000000 1.0
C      1  0.4518530000000  0.5132250000000  0.4214690000000 1.0
C      1  0.4597940000000  0.5639510000000  0.5021390000000 1.0
C      1  0.4610760000000  0.4991070000000  0.5094750000000 1.0
C      1  0.4360770000000  0.4637690000000  0.5351050000000 1.0
C      1  0.4318360000000  0.5139770000000  0.5417660000000 1.0
C      1  0.4968130000000  0.5389720000000  0.5156620000000 1.0
C      1  0.5222670000000  0.5308700000000  0.5080520000000 1.0
C      1  0.4448240000000  0.5398370000000  0.4322020000000 1.0
C      1  0.5352690000000  0.5331180000000  0.4483890000000 1.0
C      1  0.4876710000000  0.5083070000000  0.4792060000000 1.0
C      1  0.5222730000000  0.5583310000000  0.4557810000000 1.0
END
