TITL C-4164239-2837-242 -3.29107305035812 125000 -5994.54424126399 0 0 41 (C1) n - 1
REM
REM in /home/nfs/bkarasulu/CARBON/AIRSS/Generating-Clusters/ReaxFF-fromJPCA2015/Units_Real/with-SteepDescent/Only-C1/SD-CG/Try1-3A/FIRE-CG
REM
REM
REM
REM
REM
REM ./C.cell (11c1c37f851c82e70ff6c80c92926a4b)
REM
REM compiler GCC version 9.2.1 20190827 (Red Hat 9.2.1-1)
REM options -cpp -mtune=generic -march=x86-64 -g -O0 -fpre-include=/usr/include/finclude/math-vector-fortran.h
REM seed -492907369 317065659 2098477229 1081214957 -1983075234 2117957543 -161979255 916611190 -1375798598 1810947354 32844495 -561473533 184288873 1395819637 1173486606 -184201685 1557780486 1808412576 460757609 1170561782 -165593641 884603674 1370942717 -968750950 908337979 -1556781138 -1022579546 94578730 -1565204759 -337848009 1459176315 1489141150 -839100718
REM
CELL 1.54180   50.00000   50.00000   50.00000   90.00000   90.00000   90.00000
LATT -1
SFAC C  
C      1  0.5324040000000  0.5253600000000  0.5063760000000 1.0
C      1  0.5116880000000  0.5388800000000  0.5226590000000 1.0
C      1  0.4410140000000  0.5117610000000  0.4676010000000 1.0
C      1  0.4924840000000  0.5064340000000  0.5607870000000 1.0
C      1  0.4547930000000  0.5315760000000  0.4497970000000 1.0
C      1  0.4522010000000  0.4907940000000  0.5374880000000 1.0
C      1  0.4950760000000  0.5011320000000  0.4488680000000 1.0
C      1  0.4614270000000  0.4889480000000  0.5070360000000 1.0
C      1  0.4382430000000  0.5158560000000  0.5406740000000 1.0
C      1  0.5189340000000  0.4961420000000  0.4650270000000 1.0
C      1  0.4429040000000  0.5347090000000  0.5158380000000 1.0
C      1  0.5277930000000  0.4354530000000  0.4863690000000 1.0
C      1  0.4733080000000  0.4841210000000  0.5573910000000 1.0
C      1  0.5028530000000  0.4385630000000  0.4718170000000 1.0
C      1  0.5712170000000  0.4958340000000  0.4962870000000 1.0
C      1  0.4844810000000  0.5291580000000  0.4477730000000 1.0
C      1  0.4996020000000  0.5675710000000  0.4808130000000 1.0
C      1  0.5349130000000  0.5428070000000  0.4878700000000 1.0
C      1  0.5570200000000  0.4718520000000  0.4834230000000 1.0
C      1  0.5252600000000  0.5595490000000  0.4685260000000 1.0
C      1  0.5449950000000  0.4529200000000  0.5023220000000 1.0
C      1  0.4490220000000  0.4836680000000  0.4617810000000 1.0
C      1  0.5269610000000  0.4470920000000  0.4610400000000 1.0
C      1  0.4925250000000  0.5571860000000  0.5084910000000 1.0
C      1  0.5203940000000  0.5016490000000  0.5669840000000 1.0
C      1  0.4667120000000  0.5479810000000  0.5124270000000 1.0
C      1  0.4972100000000  0.5160970000000  0.5337320000000 1.0
C      1  0.5374280000000  0.4736630000000  0.4621620000000 1.0
C      1  0.5353750000000  0.4643730000000  0.5272010000000 1.0
C      1  0.4758600000000  0.4788270000000  0.4495270000000 1.0
C      1  0.5063130000000  0.4680470000000  0.5268620000000 1.0
C      1  0.5141730000000  0.5058590000000  0.4923030000000 1.0
C      1  0.4988540000000  0.5542200000000  0.4552230000000 1.0
C      1  0.4954440000000  0.4939760000000  0.5123760000000 1.0
C      1  0.5501080000000  0.4877490000000  0.5394180000000 1.0
C      1  0.5426770000000  0.4959430000000  0.5660490000000 1.0
C      1  0.4888990000000  0.4594480000000  0.5495020000000 1.0
C      1  0.4577550000000  0.4679950000000  0.4852240000000 1.0
C      1  0.5568150000000  0.5078650000000  0.5185090000000 1.0
C      1  0.4804070000000  0.4570900000000  0.4696210000000 1.0
C      1  0.4444600000000  0.5118520000000  0.4968270000000 1.0
END
