TITL C-4164235-1454-9 -15.5686013255579 125000 -11803.9515797976 0 0 80 (C1) n - 1
REM
REM in /home/nfs/bkarasulu/CARBON/AIRSS/Generating-Clusters/ReaxFF-fromJPCA2015/Units_Real/with-SteepDescent/Only-C1/SD-CG/Try1-3A/FIRE-CG
REM
REM
REM
REM
REM
REM ./C.cell (11c1c37f851c82e70ff6c80c92926a4b)
REM
REM compiler GCC version 9.2.1 20190827 (Red Hat 9.2.1-1)
REM options -cpp -mtune=generic -march=x86-64 -g -O0 -fpre-include=/usr/include/finclude/math-vector-fortran.h
REM seed 1135326010 -1260871634 1369139117 446334829 742682601 -33765430 1932182117 247337568 1899844607 -1203879214 -626395267 1726311743 -537722013 2146082093 -808379729 -991189126 -305614365 1431858269 496584515 -959353875 -1787842606 569808909 -1047969055 -1326476102 952103944 1615660161 -1498833311 -623602240 1258236737 1297493799 890668040 1759488497 1151531824
REM
CELL 1.54180   50.00000   50.00000   50.00000   90.00000   90.00000   90.00000
LATT -1
SFAC C  
C      1  0.4783820000000  0.4417930000000  0.4501440000000 1.0
C      1  0.5314600000000  0.5119990000000  0.5396500000000 1.0
C      1  0.5032780000000  0.5245080000000  0.5736610000000 1.0
C      1  0.4606380000000  0.5242950000000  0.4353220000000 1.0
C      1  0.4506450000000  0.5424910000000  0.5533800000000 1.0
C      1  0.4938780000000  0.5770900000000  0.4750440000000 1.0
C      1  0.5341150000000  0.4750750000000  0.5013200000000 1.0
C      1  0.5493900000000  0.4324520000000  0.5163080000000 1.0
C      1  0.4856150000000  0.5387260000000  0.4827180000000 1.0
C      1  0.5301130000000  0.5527510000000  0.4502530000000 1.0
C      1  0.5022620000000  0.5477750000000  0.5562260000000 1.0
C      1  0.5789520000000  0.4598320000000  0.4864780000000 1.0
C      1  0.4891240000000  0.4280100000000  0.5092190000000 1.0
C      1  0.4435970000000  0.4654140000000  0.4532950000000 1.0
C      1  0.4745050000000  0.5596790000000  0.5529780000000 1.0
C      1  0.5315600000000  0.5032980000000  0.4280930000000 1.0
C      1  0.5696160000000  0.4920460000000  0.5481660000000 1.0
C      1  0.5280800000000  0.5104580000000  0.5687950000000 1.0
C      1  0.5016770000000  0.4427780000000  0.5337530000000 1.0
C      1  0.5454330000000  0.5529120000000  0.5207790000000 1.0
C      1  0.5551050000000  0.4392480000000  0.5428480000000 1.0
C      1  0.4663980000000  0.4778460000000  0.4994270000000 1.0
C      1  0.5414280000000  0.4257630000000  0.4920160000000 1.0
C      1  0.4235860000000  0.4885730000000  0.4554410000000 1.0
C      1  0.5497650000000  0.4865190000000  0.4437160000000 1.0
C      1  0.4793800000000  0.5461720000000  0.4394760000000 1.0
C      1  0.5632990000000  0.5328960000000  0.4825380000000 1.0
C      1  0.5396170000000  0.5695990000000  0.4972440000000 1.0
C      1  0.4332940000000  0.5158290000000  0.4487920000000 1.0
C      1  0.5106530000000  0.4156940000000  0.4939360000000 1.0
C      1  0.5126650000000  0.4681790000000  0.5192560000000 1.0
C      1  0.5632200000000  0.5305680000000  0.5113830000000 1.0
C      1  0.4411300000000  0.5632670000000  0.4862180000000 1.0
C      1  0.4199430000000  0.5110490000000  0.4737750000000 1.0
C      1  0.4971770000000  0.4645690000000  0.4563550000000 1.0
C      1  0.5271160000000  0.4369250000000  0.5522440000000 1.0
C      1  0.5721190000000  0.5030240000000  0.5208450000000 1.0
C      1  0.4379540000000  0.4722470000000  0.5321900000000 1.0
C      1  0.5550710000000  0.5159340000000  0.5567110000000 1.0
C      1  0.4590890000000  0.4797730000000  0.4351540000000 1.0
C      1  0.5067090000000  0.4158530000000  0.4670050000000 1.0
C      1  0.4463250000000  0.4585490000000  0.5069600000000 1.0
C      1  0.4376360000000  0.5820190000000  0.4978730000000 1.0
C      1  0.4600570000000  0.4951420000000  0.5678570000000 1.0
C      1  0.4622020000000  0.5053830000000  0.4960780000000 1.0
C      1  0.5571830000000  0.4440270000000  0.4733300000000 1.0
C      1  0.5135080000000  0.5825350000000  0.4964810000000 1.0
C      1  0.4633250000000  0.4358150000000  0.4975770000000 1.0
C      1  0.5291550000000  0.4613900000000  0.5679380000000 1.0
C      1  0.5459510000000  0.4584610000000  0.4492320000000 1.0
C      1  0.4292970000000  0.5439610000000  0.4992460000000 1.0
C      1  0.4975170000000  0.5331320000000  0.5077650000000 1.0
C      1  0.4302970000000  0.5155590000000  0.5035580000000 1.0
C      1  0.4947310000000  0.4942520000000  0.4593020000000 1.0
C      1  0.4742640000000  0.4999260000000  0.4221400000000 1.0
C      1  0.4884460000000  0.4836300000000  0.5170150000000 1.0
C      1  0.5306680000000  0.5010410000000  0.4892810000000 1.0
C      1  0.5219800000000  0.5179540000000  0.5121360000000 1.0
C      1  0.4571080000000  0.4691340000000  0.5548840000000 1.0
C      1  0.5022990000000  0.5006730000000  0.4318830000000 1.0
C      1  0.5065770000000  0.5808500000000  0.5252040000000 1.0
C      1  0.5643690000000  0.4789330000000  0.5047460000000 1.0
C      1  0.4704190000000  0.5619040000000  0.4849060000000 1.0
C      1  0.5225520000000  0.5595780000000  0.5385110000000 1.0
C      1  0.4878720000000  0.4990190000000  0.5757520000000 1.0
C      1  0.5510140000000  0.5092740000000  0.4677220000000 1.0
C      1  0.5015710000000  0.5619810000000  0.4503360000000 1.0
C      1  0.4788450000000  0.5844620000000  0.5361630000000 1.0
C      1  0.5404880000000  0.5270660000000  0.4428330000000 1.0
C      1  0.4817590000000  0.5119730000000  0.5181970000000 1.0
C      1  0.5491830000000  0.5566360000000  0.4725940000000 1.0
C      1  0.4764200000000  0.5138910000000  0.4720530000000 1.0
C      1  0.4303440000000  0.4998650000000  0.5307800000000 1.0
C      1  0.4419570000000  0.5141790000000  0.5534980000000 1.0
C      1  0.5009420000000  0.4726290000000  0.5704350000000 1.0
C      1  0.4832460000000  0.4563020000000  0.5555400000000 1.0
C      1  0.5027610000000  0.4253990000000  0.4414390000000 1.0
C      1  0.4565520000000  0.4417530000000  0.4694300000000 1.0
C      1  0.5556280000000  0.4673650000000  0.5557620000000 1.0
C      1  0.5185170000000  0.4514470000000  0.4414150000000 1.0
END
