TITL C-4164236-1577-378 40.8434932775075 125000 -23848.8349586697 0 0 160 (C1) n - 1
REM
REM in /home/nfs/bkarasulu/CARBON/AIRSS/Generating-Clusters/ReaxFF-fromJPCA2015/Units_Real/with-SteepDescent/Only-C1/SD-CG/Try1-3A/FIRE-CG
REM
REM
REM
REM
REM
REM ./C.cell (11c1c37f851c82e70ff6c80c92926a4b)
REM
REM compiler GCC version 9.2.1 20190827 (Red Hat 9.2.1-1)
REM options -cpp -mtune=generic -march=x86-64 -g -O0 -fpre-include=/usr/include/finclude/math-vector-fortran.h
REM seed 1813479519 -50053065 -1146218627 -1448104682 -102822270 -296264651 957885148 -550926987 -1766552901 -2116602176 1731217163 -1517738433 49681776 -1332888306 -1904469653 229569853 864381150 -1267286891 -1304784648 786482290 2130961913 -813551372 1183005518 76297433 -203435895 -808494329 2086556685 29152534 -1276268163 -63994286 -1123464314 -465685188 -521316494
REM
CELL 1.54180   50.00000   50.00000   50.00000   90.00000   90.00000   90.00000
LATT -1
SFAC C  
C      1  0.5369550000000  0.5889760000000  0.4916080000000 1.0
C      1  0.5020800000000  0.5193760000000  0.4608860000000 1.0
C      1  0.5447010000000  0.4068140000000  0.5010850000000 1.0
C      1  0.4551810000000  0.4570420000000  0.5939170000000 1.0
C      1  0.5612670000000  0.4295570000000  0.5097350000000 1.0
C      1  0.4738700000000  0.6047820000000  0.4687690000000 1.0
C      1  0.5424790000000  0.5120010000000  0.5309360000000 1.0
C      1  0.5230960000000  0.5887610000000  0.5528140000000 1.0
C      1  0.5360180000000  0.5284050000000  0.5894790000000 1.0
C      1  0.3963100000000  0.4993400000000  0.5003650000000 1.0
C      1  0.4088750000000  0.4257400000000  0.4906200000000 1.0
C      1  0.5436110000000  0.5509280000000  0.5765860000000 1.0
C      1  0.4007330000000  0.4633820000000  0.5302670000000 1.0
C      1  0.5627980000000  0.5047560000000  0.4089990000000 1.0
C      1  0.4691980000000  0.4401740000000  0.4811560000000 1.0
C      1  0.4963680000000  0.4749860000000  0.4524410000000 1.0
C      1  0.5792160000000  0.4551580000000  0.5437750000000 1.0
C      1  0.5437440000000  0.4624110000000  0.5938730000000 1.0
C      1  0.4365940000000  0.4704850000000  0.4918120000000 1.0
C      1  0.4764120000000  0.4762050000000  0.6014130000000 1.0
C      1  0.4927920000000  0.4568070000000  0.5483950000000 1.0
C      1  0.5837790000000  0.4833010000000  0.5344220000000 1.0
C      1  0.5159390000000  0.4087160000000  0.5435800000000 1.0
C      1  0.5467310000000  0.5696010000000  0.4394640000000 1.0
C      1  0.4175680000000  0.5521840000000  0.5040440000000 1.0
C      1  0.5892200000000  0.5574590000000  0.4745990000000 1.0
C      1  0.4907020000000  0.5014350000000  0.4428280000000 1.0
C      1  0.4749510000000  0.5634530000000  0.5460720000000 1.0
C      1  0.5047840000000  0.4474040000000  0.4428110000000 1.0
C      1  0.5183440000000  0.5035390000000  0.4813500000000 1.0
C      1  0.5363390000000  0.4358810000000  0.4720520000000 1.0
C      1  0.5656030000000  0.5073500000000  0.4899900000000 1.0
C      1  0.4481720000000  0.5968210000000  0.5303500000000 1.0
C      1  0.4518040000000  0.4634200000000  0.5144590000000 1.0
C      1  0.4345370000000  0.4655850000000  0.4336370000000 1.0
C      1  0.5816670000000  0.4580550000000  0.4445820000000 1.0
C      1  0.5924000000000  0.5463360000000  0.5149860000000 1.0
C      1  0.5258830000000  0.4263160000000  0.5641020000000 1.0
C      1  0.4876630000000  0.5914460000000  0.4474230000000 1.0
C      1  0.5897120000000  0.4424230000000  0.4685060000000 1.0
C      1  0.4604140000000  0.4576800000000  0.4196040000000 1.0
C      1  0.4534230000000  0.5412620000000  0.4249110000000 1.0
C      1  0.4775050000000  0.4371820000000  0.4315800000000 1.0
C      1  0.4303970000000  0.5809690000000  0.4572420000000 1.0
C      1  0.4317660000000  0.4178990000000  0.5034930000000 1.0
C      1  0.5075870000000  0.5429800000000  0.4065780000000 1.0
C      1  0.5393080000000  0.4093440000000  0.4426380000000 1.0
C      1  0.4778770000000  0.5529120000000  0.4132500000000 1.0
C      1  0.5196540000000  0.5103420000000  0.6013950000000 1.0
C      1  0.6006470000000  0.4424440000000  0.4960370000000 1.0
C      1  0.5486170000000  0.4432970000000  0.5691150000000 1.0
C      1  0.5946520000000  0.5498950000000  0.4473400000000 1.0
C      1  0.5475280000000  0.5802290000000  0.5395280000000 1.0
C      1  0.4727630000000  0.4795970000000  0.4049440000000 1.0
C      1  0.4459970000000  0.5607550000000  0.5676790000000 1.0
C      1  0.5689170000000  0.5062620000000  0.5445810000000 1.0
C      1  0.5728960000000  0.5672680000000  0.4506690000000 1.0
C      1  0.5055050000000  0.5170660000000  0.3979420000000 1.0
C      1  0.5893090000000  0.5035430000000  0.4200470000000 1.0
C      1  0.4812030000000  0.4152910000000  0.4739920000000 1.0
C      1  0.4724560000000  0.4663750000000  0.4674160000000 1.0
C      1  0.5417630000000  0.5144860000000  0.5031220000000 1.0
C      1  0.5614430000000  0.4835770000000  0.5899900000000 1.0
C      1  0.4992570000000  0.4997210000000  0.5610110000000 1.0
C      1  0.4557570000000  0.4346240000000  0.5102090000000 1.0
C      1  0.4910600000000  0.5028660000000  0.5157930000000 1.0
C      1  0.4147450000000  0.4448410000000  0.5456900000000 1.0
C      1  0.4245330000000  0.4944460000000  0.4334520000000 1.0
C      1  0.4773440000000  0.5905720000000  0.5377530000000 1.0
C      1  0.4976040000000  0.5690880000000  0.4873360000000 1.0
C      1  0.5141540000000  0.5506480000000  0.5201550000000 1.0
C      1  0.5373080000000  0.5693770000000  0.5131160000000 1.0
C      1  0.4399770000000  0.5114770000000  0.5142190000000 1.0
C      1  0.5346020000000  0.5530640000000  0.4168430000000 1.0
C      1  0.4762950000000  0.4120460000000  0.5210000000000 1.0
C      1  0.5010530000000  0.4426420000000  0.5729610000000 1.0
C      1  0.4409520000000  0.5374920000000  0.5029720000000 1.0
C      1  0.5178970000000  0.5413990000000  0.4540050000000 1.0
C      1  0.4944540000000  0.5520710000000  0.5922150000000 1.0
C      1  0.5506430000000  0.5291190000000  0.4203890000000 1.0
C      1  0.6266340000000  0.4908910000000  0.4989050000000 1.0
C      1  0.5454300000000  0.4618260000000  0.4773560000000 1.0
C      1  0.4324180000000  0.5769060000000  0.5448120000000 1.0
C      1  0.6178570000000  0.5124820000000  0.4829550000000 1.0
C      1  0.4988270000000  0.4890810000000  0.3916990000000 1.0
C      1  0.4258730000000  0.4083070000000  0.4770040000000 1.0
C      1  0.5021330000000  0.4638850000000  0.5971020000000 1.0
C      1  0.4863890000000  0.4076650000000  0.5479580000000 1.0
C      1  0.3976910000000  0.4708270000000  0.5007200000000 1.0
C      1  0.5782620000000  0.4833240000000  0.5048650000000 1.0
C      1  0.5184790000000  0.4041790000000  0.5143070000000 1.0
C      1  0.5010800000000  0.5506850000000  0.5464900000000 1.0
C      1  0.5231420000000  0.4796270000000  0.6025120000000 1.0
C      1  0.4699090000000  0.5046170000000  0.5953480000000 1.0
C      1  0.4746650000000  0.4785040000000  0.5514690000000 1.0
C      1  0.4318830000000  0.5332230000000  0.5678530000000 1.0
C      1  0.5539060000000  0.4604850000000  0.5038180000000 1.0
C      1  0.4409310000000  0.6026460000000  0.5025270000000 1.0
C      1  0.5238320000000  0.4804160000000  0.4000390000000 1.0
C      1  0.4130180000000  0.5592720000000  0.5324110000000 1.0
C      1  0.4637050000000  0.4879470000000  0.5246210000000 1.0
C      1  0.5089100000000  0.4540210000000  0.5250590000000 1.0
C      1  0.5344260000000  0.4367170000000  0.4320890000000 1.0
C      1  0.6064110000000  0.4721210000000  0.4945880000000 1.0
C      1  0.5054240000000  0.6000230000000  0.5328060000000 1.0
C      1  0.5715200000000  0.4974360000000  0.5707470000000 1.0
C      1  0.4267640000000  0.4879750000000  0.5701880000000 1.0
C      1  0.4124030000000  0.5338590000000  0.5466970000000 1.0
C      1  0.5157020000000  0.4990880000000  0.5383690000000 1.0
C      1  0.4688630000000  0.5592100000000  0.5856590000000 1.0
C      1  0.5798730000000  0.5534100000000  0.5364520000000 1.0
C      1  0.4020550000000  0.5461760000000  0.4802840000000 1.0
C      1  0.4924430000000  0.5230510000000  0.5994390000000 1.0
C      1  0.5524670000000  0.4589520000000  0.5477640000000 1.0
C      1  0.4100240000000  0.5094650000000  0.5286610000000 1.0
C      1  0.5637810000000  0.5624110000000  0.5567590000000 1.0
C      1  0.5102750000000  0.4433300000000  0.4731240000000 1.0
C      1  0.4940190000000  0.5318490000000  0.5101210000000 1.0
C      1  0.5357830000000  0.4655690000000  0.5261300000000 1.0
C      1  0.5154110000000  0.6046830000000  0.5046890000000 1.0
C      1  0.4445150000000  0.6009440000000  0.4735090000000 1.0
C      1  0.4895090000000  0.5969830000000  0.4927860000000 1.0
C      1  0.4080840000000  0.4859970000000  0.5471050000000 1.0
C      1  0.4314540000000  0.4342140000000  0.5620380000000 1.0
C      1  0.4922950000000  0.4028780000000  0.4996620000000 1.0
C      1  0.4099020000000  0.5051830000000  0.4540190000000 1.0
C      1  0.4431450000000  0.5101340000000  0.5812980000000 1.0
C      1  0.4141620000000  0.5592360000000  0.4592850000000 1.0
C      1  0.4243780000000  0.4472790000000  0.4524860000000 1.0
C      1  0.4368080000000  0.4211750000000  0.4531930000000 1.0
C      1  0.4817370000000  0.5451940000000  0.4882990000000 1.0
C      1  0.5002180000000  0.4879150000000  0.4950100000000 1.0
C      1  0.4784620000000  0.4213570000000  0.5720660000000 1.0
C      1  0.4346890000000  0.4971300000000  0.4899350000000 1.0
C      1  0.4442360000000  0.5147470000000  0.4213310000000 1.0
C      1  0.5863050000000  0.4358590000000  0.5217830000000 1.0
C      1  0.5339070000000  0.4848340000000  0.4642320000000 1.0
C      1  0.5483120000000  0.4086780000000  0.4717430000000 1.0
C      1  0.6100580000000  0.5042240000000  0.4561420000000 1.0
C      1  0.5541400000000  0.5053510000000  0.4631650000000 1.0
C      1  0.3968110000000  0.5170570000000  0.4759690000000 1.0
C      1  0.6038700000000  0.5397480000000  0.4916300000000 1.0
C      1  0.5361080000000  0.5827820000000  0.4623240000000 1.0
C      1  0.5032600000000  0.4597310000000  0.4964270000000 1.0
C      1  0.4526440000000  0.4299450000000  0.5809670000000 1.0
C      1  0.5566570000000  0.4547370000000  0.4278990000000 1.0
C      1  0.4076610000000  0.4520540000000  0.4792840000000 1.0
C      1  0.4504330000000  0.4714710000000  0.5691870000000 1.0
C      1  0.5161830000000  0.5639660000000  0.5702880000000 1.0
C      1  0.5440730000000  0.5291620000000  0.4493600000000 1.0
C      1  0.4719150000000  0.5045430000000  0.4203380000000 1.0
C      1  0.4543070000000  0.4865770000000  0.4729020000000 1.0
C      1  0.4658600000000  0.4159100000000  0.4474990000000 1.0
C      1  0.4423490000000  0.5538690000000  0.4547230000000 1.0
C      1  0.5496660000000  0.4774670000000  0.4090140000000 1.0
C      1  0.5103590000000  0.5698180000000  0.4607440000000 1.0
C      1  0.6011670000000  0.5240780000000  0.4381810000000 1.0
C      1  0.4786620000000  0.5739250000000  0.4295250000000 1.0
C      1  0.4547130000000  0.5416940000000  0.4797700000000 1.0
C      1  0.5970160000000  0.4830510000000  0.4400820000000 1.0
END
