TITL C-4164232-771-699 35.490451014032 125000 -16199.4420030436 0 0 111 (C1) n - 1
REM
REM in /home/nfs/bkarasulu/CARBON/AIRSS/Generating-Clusters/ReaxFF-fromJPCA2015/Units_Real/with-SteepDescent/Only-C1/SD-CG/Try1-3A/FIRE-CG
REM
REM
REM
REM
REM
REM ./C.cell (11c1c37f851c82e70ff6c80c92926a4b)
REM
REM compiler GCC version 9.2.1 20190827 (Red Hat 9.2.1-1)
REM options -cpp -mtune=generic -march=x86-64 -g -O0 -fpre-include=/usr/include/finclude/math-vector-fortran.h
REM seed -651450414 -1915469962 -895722885 -2017385989 -1225519580 -468070374 -211896370 -1907679874 1871382246 1088856068 695004579 -28395612 1190696225 -1389030310 142667665 -1190613989 -688482951 1369270575 -1664198688 -1288869373 -526758806 -1148899366 242137949 -1255883810 1150764510 -209990998 959285918 1268140044 -2138388059 -64466684 -485814882 -50377554 -924311284
REM
CELL 1.54180   50.00000   50.00000   50.00000   90.00000   90.00000   90.00000
LATT -1
SFAC C  
C      1  0.5185590000000  0.5031250000000  0.4163450000000 1.0
C      1  0.5208860000000  0.5125020000000  0.4880720000000 1.0
C      1  0.5510210000000  0.4339060000000  0.5578350000000 1.0
C      1  0.5288460000000  0.5506450000000  0.5728680000000 1.0
C      1  0.4567720000000  0.4709210000000  0.4336030000000 1.0
C      1  0.4456250000000  0.5169610000000  0.5072430000000 1.0
C      1  0.4672570000000  0.4592200000000  0.5076190000000 1.0
C      1  0.4447190000000  0.4420820000000  0.5181510000000 1.0
C      1  0.5872500000000  0.5713980000000  0.4813390000000 1.0
C      1  0.5557970000000  0.5623120000000  0.5263910000000 1.0
C      1  0.5386780000000  0.5845370000000  0.4772160000000 1.0
C      1  0.4706170000000  0.4640460000000  0.4803040000000 1.0
C      1  0.5328540000000  0.5283390000000  0.5085840000000 1.0
C      1  0.4233160000000  0.4621770000000  0.4744340000000 1.0
C      1  0.5054500000000  0.4729350000000  0.5360830000000 1.0
C      1  0.5668610000000  0.4850030000000  0.5549050000000 1.0
C      1  0.4842270000000  0.4644940000000  0.4244660000000 1.0
C      1  0.5695410000000  0.5256690000000  0.4467760000000 1.0
C      1  0.4909390000000  0.5040120000000  0.4848220000000 1.0
C      1  0.4524770000000  0.5439650000000  0.5609120000000 1.0
C      1  0.5728810000000  0.4902170000000  0.5145150000000 1.0
C      1  0.5029610000000  0.4220150000000  0.4574360000000 1.0
C      1  0.4779050000000  0.5925770000000  0.4984010000000 1.0
C      1  0.5021070000000  0.5423210000000  0.4546950000000 1.0
C      1  0.4551700000000  0.5678340000000  0.5480420000000 1.0
C      1  0.4479740000000  0.5567130000000  0.4499740000000 1.0
C      1  0.5548040000000  0.4836310000000  0.5305950000000 1.0
C      1  0.5020600000000  0.5560700000000  0.5628240000000 1.0
C      1  0.5370480000000  0.5216850000000  0.5849080000000 1.0
C      1  0.4843180000000  0.5749550000000  0.5484580000000 1.0
C      1  0.4543680000000  0.4317630000000  0.5455950000000 1.0
C      1  0.5226390000000  0.5257610000000  0.4395220000000 1.0
C      1  0.5367880000000  0.4813180000000  0.4522550000000 1.0
C      1  0.4817720000000  0.5246230000000  0.4656840000000 1.0
C      1  0.4370310000000  0.4227190000000  0.4979020000000 1.0
C      1  0.4064060000000  0.5069430000000  0.4945010000000 1.0
C      1  0.4799300000000  0.4790590000000  0.5235460000000 1.0
C      1  0.5309450000000  0.5069830000000  0.4616840000000 1.0
C      1  0.4279370000000  0.5143840000000  0.5299900000000 1.0
C      1  0.4368450000000  0.5723600000000  0.5224210000000 1.0
C      1  0.5579660000000  0.5101350000000  0.5685630000000 1.0
C      1  0.4298520000000  0.5193230000000  0.4826460000000 1.0
C      1  0.5208910000000  0.4144220000000  0.4800080000000 1.0
C      1  0.4042380000000  0.5276100000000  0.5167980000000 1.0
C      1  0.4922890000000  0.5517350000000  0.5097400000000 1.0
C      1  0.4919630000000  0.5792530000000  0.5205430000000 1.0
C      1  0.5628880000000  0.4232380000000  0.5136200000000 1.0
C      1  0.5183880000000  0.4692140000000  0.4715160000000 1.0
C      1  0.5815220000000  0.5200970000000  0.4725460000000 1.0
C      1  0.5568490000000  0.4478270000000  0.4810120000000 1.0
C      1  0.5494920000000  0.5842220000000  0.5043450000000 1.0
C      1  0.4792980000000  0.5860710000000  0.4689860000000 1.0
C      1  0.4507640000000  0.4157980000000  0.4750410000000 1.0
C      1  0.4306910000000  0.4743860000000  0.5492910000000 1.0
C      1  0.4938980000000  0.5697310000000  0.4486260000000 1.0
C      1  0.4483300000000  0.4544300000000  0.5620180000000 1.0
C      1  0.4326270000000  0.5029120000000  0.5563270000000 1.0
C      1  0.4994550000000  0.4432800000000  0.4368860000000 1.0
C      1  0.5737260000000  0.4322150000000  0.5386120000000 1.0
C      1  0.4971380000000  0.5284450000000  0.5512680000000 1.0
C      1  0.4730430000000  0.5169660000000  0.4412180000000 1.0
C      1  0.5689660000000  0.5918410000000  0.4840280000000 1.0
C      1  0.4978190000000  0.4044660000000  0.4936440000000 1.0
C      1  0.5509040000000  0.5570360000000  0.5557700000000 1.0
C      1  0.5044920000000  0.4152140000000  0.5539920000000 1.0
C      1  0.5682610000000  0.5034920000000  0.4268050000000 1.0
C      1  0.5319390000000  0.4574320000000  0.4953820000000 1.0
C      1  0.5538310000000  0.5303730000000  0.5497960000000 1.0
C      1  0.4471470000000  0.4938870000000  0.4174840000000 1.0
C      1  0.5288080000000  0.5210780000000  0.5363620000000 1.0
C      1  0.5698650000000  0.4552980000000  0.5584170000000 1.0
C      1  0.4232710000000  0.4658140000000  0.5226190000000 1.0
C      1  0.4812940000000  0.5298870000000  0.5263140000000 1.0
C      1  0.4805680000000  0.4025640000000  0.5398860000000 1.0
C      1  0.5753730000000  0.5495640000000  0.5127150000000 1.0
C      1  0.4741970000000  0.4634880000000  0.5757500000000 1.0
C      1  0.4712490000000  0.5577150000000  0.4325230000000 1.0
C      1  0.4488020000000  0.4682370000000  0.4614950000000 1.0
C      1  0.4494490000000  0.5849370000000  0.4987100000000 1.0
C      1  0.4809920000000  0.5146990000000  0.5748430000000 1.0
C      1  0.4904470000000  0.3988990000000  0.5188940000000 1.0
C      1  0.4817790000000  0.4290240000000  0.5437030000000 1.0
C      1  0.4704140000000  0.5061810000000  0.4026310000000 1.0
C      1  0.4987330000000  0.5098470000000  0.5948960000000 1.0
C      1  0.5808450000000  0.4952860000000  0.4892690000000 1.0
C      1  0.5201240000000  0.4493870000000  0.5205680000000 1.0
C      1  0.4138420000000  0.4776590000000  0.4984340000000 1.0
C      1  0.4941590000000  0.4898820000000  0.4094600000000 1.0
C      1  0.5843200000000  0.4648620000000  0.4555460000000 1.0
C      1  0.5806740000000  0.4802080000000  0.4352080000000 1.0
C      1  0.5466290000000  0.5446440000000  0.4426400000000 1.0
C      1  0.4291480000000  0.5129560000000  0.4321810000000 1.0
C      1  0.5262190000000  0.4301680000000  0.5416300000000 1.0
C      1  0.4757480000000  0.5316260000000  0.4178660000000 1.0
C      1  0.5422890000000  0.4883180000000  0.4233670000000 1.0
C      1  0.5499580000000  0.4193460000000  0.4882060000000 1.0
C      1  0.4923500000000  0.4786470000000  0.4742380000000 1.0
C      1  0.5909490000000  0.5442010000000  0.4889950000000 1.0
C      1  0.4753180000000  0.5047840000000  0.5123160000000 1.0
C      1  0.4797470000000  0.4135370000000  0.4736400000000 1.0
C      1  0.4511340000000  0.5191630000000  0.5733070000000 1.0
C      1  0.5815790000000  0.4650590000000  0.4830050000000 1.0
C      1  0.5012650000000  0.4678520000000  0.5682040000000 1.0
C      1  0.5343290000000  0.5662910000000  0.4560550000000 1.0
C      1  0.5212880000000  0.5088080000000  0.6047840000000 1.0
C      1  0.5286580000000  0.4920650000000  0.5325930000000 1.0
C      1  0.5148490000000  0.5437330000000  0.4944550000000 1.0
C      1  0.4171850000000  0.5532610000000  0.5178500000000 1.0
C      1  0.4320400000000  0.5317480000000  0.4543380000000 1.0
C      1  0.4269020000000  0.4332720000000  0.4753170000000 1.0
C      1  0.4509650000000  0.5787720000000  0.4693410000000 1.0
END
