TITL C-4164234-2335-702 -0.189409033986639 125000 -9354.00068047421 0 0 64 (C1) n - 1
REM
REM in /home/nfs/bkarasulu/CARBON/AIRSS/Generating-Clusters/ReaxFF-fromJPCA2015/Units_Real/with-SteepDescent/Only-C1/SD-CG/Try1-3A/FIRE-CG
REM
REM
REM
REM
REM
REM ./C.cell (11c1c37f851c82e70ff6c80c92926a4b)
REM
REM compiler GCC version 9.2.1 20190827 (Red Hat 9.2.1-1)
REM options -cpp -mtune=generic -march=x86-64 -g -O0 -fpre-include=/usr/include/finclude/math-vector-fortran.h
REM seed -1962149956 1613304153 1766332725 258791745 -1830441426 1846596970 2146214571 599943519 1877362992 -1902537852 -54006705 -2074547168 -75219718 -1370053297 -1689009841 872634722 -578426781 -1838747024 907827402 1762558129 1276166886 295020572 1371197862 1800567236 -1923999978 -2012229050 -612121581 1152843315 -1776896857 -1982581553 661343897 1404101537 301513226
REM
CELL 1.54180   50.00000   50.00000   50.00000   90.00000   90.00000   90.00000
LATT -1
SFAC C  
C      1  0.4414580000000  0.5423660000000  0.5138930000000 1.0
C      1  0.5687940000000  0.5431420000000  0.5396960000000 1.0
C      1  0.5706740000000  0.5415200000000  0.5094880000000 1.0
C      1  0.5199200000000  0.5139130000000  0.5906990000000 1.0
C      1  0.5485290000000  0.5605880000000  0.5068510000000 1.0
C      1  0.4989770000000  0.4283000000000  0.5004410000000 1.0
C      1  0.4516930000000  0.4900080000000  0.5638260000000 1.0
C      1  0.5311670000000  0.5676150000000  0.4844950000000 1.0
C      1  0.5279650000000  0.5507390000000  0.4573640000000 1.0
C      1  0.5443930000000  0.5601920000000  0.5363660000000 1.0
C      1  0.4806690000000  0.5816360000000  0.4971460000000 1.0
C      1  0.4708080000000  0.5353310000000  0.5597390000000 1.0
C      1  0.4923400000000  0.5360030000000  0.5174900000000 1.0
C      1  0.4931410000000  0.4949990000000  0.4329230000000 1.0
C      1  0.5262200000000  0.4498700000000  0.4688080000000 1.0
C      1  0.4519290000000  0.4936430000000  0.5123290000000 1.0
C      1  0.5640410000000  0.5241630000000  0.5623510000000 1.0
C      1  0.4823930000000  0.4754870000000  0.4844240000000 1.0
C      1  0.5258260000000  0.4173540000000  0.5026010000000 1.0
C      1  0.5168520000000  0.4795680000000  0.5130870000000 1.0
C      1  0.4923500000000  0.4574950000000  0.5073940000000 1.0
C      1  0.5332850000000  0.4308800000000  0.5259490000000 1.0
C      1  0.4253580000000  0.4958100000000  0.4995290000000 1.0
C      1  0.5815080000000  0.4931300000000  0.4952130000000 1.0
C      1  0.4750050000000  0.5019540000000  0.4940730000000 1.0
C      1  0.5004940000000  0.4826390000000  0.4045510000000 1.0
C      1  0.4453700000000  0.5056760000000  0.4463780000000 1.0
C      1  0.4746980000000  0.4564900000000  0.5336090000000 1.0
C      1  0.5285910000000  0.4930350000000  0.4050440000000 1.0
C      1  0.4335260000000  0.4802370000000  0.4770440000000 1.0
C      1  0.5347420000000  0.4492280000000  0.5432970000000 1.0
C      1  0.4697360000000  0.5494820000000  0.5021280000000 1.0
C      1  0.4492720000000  0.4774790000000  0.4542160000000 1.0
C      1  0.4954200000000  0.5447770000000  0.5449540000000 1.0
C      1  0.4989420000000  0.4962880000000  0.5804840000000 1.0
C      1  0.5612200000000  0.4788200000000  0.4927170000000 1.0
C      1  0.4362480000000  0.4099030000000  0.4710930000000 1.0
C      1  0.5347570000000  0.4701440000000  0.4912540000000 1.0
C      1  0.4775690000000  0.5389950000000  0.4483170000000 1.0
C      1  0.5224890000000  0.5061680000000  0.4317040000000 1.0
C      1  0.4540010000000  0.4769510000000  0.5364450000000 1.0
C      1  0.4720490000000  0.5085000000000  0.5737830000000 1.0
C      1  0.4384800000000  0.5256000000000  0.4683950000000 1.0
C      1  0.5065590000000  0.5768980000000  0.4912220000000 1.0
C      1  0.5266180000000  0.4753610000000  0.5413880000000 1.0
C      1  0.5233780000000  0.5497710000000  0.5538350000000 1.0
C      1  0.5368790000000  0.5319930000000  0.5731880000000 1.0
C      1  0.5093350000000  0.4720060000000  0.5654180000000 1.0
C      1  0.4263720000000  0.5250620000000  0.4945900000000 1.0
C      1  0.4659910000000  0.5308570000000  0.4767470000000 1.0
C      1  0.5437620000000  0.5175130000000  0.4740690000000 1.0
C      1  0.4863610000000  0.4241440000000  0.4740520000000 1.0
C      1  0.5715740000000  0.5188120000000  0.4909150000000 1.0
C      1  0.5028650000000  0.5449920000000  0.4528030000000 1.0
C      1  0.5051640000000  0.5115900000000  0.5053510000000 1.0
C      1  0.4703790000000  0.5143110000000  0.4339620000000 1.0
C      1  0.5395970000000  0.4247150000000  0.4755640000000 1.0
C      1  0.5230400000000  0.5189340000000  0.4839420000000 1.0
C      1  0.4526220000000  0.5383700000000  0.5389190000000 1.0
C      1  0.4593100000000  0.4164570000000  0.4724550000000 1.0
C      1  0.4811800000000  0.4706540000000  0.4552140000000 1.0
C      1  0.4878670000000  0.4510000000000  0.5592420000000 1.0
C      1  0.4985270000000  0.4463750000000  0.4583490000000 1.0
C      1  0.5397220000000  0.5240650000000  0.4471880000000 1.0
END
