TITL C-4164242-3624-695 0.832616033490468 125000 -5847.91835632443 0 0 40 (C1) n - 1
REM
REM in /home/nfs/bkarasulu/CARBON/AIRSS/Generating-Clusters/ReaxFF-fromJPCA2015/Units_Real/with-SteepDescent/Only-C1/SD-CG/Try1-3A/FIRE-CG
REM
REM
REM
REM
REM
REM ./C.cell (11c1c37f851c82e70ff6c80c92926a4b)
REM
REM compiler GCC version 9.2.1 20190827 (Red Hat 9.2.1-1)
REM options -cpp -mtune=generic -march=x86-64 -g -O0 -fpre-include=/usr/include/finclude/math-vector-fortran.h
REM seed -1651324043 1085650796 -1760160266 1132742862 1906517272 -1653232468 -1808861927 -676655106 -1715615292 -1984483658 -815549527 127970053 1594604394 821937646 -797015532 -630865563 2023559077 -1190814419 750004931 1477925466 1130542829 586395430 -307733838 1874502750 2093140833 30769844 -2014801784 1684751214 2013311311 1672060160 -2114224803 -526439088 7474044
REM
CELL 1.54180   50.00000   50.00000   50.00000   90.00000   90.00000   90.00000
LATT -1
SFAC C  
C      1  0.5045370000000  0.5301830000000  0.5423450000000 1.0
C      1  0.4617360000000  0.4995130000000  0.5371180000000 1.0
C      1  0.4770880000000  0.5247310000000  0.5350570000000 1.0
C      1  0.5146380000000  0.4598990000000  0.4558720000000 1.0
C      1  0.5398210000000  0.4752490000000  0.4555820000000 1.0
C      1  0.5212050000000  0.4528390000000  0.5488420000000 1.0
C      1  0.4879640000000  0.4861860000000  0.5001420000000 1.0
C      1  0.4709800000000  0.4758940000000  0.5224890000000 1.0
C      1  0.4608500000000  0.4678850000000  0.4556080000000 1.0
C      1  0.4403980000000  0.4697560000000  0.5172570000000 1.0
C      1  0.4723070000000  0.5042730000000  0.4822080000000 1.0
C      1  0.5537430000000  0.5045420000000  0.5009430000000 1.0
C      1  0.4941500000000  0.4254670000000  0.4935310000000 1.0
C      1  0.4463770000000  0.4869840000000  0.4722980000000 1.0
C      1  0.4920900000000  0.5465390000000  0.4712440000000 1.0
C      1  0.5429380000000  0.4946490000000  0.5259690000000 1.0
C      1  0.4673850000000  0.5444320000000  0.5145580000000 1.0
C      1  0.4805110000000  0.4629730000000  0.5424810000000 1.0
C      1  0.5500850000000  0.5332420000000  0.5020820000000 1.0
C      1  0.4359890000000  0.4969730000000  0.5226670000000 1.0
C      1  0.4716840000000  0.5349830000000  0.4877460000000 1.0
C      1  0.4770980000000  0.5732650000000  0.5164930000000 1.0
C      1  0.5180110000000  0.5549220000000  0.5330420000000 1.0
C      1  0.4291370000000  0.4853630000000  0.4958170000000 1.0
C      1  0.5118040000000  0.4470160000000  0.4820450000000 1.0
C      1  0.5117910000000  0.4701660000000  0.4999080000000 1.0
C      1  0.5043830000000  0.5262010000000  0.4538140000000 1.0
C      1  0.5137590000000  0.5615030000000  0.4843690000000 1.0
C      1  0.4937550000000  0.4395350000000  0.5482940000000 1.0
C      1  0.5417580000000  0.5400170000000  0.5285080000000 1.0
C      1  0.5063740000000  0.5714440000000  0.5112790000000 1.0
C      1  0.5564180000000  0.4893970000000  0.4757050000000 1.0
C      1  0.5291680000000  0.4686910000000  0.5246970000000 1.0
C      1  0.5479980000000  0.5033310000000  0.4515910000000 1.0
C      1  0.5376450000000  0.5458110000000  0.4789930000000 1.0
C      1  0.4878390000000  0.4257470000000  0.5224990000000 1.0
C      1  0.5314420000000  0.5166330000000  0.5413750000000 1.0
C      1  0.4899730000000  0.4743750000000  0.4489240000000 1.0
C      1  0.5332230000000  0.5285560000000  0.4555740000000 1.0
C      1  0.4919500000000  0.5008390000000  0.4610350000000 1.0
END
