TITL C-4164241-3639-232 34.3104585760123 125000 -15952.8095369403 0 0 110 (C1) n - 1
REM
REM in /home/nfs/bkarasulu/CARBON/AIRSS/Generating-Clusters/ReaxFF-fromJPCA2015/Units_Real/with-SteepDescent/Only-C1/SD-CG/Try1-3A/FIRE-CG
REM
REM
REM
REM
REM
REM ./C.cell (11c1c37f851c82e70ff6c80c92926a4b)
REM
REM compiler GCC version 9.2.1 20190827 (Red Hat 9.2.1-1)
REM options -cpp -mtune=generic -march=x86-64 -g -O0 -fpre-include=/usr/include/finclude/math-vector-fortran.h
REM seed -324145304 -1423724468 1955074134 -231671007 -1366246252 695678729 341213390 -1825339485 -219915280 1902008092 -871446586 -726044071 168340867 2080701641 -1072990476 1952988747 -2017870071 1922127492 -272755287 -1044051388 982483085 1021081905 360893573 -152792522 1389263410 822129227 -1584778617 932550483 -321604640 -1850964007 -328664582 693958793 1452561832
REM
CELL 1.54180   50.00000   50.00000   50.00000   90.00000   90.00000   90.00000
LATT -1
SFAC C  
C      1  0.4712110000000  0.5116010000000  0.4236970000000 1.0
C      1  0.4227000000000  0.4886940000000  0.5368490000000 1.0
C      1  0.5403650000000  0.5790050000000  0.5294620000000 1.0
C      1  0.4426300000000  0.5095090000000  0.4276310000000 1.0
C      1  0.5184880000000  0.5335940000000  0.5476650000000 1.0
C      1  0.4959040000000  0.5688430000000  0.5650080000000 1.0
C      1  0.5276530000000  0.4064940000000  0.4958830000000 1.0
C      1  0.5834660000000  0.4756090000000  0.4689600000000 1.0
C      1  0.4741860000000  0.4763090000000  0.5402060000000 1.0
C      1  0.4797120000000  0.5591930000000  0.4956080000000 1.0
C      1  0.4185280000000  0.4545570000000  0.5111250000000 1.0
C      1  0.4282050000000  0.5502040000000  0.4568550000000 1.0
C      1  0.5264310000000  0.5359670000000  0.5765120000000 1.0
C      1  0.4612000000000  0.5547560000000  0.4336490000000 1.0
C      1  0.5196090000000  0.4404700000000  0.4203820000000 1.0
C      1  0.5597270000000  0.5154430000000  0.4497060000000 1.0
C      1  0.5757190000000  0.4963650000000  0.5570410000000 1.0
C      1  0.5371940000000  0.5113620000000  0.5891800000000 1.0
C      1  0.5070110000000  0.5499650000000  0.4450900000000 1.0
C      1  0.4935810000000  0.5132370000000  0.5230730000000 1.0
C      1  0.5806250000000  0.5061920000000  0.4670250000000 1.0
C      1  0.4738030000000  0.4205560000000  0.4490630000000 1.0
C      1  0.5352890000000  0.5186630000000  0.5045510000000 1.0
C      1  0.5810940000000  0.5333150000000  0.4813430000000 1.0
C      1  0.4363030000000  0.5678070000000  0.4765030000000 1.0
C      1  0.5130630000000  0.4684070000000  0.4152830000000 1.0
C      1  0.4581290000000  0.4067180000000  0.4706530000000 1.0
C      1  0.4510150000000  0.4874460000000  0.5288720000000 1.0
C      1  0.4376500000000  0.5220470000000  0.5599260000000 1.0
C      1  0.5075340000000  0.5461200000000  0.4170370000000 1.0
C      1  0.4399260000000  0.5384920000000  0.4828200000000 1.0
C      1  0.5627580000000  0.5099580000000  0.5107850000000 1.0
C      1  0.5053630000000  0.5935390000000  0.4667190000000 1.0
C      1  0.5383240000000  0.4941280000000  0.4438510000000 1.0
C      1  0.5513040000000  0.4515270000000  0.5438360000000 1.0
C      1  0.4763880000000  0.4099730000000  0.4945000000000 1.0
C      1  0.4647720000000  0.4486850000000  0.4471350000000 1.0
C      1  0.5274110000000  0.4214930000000  0.4412880000000 1.0
C      1  0.4055310000000  0.4804350000000  0.5146470000000 1.0
C      1  0.5180500000000  0.4277450000000  0.5427760000000 1.0
C      1  0.5736850000000  0.5369280000000  0.5100720000000 1.0
C      1  0.5787580000000  0.4907490000000  0.5302510000000 1.0
C      1  0.4763860000000  0.4522050000000  0.5558920000000 1.0
C      1  0.5340010000000  0.5852200000000  0.4707910000000 1.0
C      1  0.4385310000000  0.5394930000000  0.4341970000000 1.0
C      1  0.5191310000000  0.4705540000000  0.5079060000000 1.0
C      1  0.4279180000000  0.4707660000000  0.5590470000000 1.0
C      1  0.4334070000000  0.4845500000000  0.4399140000000 1.0
C      1  0.4375300000000  0.4588340000000  0.4533430000000 1.0
C      1  0.4798180000000  0.5111880000000  0.4993440000000 1.0
C      1  0.4855730000000  0.4674150000000  0.5799470000000 1.0
C      1  0.4245470000000  0.5275640000000  0.5071050000000 1.0
C      1  0.5174060000000  0.5781610000000  0.5480210000000 1.0
C      1  0.5089730000000  0.4649580000000  0.4632040000000 1.0
C      1  0.5071130000000  0.5700180000000  0.5061560000000 1.0
C      1  0.4375810000000  0.4581140000000  0.4855910000000 1.0
C      1  0.5164120000000  0.5100580000000  0.4840520000000 1.0
C      1  0.5154040000000  0.4617880000000  0.5829250000000 1.0
C      1  0.5033810000000  0.4869480000000  0.5288510000000 1.0
C      1  0.5025670000000  0.4124600000000  0.4537730000000 1.0
C      1  0.5344060000000  0.5766000000000  0.4986060000000 1.0
C      1  0.5508820000000  0.4298850000000  0.4572130000000 1.0
C      1  0.5488250000000  0.5019610000000  0.5622270000000 1.0
C      1  0.5570090000000  0.4729620000000  0.4317100000000 1.0
C      1  0.5635060000000  0.4229220000000  0.5097620000000 1.0
C      1  0.4613270000000  0.5809470000000  0.4803590000000 1.0
C      1  0.4447830000000  0.4942870000000  0.5702530000000 1.0
C      1  0.5784510000000  0.4615270000000  0.5371550000000 1.0
C      1  0.5549530000000  0.5531770000000  0.5262700000000 1.0
C      1  0.5297720000000  0.5410480000000  0.5216840000000 1.0
C      1  0.5681000000000  0.4540030000000  0.4510830000000 1.0
C      1  0.4677430000000  0.5732840000000  0.5208340000000 1.0
C      1  0.5219320000000  0.4594940000000  0.4401050000000 1.0
C      1  0.4812680000000  0.4658110000000  0.4642640000000 1.0
C      1  0.5615370000000  0.5431810000000  0.4608170000000 1.0
C      1  0.5135390000000  0.4948870000000  0.4278460000000 1.0
C      1  0.5248570000000  0.4865510000000  0.5919180000000 1.0
C      1  0.4693330000000  0.4586540000000  0.4916910000000 1.0
C      1  0.4332590000000  0.5350910000000  0.5337330000000 1.0
C      1  0.5008930000000  0.5465160000000  0.5840530000000 1.0
C      1  0.4550270000000  0.5402500000000  0.5742030000000 1.0
C      1  0.4600320000000  0.4905450000000  0.5003230000000 1.0
C      1  0.4975790000000  0.5230930000000  0.4634350000000 1.0
C      1  0.5292170000000  0.4881840000000  0.5435520000000 1.0
C      1  0.5836120000000  0.4608250000000  0.4902050000000 1.0
C      1  0.4967160000000  0.5965010000000  0.4956830000000 1.0
C      1  0.5461600000000  0.5662390000000  0.4522180000000 1.0
C      1  0.4649140000000  0.5644380000000  0.5612580000000 1.0
C      1  0.5366990000000  0.4166770000000  0.5218100000000 1.0
C      1  0.5236880000000  0.4813220000000  0.4805660000000 1.0
C      1  0.4889400000000  0.5783150000000  0.4472310000000 1.0
C      1  0.4787370000000  0.5399670000000  0.4173990000000 1.0
C      1  0.5304870000000  0.4443330000000  0.5631680000000 1.0
C      1  0.4269620000000  0.4482230000000  0.5385470000000 1.0
C      1  0.4897490000000  0.5010840000000  0.4439880000000 1.0
C      1  0.4774450000000  0.4353660000000  0.5094730000000 1.0
C      1  0.4710310000000  0.4929010000000  0.5815410000000 1.0
C      1  0.4741740000000  0.5329140000000  0.4839500000000 1.0
C      1  0.5025070000000  0.4042670000000  0.4814310000000 1.0
C      1  0.4895150000000  0.4345530000000  0.5363130000000 1.0
C      1  0.4909510000000  0.5274620000000  0.5480260000000 1.0
C      1  0.4684020000000  0.5971640000000  0.5034980000000 1.0
C      1  0.4146990000000  0.5019580000000  0.4969660000000 1.0
C      1  0.4357490000000  0.4875440000000  0.4829070000000 1.0
C      1  0.4803160000000  0.5235180000000  0.5776830000000 1.0
C      1  0.5531430000000  0.4161670000000  0.4829550000000 1.0
C      1  0.5836940000000  0.4449270000000  0.5128980000000 1.0
C      1  0.4476350000000  0.5616090000000  0.5379200000000 1.0
C      1  0.5306680000000  0.5548360000000  0.4301270000000 1.0
C      1  0.5391990000000  0.4696310000000  0.5265620000000 1.0
END
