TITL C-4164234-2335-654 -6.78246014162508 125000 -13452.723777249 0 0 91 (C1) n - 1
REM
REM in /home/nfs/bkarasulu/CARBON/AIRSS/Generating-Clusters/ReaxFF-fromJPCA2015/Units_Real/with-SteepDescent/Only-C1/SD-CG/Try1-3A/FIRE-CG
REM
REM
REM
REM
REM
REM ./C.cell (11c1c37f851c82e70ff6c80c92926a4b)
REM
REM compiler GCC version 9.2.1 20190827 (Red Hat 9.2.1-1)
REM options -cpp -mtune=generic -march=x86-64 -g -O0 -fpre-include=/usr/include/finclude/math-vector-fortran.h
REM seed 2025338288 -35881649 1253390693 340849978 -283620887 748857587 -891336543 841230833 -241078479 447616673 1379279201 -352989689 357768997 -1883851957 1217351643 1018908716 159102509 -2111542501 1949343445 -629496242 -1642403399 -1754491139 -532213905 498950464 67502633 -2044873521 -837450040 1289771670 -361350737 1861514853 966891355 -1352340691 -377786179
REM
CELL 1.54180   50.00000   50.00000   50.00000   90.00000   90.00000   90.00000
LATT -1
SFAC C  
C      1  0.5538810000000  0.4918600000000  0.4504070000000 1.0
C      1  0.4314860000000  0.4849130000000  0.5552810000000 1.0
C      1  0.5722580000000  0.4250660000000  0.4904710000000 1.0
C      1  0.4768210000000  0.5565410000000  0.5295130000000 1.0
C      1  0.5811760000000  0.5250680000000  0.5354570000000 1.0
C      1  0.5586730000000  0.5098340000000  0.4746150000000 1.0
C      1  0.5870750000000  0.5105640000000  0.5127030000000 1.0
C      1  0.4944700000000  0.4303300000000  0.5502040000000 1.0
C      1  0.5684230000000  0.4074840000000  0.5056780000000 1.0
C      1  0.5340630000000  0.5328060000000  0.4196760000000 1.0
C      1  0.5464850000000  0.5675230000000  0.5229120000000 1.0
C      1  0.5514090000000  0.4589310000000  0.5614790000000 1.0
C      1  0.5187140000000  0.4882460000000  0.4952800000000 1.0
C      1  0.4277950000000  0.4700610000000  0.4683830000000 1.0
C      1  0.5172610000000  0.4846330000000  0.4180670000000 1.0
C      1  0.5139010000000  0.5820220000000  0.4876500000000 1.0
C      1  0.5127000000000  0.4433470000000  0.5075910000000 1.0
C      1  0.5197840000000  0.5489150000000  0.5567890000000 1.0
C      1  0.5273160000000  0.4545370000000  0.5777660000000 1.0
C      1  0.4937630000000  0.4707070000000  0.4212360000000 1.0
C      1  0.4265010000000  0.4915790000000  0.4494630000000 1.0
C      1  0.5200330000000  0.5771010000000  0.5165190000000 1.0
C      1  0.4704320000000  0.4194010000000  0.4968590000000 1.0
C      1  0.4232210000000  0.5026300000000  0.5335040000000 1.0
C      1  0.4452370000000  0.5059360000000  0.4309180000000 1.0
C      1  0.4630980000000  0.5267140000000  0.4207280000000 1.0
C      1  0.5658940000000  0.5345150000000  0.5571710000000 1.0
C      1  0.4125330000000  0.5002840000000  0.5057250000000 1.0
C      1  0.5508220000000  0.5100460000000  0.5613980000000 1.0
C      1  0.5554490000000  0.5484620000000  0.5022660000000 1.0
C      1  0.4995780000000  0.5015710000000  0.5776980000000 1.0
C      1  0.5215410000000  0.4290960000000  0.5631210000000 1.0
C      1  0.5166460000000  0.5139300000000  0.4083200000000 1.0
C      1  0.4537050000000  0.5295740000000  0.5695370000000 1.0
C      1  0.4727990000000  0.5110540000000  0.5825000000000 1.0
C      1  0.4668460000000  0.4830800000000  0.5074990000000 1.0
C      1  0.4536970000000  0.4367180000000  0.4784460000000 1.0
C      1  0.5376320000000  0.5773460000000  0.4721760000000 1.0
C      1  0.4715190000000  0.4544180000000  0.4613180000000 1.0
C      1  0.5748180000000  0.4852410000000  0.5247270000000 1.0
C      1  0.4753250000000  0.5122880000000  0.4699490000000 1.0
C      1  0.5588090000000  0.4161370000000  0.5277550000000 1.0
C      1  0.4937200000000  0.4315590000000  0.4633850000000 1.0
C      1  0.4543220000000  0.5461680000000  0.5448420000000 1.0
C      1  0.4382110000000  0.4585170000000  0.5438410000000 1.0
C      1  0.5401330000000  0.5502650000000  0.4405590000000 1.0
C      1  0.5118250000000  0.5149570000000  0.5023520000000 1.0
C      1  0.4753790000000  0.5715150000000  0.4529070000000 1.0
C      1  0.4879210000000  0.4526960000000  0.5655890000000 1.0
C      1  0.4857510000000  0.4951330000000  0.5262550000000 1.0
C      1  0.5614250000000  0.4848470000000  0.5518860000000 1.0
C      1  0.4873320000000  0.5722150000000  0.4786660000000 1.0
C      1  0.4495620000000  0.5562820000000  0.4560200000000 1.0
C      1  0.4481390000000  0.5288470000000  0.4660320000000 1.0
C      1  0.4710860000000  0.4572790000000  0.4277460000000 1.0
C      1  0.4786870000000  0.4809050000000  0.4756740000000 1.0
C      1  0.5484400000000  0.4310260000000  0.5494430000000 1.0
C      1  0.4160290000000  0.5480450000000  0.5022570000000 1.0
C      1  0.5058820000000  0.5086750000000  0.5340970000000 1.0
C      1  0.4982490000000  0.5240820000000  0.4517080000000 1.0
C      1  0.4868240000000  0.5255490000000  0.4918030000000 1.0
C      1  0.5299320000000  0.4672220000000  0.5120120000000 1.0
C      1  0.4931800000000  0.5245730000000  0.4230820000000 1.0
C      1  0.5723470000000  0.4534240000000  0.4846180000000 1.0
C      1  0.4287760000000  0.4493360000000  0.4875460000000 1.0
C      1  0.5196800000000  0.5178410000000  0.5611800000000 1.0
C      1  0.5225430000000  0.5362230000000  0.4599180000000 1.0
C      1  0.4421490000000  0.5596350000000  0.5040000000000 1.0
C      1  0.5036360000000  0.5640730000000  0.5376670000000 1.0
C      1  0.4872100000000  0.4332720000000  0.5200860000000 1.0
C      1  0.4304250000000  0.5532330000000  0.5289120000000 1.0
C      1  0.5462400000000  0.5567970000000  0.5506100000000 1.0
C      1  0.5630670000000  0.4690510000000  0.4630410000000 1.0
C      1  0.5756930000000  0.5510300000000  0.4816380000000 1.0
C      1  0.4743890000000  0.5525620000000  0.4989360000000 1.0
C      1  0.5272900000000  0.4803850000000  0.4447170000000 1.0
C      1  0.4451270000000  0.5021530000000  0.5748130000000 1.0
C      1  0.5830040000000  0.5221380000000  0.4842340000000 1.0
C      1  0.5595850000000  0.4661910000000  0.5094040000000 1.0
C      1  0.4069780000000  0.5234890000000  0.4888740000000 1.0
C      1  0.5131820000000  0.4461000000000  0.4791210000000 1.0
C      1  0.4322860000000  0.4471810000000  0.5179230000000 1.0
C      1  0.5087930000000  0.4762380000000  0.4720370000000 1.0
C      1  0.4604890000000  0.4550450000000  0.5235350000000 1.0
C      1  0.5026010000000  0.4720330000000  0.5795780000000 1.0
C      1  0.4212900000000  0.5182010000000  0.4636640000000 1.0
C      1  0.5598390000000  0.5652740000000  0.4605020000000 1.0
C      1  0.5374660000000  0.5284410000000  0.4861680000000 1.0
C      1  0.4867570000000  0.4048330000000  0.4765800000000 1.0
C      1  0.4625950000000  0.5550920000000  0.4307860000000 1.0
C      1  0.4409460000000  0.4998680000000  0.5110060000000 1.0
END
