TITL C-4164241-3639-356 68.8454473685415 125000 -27061.2106582463 0 0 182 (C1) n - 1
REM
REM in /home/nfs/bkarasulu/CARBON/AIRSS/Generating-Clusters/ReaxFF-fromJPCA2015/Units_Real/with-SteepDescent/Only-C1/SD-CG/Try1-3A/FIRE-CG
REM
REM
REM
REM
REM
REM ./C.cell (11c1c37f851c82e70ff6c80c92926a4b)
REM
REM compiler GCC version 9.2.1 20190827 (Red Hat 9.2.1-1)
REM options -cpp -mtune=generic -march=x86-64 -g -O0 -fpre-include=/usr/include/finclude/math-vector-fortran.h
REM seed 1765968001 1021494239 -207482367 1397600017 -416477413 1329467368 1444593670 1676070029 1300029611 993317882 -1887792880 -797390977 -306325255 -1911809934 49508598 1780074497 -1556122444 -1726480672 -776760422 1181701783 -1850192998 -373212371 -875842018 -1593789995 314980339 769864045 -741415424 988433364 -736185742 -1358746290 514346164 1555836124 1451099952
REM
CELL 1.54180   50.00000   50.00000   50.00000   90.00000   90.00000   90.00000
LATT -1
SFAC C  
C      1  0.4249390000000  0.4934520000000  0.5261480000000 1.0
C      1  0.6125950000000  0.5139310000000  0.4880260000000 1.0
C      1  0.5394620000000  0.4073950000000  0.5245660000000 1.0
C      1  0.4551960000000  0.4489610000000  0.4748740000000 1.0
C      1  0.5009010000000  0.5617450000000  0.4153700000000 1.0
C      1  0.5642350000000  0.5369160000000  0.4233840000000 1.0
C      1  0.5406710000000  0.4448680000000  0.5899820000000 1.0
C      1  0.5665440000000  0.4174470000000  0.5254420000000 1.0
C      1  0.5806700000000  0.4814460000000  0.5610340000000 1.0
C      1  0.5039010000000  0.5230680000000  0.5956870000000 1.0
C      1  0.3971370000000  0.4730590000000  0.4902470000000 1.0
C      1  0.5133310000000  0.5249430000000  0.5683250000000 1.0
C      1  0.5191160000000  0.4797530000000  0.4635200000000 1.0
C      1  0.5011440000000  0.4056370000000  0.4619200000000 1.0
C      1  0.4652640000000  0.5474940000000  0.5895930000000 1.0
C      1  0.4882850000000  0.4841430000000  0.4930300000000 1.0
C      1  0.5161820000000  0.5361700000000  0.4611060000000 1.0
C      1  0.5997010000000  0.4511860000000  0.5408350000000 1.0
C      1  0.6021180000000  0.5328380000000  0.5370310000000 1.0
C      1  0.4529690000000  0.4075530000000  0.4415610000000 1.0
C      1  0.4084220000000  0.5310420000000  0.4657950000000 1.0
C      1  0.4594730000000  0.6095660000000  0.5039230000000 1.0
C      1  0.5891220000000  0.5669630000000  0.4645070000000 1.0
C      1  0.4425660000000  0.5742040000000  0.5690880000000 1.0
C      1  0.4998290000000  0.4981030000000  0.3752350000000 1.0
C      1  0.5683410000000  0.5413240000000  0.5037650000000 1.0
C      1  0.4630080000000  0.4767690000000  0.5014440000000 1.0
C      1  0.3926830000000  0.5281880000000  0.5411840000000 1.0
C      1  0.5678770000000  0.4819210000000  0.4541590000000 1.0
C      1  0.4446100000000  0.4363630000000  0.5631180000000 1.0
C      1  0.4992210000000  0.5801610000000  0.5794770000000 1.0
C      1  0.5819980000000  0.4445900000000  0.4496950000000 1.0
C      1  0.4883110000000  0.5749530000000  0.5190000000000 1.0
C      1  0.4363040000000  0.4568420000000  0.4317060000000 1.0
C      1  0.4645770000000  0.5913620000000  0.5251320000000 1.0
C      1  0.4102630000000  0.5703280000000  0.4983090000000 1.0
C      1  0.5544380000000  0.4698760000000  0.4317780000000 1.0
C      1  0.4043910000000  0.4515390000000  0.5085840000000 1.0
C      1  0.5054730000000  0.6173030000000  0.5388780000000 1.0
C      1  0.4019040000000  0.5560590000000  0.5465320000000 1.0
C      1  0.5736310000000  0.4894680000000  0.5879900000000 1.0
C      1  0.5705310000000  0.5446220000000  0.5748950000000 1.0
C      1  0.5370020000000  0.4904760000000  0.6090960000000 1.0
C      1  0.5739400000000  0.5195830000000  0.5893540000000 1.0
C      1  0.4419120000000  0.4743300000000  0.5890820000000 1.0
C      1  0.5777560000000  0.4321140000000  0.5482780000000 1.0
C      1  0.3932090000000  0.5250870000000  0.5123780000000 1.0
C      1  0.4719350000000  0.4173590000000  0.4212560000000 1.0
C      1  0.4533320000000  0.5008840000000  0.4613070000000 1.0
C      1  0.5634300000000  0.5300670000000  0.4649840000000 1.0
C      1  0.5307880000000  0.5617880000000  0.4220660000000 1.0
C      1  0.6097040000000  0.5056210000000  0.5448960000000 1.0
C      1  0.3992280000000  0.5442970000000  0.4907440000000 1.0
C      1  0.5578410000000  0.5037140000000  0.4684650000000 1.0
C      1  0.4591910000000  0.4706300000000  0.4513320000000 1.0
C      1  0.4994540000000  0.5406200000000  0.5500430000000 1.0
C      1  0.4220680000000  0.5061110000000  0.4737340000000 1.0
C      1  0.5839440000000  0.5515960000000  0.5495130000000 1.0
C      1  0.5120170000000  0.5177160000000  0.3910760000000 1.0
C      1  0.4833930000000  0.6139350000000  0.4963920000000 1.0
C      1  0.4653570000000  0.3870800000000  0.4876690000000 1.0
C      1  0.5981290000000  0.5370770000000  0.5059890000000 1.0
C      1  0.4052120000000  0.4822470000000  0.4641810000000 1.0
C      1  0.4833290000000  0.4751500000000  0.4348060000000 1.0
C      1  0.4512720000000  0.4584450000000  0.4041840000000 1.0
C      1  0.4210720000000  0.4544400000000  0.5579960000000 1.0
C      1  0.5521540000000  0.4682970000000  0.6010870000000 1.0
C      1  0.4075880000000  0.4990980000000  0.5027530000000 1.0
C      1  0.4985950000000  0.4387620000000  0.3978530000000 1.0
C      1  0.5382180000000  0.5775920000000  0.4451560000000 1.0
C      1  0.4473540000000  0.6002790000000  0.4853510000000 1.0
C      1  0.4747200000000  0.5239490000000  0.5974520000000 1.0
C      1  0.5758260000000  0.5750540000000  0.5309590000000 1.0
C      1  0.4195150000000  0.5566600000000  0.5703230000000 1.0
C      1  0.5125030000000  0.6007490000000  0.5624680000000 1.0
C      1  0.4231670000000  0.5269470000000  0.5710770000000 1.0
C      1  0.4871880000000  0.4502450000000  0.5950300000000 1.0
C      1  0.4337930000000  0.4106160000000  0.5201850000000 1.0
C      1  0.5840710000000  0.5789960000000  0.5048570000000 1.0
C      1  0.5306080000000  0.4197970000000  0.4997890000000 1.0
C      1  0.5085350000000  0.6133840000000  0.5093500000000 1.0
C      1  0.5310290000000  0.5932190000000  0.5027170000000 1.0
C      1  0.4180030000000  0.4809100000000  0.5731160000000 1.0
C      1  0.4847710000000  0.4594410000000  0.5491220000000 1.0
C      1  0.4701230000000  0.4420960000000  0.5295210000000 1.0
C      1  0.4689020000000  0.5730150000000  0.5825290000000 1.0
C      1  0.5730880000000  0.5104740000000  0.4143400000000 1.0
C      1  0.4139380000000  0.4777690000000  0.4368630000000 1.0
C      1  0.4330190000000  0.5233420000000  0.5426380000000 1.0
C      1  0.4721230000000  0.5021610000000  0.3781940000000 1.0
C      1  0.5542060000000  0.4361640000000  0.5651160000000 1.0
C      1  0.4127600000000  0.4656570000000  0.5327890000000 1.0
C      1  0.5846170000000  0.5373450000000  0.4462520000000 1.0
C      1  0.5436740000000  0.4187900000000  0.4232570000000 1.0
C      1  0.4739840000000  0.5302690000000  0.5426360000000 1.0
C      1  0.4854690000000  0.5579210000000  0.4958480000000 1.0
C      1  0.5206190000000  0.4060300000000  0.4340160000000 1.0
C      1  0.4638900000000  0.5208340000000  0.4419190000000 1.0
C      1  0.4446600000000  0.5626930000000  0.4695940000000 1.0
C      1  0.5089430000000  0.4566690000000  0.4772880000000 1.0
C      1  0.4508880000000  0.5439210000000  0.5336780000000 1.0
C      1  0.4773380000000  0.5067510000000  0.4776400000000 1.0
C      1  0.5076690000000  0.4193590000000  0.5649020000000 1.0
C      1  0.5353640000000  0.5337600000000  0.4321730000000 1.0
C      1  0.5262000000000  0.5707610000000  0.4858110000000 1.0
C      1  0.5092760000000  0.4966360000000  0.6074730000000 1.0
C      1  0.5507280000000  0.4916420000000  0.4124800000000 1.0
C      1  0.4973700000000  0.4346610000000  0.4628250000000 1.0
C      1  0.4941470000000  0.5411740000000  0.3944430000000 1.0
C      1  0.4685330000000  0.5015990000000  0.5425370000000 1.0
C      1  0.5292150000000  0.4484230000000  0.4956570000000 1.0
C      1  0.5951240000000  0.4836860000000  0.4489610000000 1.0
C      1  0.4772490000000  0.4839210000000  0.5625420000000 1.0
C      1  0.5936150000000  0.5095390000000  0.4346580000000 1.0
C      1  0.5024750000000  0.4952780000000  0.5165020000000 1.0
C      1  0.5012730000000  0.5231910000000  0.5096320000000 1.0
C      1  0.4571070000000  0.4181450000000  0.5405280000000 1.0
C      1  0.4887960000000  0.3920180000000  0.5063540000000 1.0
C      1  0.5541240000000  0.5530660000000  0.4811200000000 1.0
C      1  0.5411940000000  0.4721990000000  0.5077830000000 1.0
C      1  0.4860500000000  0.5658430000000  0.4387300000000 1.0
C      1  0.5111990000000  0.4003040000000  0.4896140000000 1.0
C      1  0.4140130000000  0.5319720000000  0.4367830000000 1.0
C      1  0.4287870000000  0.5825170000000  0.4791120000000 1.0
C      1  0.5691260000000  0.4744850000000  0.5147520000000 1.0
C      1  0.5175830000000  0.4173910000000  0.4079460000000 1.0
C      1  0.4345350000000  0.5486590000000  0.4237850000000 1.0
C      1  0.4670220000000  0.4924930000000  0.5900020000000 1.0
C      1  0.4142810000000  0.5728470000000  0.5264870000000 1.0
C      1  0.4036980000000  0.5063010000000  0.5659710000000 1.0
C      1  0.4922160000000  0.5179470000000  0.4532570000000 1.0
C      1  0.4453750000000  0.5078590000000  0.4146670000000 1.0
C      1  0.5508950000000  0.5141450000000  0.5368030000000 1.0
C      1  0.6322700000000  0.4960040000000  0.4879100000000 1.0
C      1  0.4431150000000  0.5750530000000  0.5374550000000 1.0
C      1  0.5239110000000  0.5245760000000  0.4912480000000 1.0
C      1  0.4632870000000  0.4506610000000  0.5025600000000 1.0
C      1  0.5702090000000  0.4927840000000  0.5364770000000 1.0
C      1  0.5620690000000  0.4417650000000  0.4292780000000 1.0
C      1  0.5825740000000  0.4287430000000  0.5014550000000 1.0
C      1  0.4748170000000  0.5285580000000  0.4983740000000 1.0
C      1  0.4313070000000  0.4331180000000  0.4743590000000 1.0
C      1  0.4584330000000  0.5518480000000  0.4916830000000 1.0
C      1  0.4177750000000  0.5043380000000  0.4262630000000 1.0
C      1  0.5057400000000  0.4931500000000  0.4411140000000 1.0
C      1  0.4584080000000  0.5538400000000  0.4428060000000 1.0
C      1  0.4993160000000  0.4571190000000  0.4203210000000 1.0
C      1  0.4686360000000  0.5317150000000  0.3856360000000 1.0
C      1  0.5303520000000  0.5822600000000  0.5472470000000 1.0
C      1  0.5341650000000  0.4947320000000  0.4833400000000 1.0
C      1  0.5819730000000  0.4358960000000  0.4746890000000 1.0
C      1  0.5113380000000  0.5665300000000  0.4598190000000 1.0
C      1  0.4708700000000  0.3957100000000  0.4614280000000 1.0
C      1  0.5624270000000  0.5771240000000  0.4617150000000 1.0
C      1  0.5492170000000  0.5067750000000  0.5877470000000 1.0
C      1  0.5114630000000  0.4355740000000  0.5891270000000 1.0
C      1  0.4332300000000  0.4290650000000  0.4456820000000 1.0
C      1  0.4379470000000  0.3880610000000  0.5017870000000 1.0
C      1  0.4522770000000  0.4904800000000  0.5217010000000 1.0
C      1  0.5084890000000  0.5643010000000  0.5376020000000 1.0
C      1  0.4896150000000  0.4357820000000  0.4366210000000 1.0
C      1  0.5135230000000  0.4607230000000  0.5450550000000 1.0
C      1  0.5437130000000  0.5534490000000  0.5813030000000 1.0
C      1  0.4182600000000  0.4266070000000  0.5008860000000 1.0
C      1  0.5457760000000  0.5292890000000  0.5126500000000 1.0
C      1  0.5322970000000  0.5062120000000  0.5578760000000 1.0
C      1  0.5277980000000  0.4377850000000  0.5519290000000 1.0
C      1  0.4692100000000  0.4358500000000  0.3985660000000 1.0
C      1  0.4867790000000  0.4007430000000  0.5337360000000 1.0
C      1  0.4549840000000  0.4853520000000  0.3961800000000 1.0
C      1  0.5184970000000  0.5602900000000  0.5870260000000 1.0
C      1  0.5262290000000  0.5073580000000  0.4169230000000 1.0
C      1  0.6085550000000  0.4773790000000  0.5531500000000 1.0
C      1  0.6084980000000  0.4869940000000  0.4754800000000 1.0
C      1  0.4438120000000  0.5350100000000  0.4003120000000 1.0
C      1  0.4576130000000  0.4497260000000  0.5849030000000 1.0
C      1  0.4889400000000  0.4776320000000  0.6023210000000 1.0
C      1  0.5500470000000  0.5889520000000  0.5259680000000 1.0
C      1  0.5896980000000  0.4545060000000  0.5137980000000 1.0
C      1  0.5141780000000  0.4009640000000  0.5427980000000 1.0
C      1  0.6021220000000  0.5648910000000  0.4898240000000 1.0
C      1  0.5242750000000  0.4830900000000  0.5321270000000 1.0
END
