TITL C-4164237-1827-479 31.138301440474 125000 -24111.0231624623 0 0 163 (C1) n - 1
REM
REM in /home/nfs/bkarasulu/CARBON/AIRSS/Generating-Clusters/ReaxFF-fromJPCA2015/Units_Real/with-SteepDescent/Only-C1/SD-CG/Try1-3A/FIRE-CG
REM
REM
REM
REM
REM
REM ./C.cell (11c1c37f851c82e70ff6c80c92926a4b)
REM
REM compiler GCC version 9.2.1 20190827 (Red Hat 9.2.1-1)
REM options -cpp -mtune=generic -march=x86-64 -g -O0 -fpre-include=/usr/include/finclude/math-vector-fortran.h
REM seed 998741887 -1020148409 -1967979188 -255065094 1102474464 -1416963952 -1672686993 -2036671072 -453460236 -976020107 -913809328 -293075295 -2139020831 -587074644 -883377188 640479215 2051364188 127362953 523032127 107471302 -799736137 -1155006699 -2059745736 1945404769 -1743922299 1249217048 1535464327 -1077803166 -81157760 -57726804 1380454787 -2005825961 -92412618
REM
CELL 1.54180   50.00000   50.00000   50.00000   90.00000   90.00000   90.00000
LATT -1
SFAC C  
C      1  0.5269520000000  0.5110600000000  0.4019610000000 1.0
C      1  0.5083430000000  0.5966410000000  0.4951660000000 1.0
C      1  0.5858520000000  0.5169910000000  0.5540050000000 1.0
C      1  0.5186700000000  0.5886770000000  0.4406300000000 1.0
C      1  0.5043210000000  0.4117880000000  0.4306790000000 1.0
C      1  0.4831130000000  0.5296090000000  0.4002830000000 1.0
C      1  0.4496530000000  0.4926110000000  0.4019410000000 1.0
C      1  0.4862650000000  0.4179220000000  0.5716860000000 1.0
C      1  0.4165150000000  0.5092880000000  0.4324540000000 1.0
C      1  0.5793320000000  0.5489910000000  0.5510620000000 1.0
C      1  0.5630640000000  0.4170550000000  0.5196400000000 1.0
C      1  0.4100690000000  0.5293120000000  0.4527240000000 1.0
C      1  0.3894660000000  0.5177480000000  0.5241160000000 1.0
C      1  0.4303410000000  0.5792130000000  0.4881130000000 1.0
C      1  0.5666820000000  0.4819440000000  0.4259720000000 1.0
C      1  0.5125750000000  0.4582210000000  0.5693710000000 1.0
C      1  0.5631930000000  0.5669930000000  0.5669880000000 1.0
C      1  0.5505790000000  0.5988390000000  0.4655460000000 1.0
C      1  0.5147200000000  0.4190840000000  0.5778980000000 1.0
C      1  0.5907300000000  0.5305710000000  0.5095540000000 1.0
C      1  0.4591520000000  0.5829600000000  0.4937070000000 1.0
C      1  0.3768390000000  0.5012020000000  0.5054150000000 1.0
C      1  0.4279930000000  0.4405180000000  0.4663980000000 1.0
C      1  0.5346930000000  0.4438120000000  0.4993560000000 1.0
C      1  0.4341990000000  0.4625430000000  0.4422750000000 1.0
C      1  0.4727360000000  0.4795170000000  0.5282610000000 1.0
C      1  0.5526140000000  0.4202960000000  0.4937320000000 1.0
C      1  0.5595070000000  0.5026820000000  0.5447250000000 1.0
C      1  0.5597810000000  0.4828990000000  0.5248550000000 1.0
C      1  0.4589190000000  0.5397390000000  0.4138720000000 1.0
C      1  0.5396530000000  0.5185670000000  0.5563930000000 1.0
C      1  0.4912720000000  0.5198650000000  0.5997550000000 1.0
C      1  0.4387790000000  0.5165480000000  0.4147970000000 1.0
C      1  0.4478380000000  0.4816920000000  0.4602540000000 1.0
C      1  0.4227360000000  0.4626260000000  0.5754890000000 1.0
C      1  0.5246430000000  0.4816970000000  0.3951230000000 1.0
C      1  0.4334130000000  0.5434430000000  0.4568180000000 1.0
C      1  0.5190740000000  0.4420880000000  0.4746230000000 1.0
C      1  0.5067070000000  0.5438920000000  0.4456420000000 1.0
C      1  0.5696770000000  0.5364730000000  0.4239650000000 1.0
C      1  0.4984470000000  0.4633580000000  0.4788780000000 1.0
C      1  0.5131500000000  0.4460470000000  0.5471840000000 1.0
C      1  0.5283640000000  0.4178820000000  0.5506110000000 1.0
C      1  0.5391570000000  0.4563920000000  0.4544890000000 1.0
C      1  0.5902340000000  0.5751210000000  0.4750390000000 1.0
C      1  0.5826590000000  0.5231610000000  0.4801860000000 1.0
C      1  0.3982160000000  0.5366730000000  0.5028390000000 1.0
C      1  0.5992040000000  0.4967740000000  0.4501950000000 1.0
C      1  0.4124810000000  0.4581630000000  0.4826960000000 1.0
C      1  0.4423810000000  0.5407030000000  0.5542020000000 1.0
C      1  0.4120320000000  0.5637310000000  0.5060120000000 1.0
C      1  0.5455270000000  0.5005850000000  0.4400660000000 1.0
C      1  0.5202550000000  0.5781720000000  0.5151190000000 1.0
C      1  0.4532420000000  0.4370770000000  0.5394300000000 1.0
C      1  0.4664730000000  0.5097840000000  0.5867820000000 1.0
C      1  0.5881130000000  0.4708080000000  0.4432560000000 1.0
C      1  0.4264830000000  0.4985220000000  0.5260220000000 1.0
C      1  0.4494160000000  0.4657970000000  0.4136730000000 1.0
C      1  0.4785540000000  0.4052430000000  0.4462500000000 1.0
C      1  0.4630350000000  0.5047720000000  0.4563250000000 1.0
C      1  0.5022840000000  0.5462520000000  0.5471920000000 1.0
C      1  0.5617520000000  0.4175700000000  0.5463050000000 1.0
C      1  0.5081700000000  0.5298010000000  0.4140610000000 1.0
C      1  0.5620270000000  0.4888000000000  0.5955490000000 1.0
C      1  0.5497500000000  0.4772170000000  0.4049520000000 1.0
C      1  0.4939080000000  0.4596000000000  0.5239670000000 1.0
C      1  0.4779690000000  0.5177510000000  0.4979170000000 1.0
C      1  0.5536940000000  0.4591930000000  0.5897800000000 1.0
C      1  0.4703330000000  0.4150300000000  0.5453870000000 1.0
C      1  0.4698980000000  0.5648910000000  0.5134720000000 1.0
C      1  0.4745940000000  0.4579760000000  0.4048790000000 1.0
C      1  0.4178260000000  0.4219930000000  0.5236970000000 1.0
C      1  0.5491150000000  0.5197360000000  0.4685460000000 1.0
C      1  0.6002870000000  0.5394200000000  0.4586990000000 1.0
C      1  0.5933090000000  0.4576130000000  0.5264630000000 1.0
C      1  0.4617100000000  0.4774840000000  0.5536540000000 1.0
C      1  0.4036210000000  0.4668880000000  0.5540130000000 1.0
C      1  0.4306550000000  0.4879900000000  0.5848720000000 1.0
C      1  0.5216880000000  0.5282390000000  0.5119900000000 1.0
C      1  0.4779150000000  0.4503710000000  0.5000010000000 1.0
C      1  0.5472630000000  0.5894250000000  0.5253710000000 1.0
C      1  0.4108770000000  0.4817730000000  0.4411740000000 1.0
C      1  0.4782050000000  0.5002550000000  0.3949750000000 1.0
C      1  0.4448140000000  0.5695460000000  0.5499720000000 1.0
C      1  0.5080540000000  0.4689440000000  0.6081790000000 1.0
C      1  0.5288490000000  0.5414320000000  0.4697090000000 1.0
C      1  0.5811850000000  0.4556560000000  0.4684920000000 1.0
C      1  0.3967200000000  0.4762310000000  0.4655160000000 1.0
C      1  0.5931170000000  0.5663380000000  0.4487040000000 1.0
C      1  0.5250760000000  0.5513300000000  0.4967980000000 1.0
C      1  0.4685870000000  0.4057230000000  0.4727680000000 1.0
C      1  0.5074360000000  0.4346960000000  0.4142300000000 1.0
C      1  0.5971250000000  0.5090500000000  0.5261400000000 1.0
C      1  0.5118300000000  0.4987110000000  0.6064230000000 1.0
C      1  0.5157570000000  0.5247470000000  0.5404490000000 1.0
C      1  0.5001320000000  0.5453360000000  0.5896860000000 1.0
C      1  0.4399380000000  0.4092960000000  0.5065000000000 1.0
C      1  0.4288620000000  0.4705370000000  0.5059580000000 1.0
C      1  0.4797370000000  0.6055030000000  0.5003320000000 1.0
C      1  0.4624390000000  0.5365130000000  0.5127920000000 1.0
C      1  0.5185220000000  0.4084230000000  0.5236970000000 1.0
C      1  0.4799820000000  0.5483210000000  0.4594840000000 1.0
C      1  0.4877280000000  0.4962830000000  0.4445210000000 1.0
C      1  0.5120040000000  0.4825330000000  0.5254340000000 1.0
C      1  0.4512390000000  0.4521020000000  0.5656000000000 1.0
C      1  0.4367930000000  0.5715820000000  0.4604770000000 1.0
C      1  0.4576870000000  0.5316230000000  0.4526290000000 1.0
C      1  0.5125560000000  0.5680620000000  0.5783960000000 1.0
C      1  0.4731120000000  0.5816870000000  0.5397270000000 1.0
C      1  0.4523940000000  0.4498260000000  0.5121600000000 1.0
C      1  0.4420330000000  0.5262730000000  0.5802330000000 1.0
C      1  0.5388250000000  0.5073720000000  0.6027200000000 1.0
C      1  0.5030060000000  0.4575430000000  0.3992080000000 1.0
C      1  0.5563270000000  0.4697300000000  0.4742690000000 1.0
C      1  0.5483000000000  0.5840910000000  0.4399830000000 1.0
C      1  0.5931820000000  0.5235020000000  0.4361840000000 1.0
C      1  0.5429960000000  0.5292150000000  0.5837290000000 1.0
C      1  0.5465440000000  0.5197960000000  0.4207250000000 1.0
C      1  0.5420020000000  0.4935840000000  0.4815420000000 1.0
C      1  0.5034260000000  0.5740360000000  0.5458870000000 1.0
C      1  0.5236590000000  0.4782960000000  0.4392370000000 1.0
C      1  0.4432820000000  0.4874470000000  0.4870480000000 1.0
C      1  0.5837870000000  0.5555290000000  0.5240230000000 1.0
C      1  0.5137830000000  0.4885770000000  0.4835630000000 1.0
C      1  0.5144520000000  0.4030150000000  0.5016150000000 1.0
C      1  0.5831680000000  0.4392720000000  0.5485430000000 1.0
C      1  0.5914020000000  0.4951910000000  0.4776380000000 1.0
C      1  0.5368350000000  0.4674960000000  0.5175380000000 1.0
C      1  0.5509470000000  0.4275840000000  0.4471560000000 1.0
C      1  0.5734630000000  0.5939030000000  0.4856690000000 1.0
C      1  0.4094390000000  0.4446230000000  0.5391790000000 1.0
C      1  0.4796180000000  0.4962500000000  0.5643160000000 1.0
C      1  0.4650300000000  0.5720100000000  0.4510000000000 1.0
C      1  0.5243260000000  0.4491990000000  0.5910520000000 1.0
C      1  0.5826200000000  0.5006390000000  0.5805130000000 1.0
C      1  0.3806490000000  0.4983570000000  0.4777870000000 1.0
C      1  0.5694180000000  0.4284320000000  0.4689940000000 1.0
C      1  0.5542170000000  0.5929230000000  0.5538870000000 1.0
C      1  0.4813960000000  0.4553080000000  0.6074530000000 1.0
C      1  0.4707080000000  0.4376890000000  0.5864330000000 1.0
C      1  0.4925620000000  0.4922240000000  0.4181460000000 1.0
C      1  0.4733110000000  0.6111420000000  0.5280300000000 1.0
C      1  0.4057850000000  0.4983430000000  0.5465940000000 1.0
C      1  0.5690860000000  0.4504990000000  0.5704380000000 1.0
C      1  0.5004630000000  0.5687800000000  0.4296680000000 1.0
C      1  0.5216920000000  0.6001620000000  0.4691280000000 1.0
C      1  0.4661460000000  0.4024670000000  0.5191570000000 1.0
C      1  0.4415170000000  0.5232130000000  0.5296740000000 1.0
C      1  0.5907380000000  0.4828430000000  0.5118650000000 1.0
C      1  0.5683670000000  0.5641730000000  0.4316590000000 1.0
C      1  0.4979200000000  0.4706750000000  0.4513870000000 1.0
C      1  0.5051120000000  0.5087690000000  0.5007150000000 1.0
C      1  0.3931180000000  0.5254250000000  0.4761680000000 1.0
C      1  0.4863940000000  0.3994430000000  0.4983680000000 1.0
C      1  0.5402560000000  0.5583880000000  0.5841860000000 1.0
C      1  0.5040760000000  0.4990790000000  0.5482340000000 1.0
C      1  0.4185210000000  0.5097060000000  0.5742190000000 1.0
C      1  0.4260720000000  0.5704040000000  0.5293230000000 1.0
C      1  0.4415970000000  0.4181340000000  0.4785180000000 1.0
C      1  0.5239720000000  0.4188430000000  0.4509000000000 1.0
C      1  0.4648610000000  0.4935150000000  0.5049790000000 1.0
C      1  0.5721960000000  0.5806870000000  0.5120640000000 1.0
C      1  0.4707820000000  0.5665240000000  0.4232750000000 1.0
END
