TITL C-4164240-4114-555 2.73047949230653 125000 -15797.5691370071 0 0 106 (C1) n - 1
REM
REM in /home/nfs/bkarasulu/CARBON/AIRSS/Generating-Clusters/ReaxFF-fromJPCA2015/Units_Real/with-SteepDescent/Only-C1/SD-CG/Try1-3A/FIRE-CG
REM
REM
REM
REM
REM
REM ./C.cell (11c1c37f851c82e70ff6c80c92926a4b)
REM
REM compiler GCC version 9.2.1 20190827 (Red Hat 9.2.1-1)
REM options -cpp -mtune=generic -march=x86-64 -g -O0 -fpre-include=/usr/include/finclude/math-vector-fortran.h
REM seed 417418271 -1072649630 1939071292 -722886184 9070627 12429731 -381829022 1323946565 -1081313252 -2057877091 1650392390 -1135326269 -537849142 606561225 36434611 1064241010 484105358 999293427 1656655102 -679328843 2019816225 -1101587201 -1529374365 2110946750 -594184489 982400115 232002887 969956387 -52069593 775944942 644760437 -1563134235 1621797186
REM
CELL 1.54180   50.00000   50.00000   50.00000   90.00000   90.00000   90.00000
LATT -1
SFAC C  
C      1  0.5235630000000  0.5279370000000  0.4046320000000 1.0
C      1  0.5024510000000  0.4068000000000  0.5085340000000 1.0
C      1  0.4088900000000  0.4814040000000  0.4763950000000 1.0
C      1  0.5029580000000  0.5689200000000  0.5671920000000 1.0
C      1  0.5401620000000  0.4321260000000  0.4987900000000 1.0
C      1  0.4353100000000  0.4552630000000  0.5474600000000 1.0
C      1  0.5138510000000  0.4556100000000  0.4214940000000 1.0
C      1  0.4689020000000  0.4788230000000  0.5184310000000 1.0
C      1  0.4975320000000  0.5223650000000  0.5186420000000 1.0
C      1  0.4212790000000  0.4806410000000  0.5030800000000 1.0
C      1  0.4934390000000  0.5818220000000  0.5187550000000 1.0
C      1  0.4501190000000  0.5473520000000  0.5739720000000 1.0
C      1  0.4926370000000  0.4396350000000  0.5717570000000 1.0
C      1  0.5507140000000  0.4940780000000  0.4225140000000 1.0
C      1  0.4754350000000  0.5261540000000  0.4984250000000 1.0
C      1  0.5110030000000  0.5022890000000  0.5369510000000 1.0
C      1  0.5390350000000  0.5097330000000  0.5823940000000 1.0
C      1  0.4444600000000  0.5495410000000  0.4419240000000 1.0
C      1  0.5046130000000  0.4284590000000  0.5283180000000 1.0
C      1  0.5278160000000  0.4620030000000  0.5874470000000 1.0
C      1  0.5480260000000  0.4835210000000  0.5919670000000 1.0
C      1  0.5617320000000  0.5559590000000  0.5084620000000 1.0
C      1  0.4858290000000  0.4643290000000  0.4230160000000 1.0
C      1  0.4619350000000  0.4283340000000  0.4858430000000 1.0
C      1  0.5362990000000  0.5140140000000  0.5520700000000 1.0
C      1  0.4406080000000  0.5533370000000  0.4709170000000 1.0
C      1  0.5015190000000  0.4664340000000  0.5772720000000 1.0
C      1  0.4913810000000  0.5150960000000  0.5844040000000 1.0
C      1  0.5300770000000  0.4471170000000  0.5235160000000 1.0
C      1  0.5815970000000  0.4763200000000  0.4580640000000 1.0
C      1  0.5168130000000  0.5432220000000  0.4537530000000 1.0
C      1  0.4997350000000  0.5578270000000  0.4388630000000 1.0
C      1  0.5169340000000  0.5321360000000  0.5003720000000 1.0
C      1  0.5207510000000  0.5552760000000  0.5838290000000 1.0
C      1  0.4012810000000  0.4936840000000  0.4084170000000 1.0
C      1  0.5907210000000  0.5147750000000  0.5320780000000 1.0
C      1  0.5514750000000  0.5217180000000  0.4132260000000 1.0
C      1  0.5532820000000  0.4351020000000  0.4494480000000 1.0
C      1  0.5830920000000  0.4587860000000  0.4828070000000 1.0
C      1  0.5352240000000  0.5642560000000  0.4567860000000 1.0
C      1  0.4814790000000  0.4332750000000  0.5450210000000 1.0
C      1  0.5755720000000  0.5315350000000  0.4969660000000 1.0
C      1  0.5560580000000  0.5180260000000  0.5309370000000 1.0
C      1  0.4112250000000  0.4937310000000  0.5271740000000 1.0
C      1  0.5502080000000  0.4478430000000  0.5459230000000 1.0
C      1  0.4522750000000  0.4357000000000  0.5367850000000 1.0
C      1  0.4419330000000  0.5195150000000  0.5776190000000 1.0
C      1  0.4710900000000  0.5603220000000  0.4354330000000 1.0
C      1  0.5186840000000  0.4791320000000  0.5149190000000 1.0
C      1  0.5712750000000  0.5399500000000  0.4280520000000 1.0
C      1  0.4580150000000  0.5646110000000  0.5517940000000 1.0
C      1  0.5396280000000  0.4383160000000  0.5717810000000 1.0
C      1  0.4838420000000  0.5658640000000  0.4597300000000 1.0
C      1  0.5734280000000  0.4655180000000  0.5515980000000 1.0
C      1  0.4850980000000  0.5782200000000  0.5479440000000 1.0
C      1  0.5270610000000  0.4799850000000  0.4120530000000 1.0
C      1  0.4666820000000  0.5286250000000  0.5904950000000 1.0
C      1  0.4815830000000  0.4444830000000  0.4659880000000 1.0
C      1  0.4426260000000  0.4614700000000  0.4458710000000 1.0
C      1  0.4900590000000  0.4716890000000  0.4764830000000 1.0
C      1  0.4681070000000  0.5559790000000  0.4832260000000 1.0
C      1  0.4926980000000  0.4959600000000  0.4597140000000 1.0
C      1  0.5817860000000  0.5407200000000  0.4692520000000 1.0
C      1  0.4929780000000  0.4752000000000  0.5036930000000 1.0
C      1  0.4890050000000  0.4926570000000  0.4292780000000 1.0
C      1  0.4284450000000  0.5312780000000  0.4255950000000 1.0
C      1  0.5738990000000  0.4739980000000  0.5802670000000 1.0
C      1  0.5567170000000  0.4922520000000  0.4514860000000 1.0
C      1  0.5074780000000  0.4275020000000  0.4618640000000 1.0
C      1  0.5893070000000  0.4859800000000  0.5363690000000 1.0
C      1  0.4234470000000  0.4716550000000  0.4552070000000 1.0
C      1  0.3972870000000  0.5291860000000  0.4751130000000 1.0
C      1  0.4753480000000  0.4119430000000  0.5032550000000 1.0
C      1  0.4206310000000  0.4784690000000  0.5518980000000 1.0
C      1  0.4462130000000  0.4401880000000  0.5072880000000 1.0
C      1  0.5627280000000  0.5557490000000  0.4513100000000 1.0
C      1  0.4686280000000  0.5073460000000  0.4776470000000 1.0
C      1  0.4463610000000  0.5648180000000  0.5258740000000 1.0
C      1  0.5246430000000  0.4362200000000  0.4409980000000 1.0
C      1  0.4437780000000  0.4949100000000  0.5612060000000 1.0
C      1  0.5721210000000  0.4547380000000  0.4423200000000 1.0
C      1  0.5188000000000  0.5881180000000  0.5046050000000 1.0
C      1  0.4226820000000  0.5487640000000  0.5163690000000 1.0
C      1  0.4680010000000  0.5740820000000  0.5082460000000 1.0
C      1  0.5377180000000  0.4998770000000  0.4705170000000 1.0
C      1  0.5197010000000  0.4161830000000  0.4856060000000 1.0
C      1  0.4456020000000  0.4679060000000  0.5056830000000 1.0
C      1  0.5167340000000  0.5190120000000  0.4698130000000 1.0
C      1  0.5606540000000  0.4382430000000  0.4790820000000 1.0
C      1  0.5401760000000  0.4900860000000  0.4964740000000 1.0
C      1  0.4676300000000  0.4891900000000  0.5457390000000 1.0
C      1  0.4084120000000  0.5093460000000  0.4288030000000 1.0
C      1  0.5315710000000  0.5843830000000  0.4782680000000 1.0
C      1  0.4662660000000  0.4498150000000  0.4393250000000 1.0
C      1  0.5613470000000  0.5064250000000  0.5055070000000 1.0
C      1  0.4924880000000  0.4928190000000  0.5619380000000 1.0
C      1  0.5165150000000  0.4204070000000  0.5760730000000 1.0
C      1  0.5075780000000  0.5025720000000  0.4089090000000 1.0
C      1  0.5370400000000  0.5462860000000  0.5611600000000 1.0
C      1  0.5397950000000  0.5394910000000  0.5167910000000 1.0
C      1  0.3986750000000  0.5041650000000  0.4606160000000 1.0
C      1  0.5167110000000  0.5255640000000  0.5929570000000 1.0
C      1  0.4144820000000  0.5228670000000  0.5269730000000 1.0
C      1  0.5477980000000  0.5813610000000  0.5019850000000 1.0
C      1  0.5941180000000  0.5278940000000  0.4442040000000 1.0
C      1  0.4176000000000  0.5483900000000  0.4867120000000 1.0
END
