TITL C-4164238-4211-690 1.56937292493773 125000 -3150.25249209931 0 0 23 (C1) n - 1
REM
REM in /home/nfs/bkarasulu/CARBON/AIRSS/Generating-Clusters/ReaxFF-fromJPCA2015/Units_Real/with-SteepDescent/Only-C1/SD-CG/Try1-3A/FIRE-CG
REM
REM
REM
REM
REM
REM ./C.cell (11c1c37f851c82e70ff6c80c92926a4b)
REM
REM compiler GCC version 9.2.1 20190827 (Red Hat 9.2.1-1)
REM options -cpp -mtune=generic -march=x86-64 -g -O0 -fpre-include=/usr/include/finclude/math-vector-fortran.h
REM seed 1066011008 -524495097 1806656829 687786930 -1020065307 -1415224774 1280928057 1121169431 -1658901396 -711691971 526643837 771898232 -2061606578 -105680398 667188202 1627975628 -1256612537 1280189868 1069216035 -1408351656 961207356 -559252257 -1139697395 -1198888145 -1337520255 -26765206 2097525806 878522909 -1644995693 1655515373 878760205 1242426617 515576450
REM
CELL 1.54180   50.00000   50.00000   50.00000   90.00000   90.00000   90.00000
LATT -1
SFAC C  
C      1  0.4974870000000  0.4780480000000  0.5153830000000 1.0
C      1  0.5406960000000  0.5056700000000  0.4842420000000 1.0
C      1  0.4621520000000  0.4956110000000  0.5312010000000 1.0
C      1  0.4598560000000  0.5161020000000  0.4359210000000 1.0
C      1  0.5247640000000  0.4947860000000  0.5827380000000 1.0
C      1  0.4941220000000  0.5017990000000  0.5342380000000 1.0
C      1  0.5216190000000  0.4733940000000  0.5026220000000 1.0
C      1  0.5441500000000  0.4865160000000  0.5492500000000 1.0
C      1  0.5027190000000  0.5561450000000  0.5190420000000 1.0
C      1  0.4520320000000  0.4716180000000  0.4827020000000 1.0
C      1  0.5223750000000  0.5008820000000  0.4629190000000 1.0
C      1  0.5284510000000  0.5267870000000  0.5014920000000 1.0
C      1  0.4657310000000  0.4765960000000  0.5096170000000 1.0
C      1  0.5171950000000  0.4929450000000  0.5585210000000 1.0
C      1  0.4433290000000  0.5205530000000  0.4614330000000 1.0
C      1  0.4645400000000  0.4699990000000  0.4553550000000 1.0
C      1  0.5245240000000  0.5575580000000  0.4983160000000 1.0
C      1  0.4455750000000  0.4980180000000  0.4797730000000 1.0
C      1  0.5524990000000  0.4819600000000  0.5279650000000 1.0
C      1  0.5042050000000  0.4970150000000  0.4495300000000 1.0
C      1  0.5060180000000  0.5252910000000  0.5190560000000 1.0
C      1  0.5487210000000  0.4806020000000  0.4995720000000 1.0
C      1  0.4772410000000  0.4921070000000  0.4391130000000 1.0
END
