TITL C-4164235-1454-619 36.7973080725327 125000 -24584.9721257967 0 0 165 (C1) n - 1
REM
REM in /home/nfs/bkarasulu/CARBON/AIRSS/Generating-Clusters/ReaxFF-fromJPCA2015/Units_Real/with-SteepDescent/Only-C1/SD-CG/Try1-3A/FIRE-CG
REM
REM
REM
REM
REM
REM ./C.cell (11c1c37f851c82e70ff6c80c92926a4b)
REM
REM compiler GCC version 9.2.1 20190827 (Red Hat 9.2.1-1)
REM options -cpp -mtune=generic -march=x86-64 -g -O0 -fpre-include=/usr/include/finclude/math-vector-fortran.h
REM seed -508391952 559445699 -1203852024 -1249999456 -1177550139 -338057497 -802775643 1530754399 50188227 -766254196 -805454833 1915246484 -646716258 1211787576 1674063426 1929235824 -546059957 602851540 965528051 1666562566 -1990828861 829501295 -724940677 -1078154105 -1426828025 1183082494 -1883444474 353940559 -480528552 -895163698 -279490471 -1996165370 -1403739454
REM
CELL 1.54180   50.00000   50.00000   50.00000   90.00000   90.00000   90.00000
LATT -1
SFAC C  
C      1  0.4756320000000  0.5647100000000  0.4248690000000 1.0
C      1  0.5202950000000  0.5443110000000  0.4130380000000 1.0
C      1  0.5203330000000  0.5734420000000  0.5475800000000 1.0
C      1  0.5106830000000  0.5125110000000  0.4461990000000 1.0
C      1  0.4880780000000  0.5982640000000  0.5253200000000 1.0
C      1  0.5893300000000  0.4987360000000  0.5566620000000 1.0
C      1  0.5324330000000  0.4714480000000  0.4215230000000 1.0
C      1  0.4381530000000  0.5211090000000  0.5071450000000 1.0
C      1  0.4723890000000  0.5997470000000  0.4998100000000 1.0
C      1  0.4119680000000  0.4539530000000  0.5371390000000 1.0
C      1  0.4273430000000  0.4973450000000  0.5721550000000 1.0
C      1  0.5433630000000  0.4475120000000  0.5224000000000 1.0
C      1  0.5999250000000  0.5303770000000  0.4627560000000 1.0
C      1  0.5609610000000  0.5197740000000  0.4183420000000 1.0
C      1  0.4015760000000  0.5085770000000  0.4173180000000 1.0
C      1  0.5947930000000  0.4590590000000  0.4728340000000 1.0
C      1  0.5273690000000  0.3994610000000  0.5331130000000 1.0
C      1  0.4574950000000  0.4300600000000  0.4335710000000 1.0
C      1  0.5164370000000  0.5564360000000  0.5259270000000 1.0
C      1  0.5174440000000  0.6023190000000  0.5206100000000 1.0
C      1  0.5734960000000  0.4929370000000  0.4244380000000 1.0
C      1  0.5256800000000  0.4880760000000  0.5477310000000 1.0
C      1  0.4833580000000  0.5451110000000  0.5598230000000 1.0
C      1  0.4863450000000  0.5018420000000  0.4558950000000 1.0
C      1  0.4135120000000  0.5353800000000  0.4209120000000 1.0
C      1  0.5734930000000  0.5697970000000  0.5400260000000 1.0
C      1  0.5102610000000  0.3907500000000  0.5100970000000 1.0
C      1  0.4450060000000  0.4101850000000  0.5437470000000 1.0
C      1  0.5436030000000  0.4447190000000  0.5712060000000 1.0
C      1  0.4869040000000  0.4700420000000  0.4918830000000 1.0
C      1  0.5385170000000  0.5371760000000  0.5279090000000 1.0
C      1  0.5244330000000  0.4680770000000  0.5230360000000 1.0
C      1  0.5853600000000  0.5669640000000  0.5010200000000 1.0
C      1  0.6021740000000  0.4650860000000  0.5288520000000 1.0
C      1  0.5265800000000  0.5308520000000  0.4856670000000 1.0
C      1  0.4875420000000  0.3981970000000  0.5545820000000 1.0
C      1  0.5545370000000  0.4085740000000  0.5283540000000 1.0
C      1  0.4496030000000  0.4916190000000  0.5876150000000 1.0
C      1  0.4106110000000  0.4761770000000  0.5574450000000 1.0
C      1  0.4487320000000  0.4897660000000  0.4631850000000 1.0
C      1  0.4928060000000  0.4484120000000  0.4714920000000 1.0
C      1  0.4912600000000  0.4003700000000  0.4645540000000 1.0
C      1  0.5628220000000  0.4664550000000  0.4285390000000 1.0
C      1  0.4659530000000  0.4576450000000  0.5599420000000 1.0
C      1  0.4962600000000  0.4269940000000  0.4174400000000 1.0
C      1  0.5181090000000  0.5427470000000  0.6025460000000 1.0
C      1  0.5087980000000  0.5953770000000  0.4610000000000 1.0
C      1  0.4745860000000  0.5195460000000  0.5223460000000 1.0
C      1  0.6070420000000  0.5151950000000  0.5102420000000 1.0
C      1  0.5335520000000  0.4772430000000  0.4715640000000 1.0
C      1  0.4691360000000  0.5432630000000  0.4762430000000 1.0
C      1  0.4280930000000  0.5354700000000  0.4477080000000 1.0
C      1  0.6069930000000  0.4858080000000  0.4665970000000 1.0
C      1  0.4271830000000  0.5762420000000  0.4817360000000 1.0
C      1  0.5632760000000  0.5450500000000  0.4326030000000 1.0
C      1  0.4023510000000  0.4634040000000  0.5108500000000 1.0
C      1  0.4121370000000  0.5138750000000  0.4941700000000 1.0
C      1  0.3845740000000  0.5289170000000  0.4594230000000 1.0
C      1  0.4378130000000  0.5246950000000  0.5637870000000 1.0
C      1  0.5327400000000  0.5824740000000  0.5700300000000 1.0
C      1  0.4946470000000  0.5467080000000  0.4611810000000 1.0
C      1  0.5486430000000  0.5851290000000  0.4766450000000 1.0
C      1  0.4992280000000  0.4331580000000  0.4958920000000 1.0
C      1  0.5587020000000  0.4184200000000  0.4543450000000 1.0
C      1  0.4780390000000  0.4124820000000  0.4875790000000 1.0
C      1  0.4272890000000  0.4258470000000  0.5024620000000 1.0
C      1  0.4547450000000  0.4622110000000  0.4709400000000 1.0
C      1  0.5405490000000  0.4504690000000  0.4706180000000 1.0
C      1  0.4555060000000  0.5072300000000  0.4141490000000 1.0
C      1  0.3943240000000  0.5373920000000  0.4857700000000 1.0
C      1  0.5565340000000  0.4114290000000  0.4992630000000 1.0
C      1  0.5696100000000  0.5167540000000  0.4954340000000 1.0
C      1  0.4009180000000  0.4942440000000  0.5394180000000 1.0
C      1  0.5843540000000  0.5534180000000  0.4523600000000 1.0
C      1  0.6124740000000  0.5106450000000  0.4814520000000 1.0
C      1  0.5341890000000  0.5176780000000  0.5947050000000 1.0
C      1  0.5981810000000  0.4525670000000  0.5028200000000 1.0
C      1  0.5217400000000  0.6014350000000  0.5495690000000 1.0
C      1  0.5448840000000  0.4013860000000  0.4735600000000 1.0
C      1  0.4585680000000  0.4727550000000  0.5237090000000 1.0
C      1  0.4859870000000  0.3883460000000  0.5263590000000 1.0
C      1  0.4904620000000  0.5693470000000  0.5732710000000 1.0
C      1  0.4132620000000  0.4548350000000  0.4603400000000 1.0
C      1  0.5370630000000  0.5590500000000  0.4329640000000 1.0
C      1  0.4264170000000  0.5785120000000  0.5464800000000 1.0
C      1  0.4785780000000  0.5189000000000  0.4005390000000 1.0
C      1  0.4812270000000  0.4681930000000  0.4020170000000 1.0
C      1  0.4810490000000  0.4135300000000  0.4389760000000 1.0
C      1  0.5224550000000  0.4933730000000  0.4022620000000 1.0
C      1  0.5867210000000  0.5468690000000  0.5450040000000 1.0
C      1  0.5397760000000  0.4354210000000  0.4969860000000 1.0
C      1  0.5743660000000  0.5171530000000  0.4674630000000 1.0
C      1  0.4704400000000  0.4384190000000  0.5791660000000 1.0
C      1  0.4640180000000  0.5775820000000  0.4475340000000 1.0
C      1  0.4973620000000  0.5620110000000  0.5054000000000 1.0
C      1  0.5835740000000  0.4544270000000  0.5487100000000 1.0
C      1  0.5668470000000  0.5845330000000  0.5170790000000 1.0
C      1  0.4969880000000  0.4498550000000  0.5879530000000 1.0
C      1  0.5374870000000  0.5137870000000  0.5448810000000 1.0
C      1  0.5817120000000  0.5252400000000  0.5666700000000 1.0
C      1  0.4939460000000  0.4932240000000  0.3958580000000 1.0
C      1  0.5327620000000  0.5828430000000  0.4523690000000 1.0
C      1  0.5684750000000  0.4467670000000  0.4514870000000 1.0
C      1  0.4711060000000  0.4820980000000  0.5470580000000 1.0
C      1  0.4245120000000  0.5055090000000  0.4651050000000 1.0
C      1  0.4996620000000  0.4784990000000  0.5942670000000 1.0
C      1  0.4816470000000  0.5923050000000  0.4689350000000 1.0
C      1  0.5137540000000  0.4087890000000  0.5581670000000 1.0
C      1  0.4912010000000  0.5441300000000  0.4095790000000 1.0
C      1  0.4645940000000  0.5151420000000  0.4954280000000 1.0
C      1  0.5179530000000  0.4329930000000  0.5749670000000 1.0
C      1  0.4759080000000  0.5859490000000  0.5525610000000 1.0
C      1  0.5409260000000  0.5932940000000  0.5042790000000 1.0
C      1  0.5747110000000  0.4746420000000  0.5669200000000 1.0
C      1  0.4908240000000  0.5386710000000  0.6137050000000 1.0
C      1  0.5268560000000  0.4885200000000  0.5923960000000 1.0
C      1  0.4057520000000  0.5621220000000  0.4963600000000 1.0
C      1  0.4272890000000  0.4988840000000  0.4058280000000 1.0
C      1  0.4989500000000  0.4984100000000  0.5488930000000 1.0
C      1  0.5615750000000  0.4910650000000  0.5029260000000 1.0
C      1  0.4399970000000  0.4436260000000  0.4532790000000 1.0
C      1  0.5824040000000  0.4932880000000  0.4524820000000 1.0
C      1  0.4469930000000  0.5913750000000  0.4944890000000 1.0
C      1  0.4440440000000  0.5594970000000  0.4611350000000 1.0
C      1  0.4458950000000  0.5466190000000  0.5166050000000 1.0
C      1  0.4641680000000  0.5275320000000  0.5479030000000 1.0
C      1  0.5482820000000  0.4708250000000  0.5814270000000 1.0
C      1  0.5332830000000  0.4868670000000  0.4984870000000 1.0
C      1  0.5119690000000  0.5086090000000  0.4979120000000 1.0
C      1  0.4643570000000  0.4124440000000  0.5650810000000 1.0
C      1  0.4988210000000  0.4555410000000  0.5144870000000 1.0
C      1  0.4058820000000  0.4836910000000  0.4566460000000 1.0
C      1  0.4576970000000  0.3954400000000  0.5215440000000 1.0
C      1  0.4499420000000  0.4078450000000  0.4966510000000 1.0
C      1  0.4004320000000  0.5477490000000  0.4439020000000 1.0
C      1  0.5165010000000  0.5679750000000  0.5880590000000 1.0
C      1  0.5196630000000  0.5355540000000  0.4590690000000 1.0
C      1  0.4701040000000  0.5566090000000  0.5033090000000 1.0
C      1  0.4672650000000  0.5275230000000  0.5994390000000 1.0
C      1  0.5931990000000  0.5409840000000  0.5161010000000 1.0
C      1  0.4209650000000  0.5614400000000  0.5220450000000 1.0
C      1  0.5593790000000  0.4355000000000  0.5444250000000 1.0
C      1  0.5496600000000  0.5354340000000  0.5010940000000 1.0
C      1  0.4643450000000  0.4978660000000  0.4406170000000 1.0
C      1  0.3971430000000  0.4921300000000  0.5118960000000 1.0
C      1  0.4748120000000  0.4965310000000  0.5971380000000 1.0
C      1  0.5578300000000  0.5226530000000  0.5809310000000 1.0
C      1  0.6035560000000  0.4947440000000  0.5312370000000 1.0
C      1  0.4115730000000  0.4462870000000  0.4881940000000 1.0
C      1  0.5174260000000  0.4439770000000  0.4272520000000 1.0
C      1  0.5154250000000  0.3946740000000  0.4806860000000 1.0
C      1  0.4867060000000  0.4986230000000  0.4838860000000 1.0
C      1  0.4258280000000  0.4289110000000  0.5314440000000 1.0
C      1  0.4599870000000  0.4589060000000  0.4999120000000 1.0
C      1  0.5031340000000  0.5707490000000  0.4763410000000 1.0
C      1  0.5750440000000  0.4668360000000  0.4949210000000 1.0
C      1  0.4507090000000  0.5722710000000  0.5621470000000 1.0
C      1  0.4482210000000  0.5444800000000  0.5820560000000 1.0
C      1  0.5016640000000  0.5158850000000  0.5259680000000 1.0
C      1  0.4718240000000  0.4431650000000  0.4089790000000 1.0
C      1  0.5277340000000  0.4886790000000  0.4475380000000 1.0
C      1  0.5746260000000  0.5706460000000  0.4746980000000 1.0
C      1  0.5345970000000  0.5194520000000  0.4055300000000 1.0
C      1  0.5158890000000  0.4431810000000  0.4554510000000 1.0
C      1  0.3884770000000  0.5031300000000  0.4440530000000 1.0
END
