TITL C-4164245-3996-242 -6.1672689771014 125000 -12736.9700951562 0 0 86 (C1) n - 1
REM
REM in /home/nfs/bkarasulu/CARBON/AIRSS/Generating-Clusters/ReaxFF-fromJPCA2015/Units_Real/with-SteepDescent/Only-C1/SD-CG/Try1-3A/FIRE-CG
REM
REM
REM
REM
REM
REM ./C.cell (11c1c37f851c82e70ff6c80c92926a4b)
REM
REM compiler GCC version 9.2.1 20190827 (Red Hat 9.2.1-1)
REM options -cpp -mtune=generic -march=x86-64 -g -O0 -fpre-include=/usr/include/finclude/math-vector-fortran.h
REM seed -1516418099 879093369 1471252424 -1292591576 665043175 1683131654 -1918084052 621783909 480073271 1363635140 -738178981 288091476 270954633 -1993955501 1324448754 -1164514800 1450587184 1176302316 796992747 1363199106 -1207566469 -321901477 1183470182 -804485005 2039655740 973025890 154070744 1520750035 -1721409839 -271778266 -88639875 757770965 1355282005
REM
CELL 1.54180   50.00000   50.00000   50.00000   90.00000   90.00000   90.00000
LATT -1
SFAC C  
C      1  0.4244070000000  0.5062010000000  0.5227550000000 1.0
C      1  0.5511110000000  0.4900900000000  0.4443690000000 1.0
C      1  0.5661690000000  0.4390230000000  0.5077380000000 1.0
C      1  0.4293080000000  0.5504210000000  0.4887250000000 1.0
C      1  0.4441560000000  0.5242130000000  0.4409740000000 1.0
C      1  0.4836880000000  0.5067210000000  0.5723080000000 1.0
C      1  0.4726200000000  0.4494310000000  0.4927610000000 1.0
C      1  0.5030230000000  0.4958210000000  0.4836680000000 1.0
C      1  0.4903070000000  0.5626470000000  0.5291180000000 1.0
C      1  0.5622280000000  0.4606020000000  0.5268780000000 1.0
C      1  0.5547790000000  0.5230910000000  0.4783800000000 1.0
C      1  0.4295390000000  0.5344190000000  0.5278650000000 1.0
C      1  0.5332130000000  0.4762540000000  0.5623610000000 1.0
C      1  0.4973780000000  0.4304160000000  0.5545740000000 1.0
C      1  0.5168830000000  0.4143880000000  0.5111720000000 1.0
C      1  0.5329710000000  0.4567870000000  0.5343510000000 1.0
C      1  0.5060300000000  0.5726690000000  0.4490930000000 1.0
C      1  0.5763190000000  0.4808770000000  0.4904790000000 1.0
C      1  0.5693510000000  0.5159700000000  0.5250630000000 1.0
C      1  0.5154830000000  0.5500500000000  0.5662800000000 1.0
C      1  0.5134630000000  0.5790290000000  0.4910140000000 1.0
C      1  0.4557390000000  0.4965570000000  0.4758390000000 1.0
C      1  0.4329600000000  0.4633760000000  0.4718600000000 1.0
C      1  0.5463310000000  0.4172910000000  0.5006830000000 1.0
C      1  0.5223100000000  0.5132800000000  0.5227120000000 1.0
C      1  0.4941750000000  0.5295400000000  0.4164490000000 1.0
C      1  0.5196160000000  0.4688730000000  0.5103310000000 1.0
C      1  0.5179430000000  0.4291070000000  0.5382880000000 1.0
C      1  0.4691190000000  0.4586630000000  0.5843780000000 1.0
C      1  0.5735350000000  0.4866460000000  0.5190090000000 1.0
C      1  0.4819400000000  0.4625540000000  0.4322800000000 1.0
C      1  0.4671180000000  0.5281820000000  0.4252510000000 1.0
C      1  0.5031330000000  0.4621960000000  0.4882150000000 1.0
C      1  0.5413780000000  0.5687650000000  0.5287170000000 1.0
C      1  0.4652870000000  0.5871230000000  0.4908620000000 1.0
C      1  0.4682140000000  0.4324370000000  0.4679880000000 1.0
C      1  0.4606670000000  0.4372540000000  0.5192660000000 1.0
C      1  0.5007060000000  0.5069010000000  0.4349900000000 1.0
C      1  0.5148740000000  0.5774020000000  0.5193870000000 1.0
C      1  0.4416370000000  0.4819450000000  0.5195380000000 1.0
C      1  0.5316820000000  0.4708170000000  0.4313790000000 1.0
C      1  0.4884470000000  0.4810970000000  0.5850690000000 1.0
C      1  0.4484280000000  0.4737890000000  0.4906060000000 1.0
C      1  0.4824490000000  0.5104500000000  0.5094160000000 1.0
C      1  0.4907790000000  0.5647040000000  0.5597580000000 1.0
C      1  0.4894220000000  0.4402570000000  0.4496040000000 1.0
C      1  0.4645340000000  0.4967000000000  0.5283840000000 1.0
C      1  0.5323220000000  0.5315250000000  0.4632820000000 1.0
C      1  0.4985650000000  0.5286220000000  0.5256990000000 1.0
C      1  0.4507040000000  0.4483850000000  0.5649500000000 1.0
C      1  0.4440950000000  0.4949880000000  0.4493270000000 1.0
C      1  0.5166550000000  0.4726140000000  0.5876770000000 1.0
C      1  0.5107180000000  0.5124170000000  0.4603460000000 1.0
C      1  0.5620890000000  0.4416360000000  0.4590740000000 1.0
C      1  0.4454200000000  0.4457510000000  0.4541550000000 1.0
C      1  0.4413260000000  0.5739150000000  0.5018140000000 1.0
C      1  0.4864090000000  0.5713590000000  0.4752320000000 1.0
C      1  0.5269620000000  0.4946000000000  0.5007770000000 1.0
C      1  0.4708920000000  0.5449340000000  0.4722160000000 1.0
C      1  0.4535610000000  0.4688700000000  0.4373240000000 1.0
C      1  0.5356890000000  0.4490080000000  0.4489260000000 1.0
C      1  0.5649700000000  0.5341990000000  0.5022410000000 1.0
C      1  0.5042810000000  0.4802070000000  0.4271810000000 1.0
C      1  0.5322640000000  0.5081110000000  0.5500130000000 1.0
C      1  0.5127430000000  0.4467380000000  0.4656600000000 1.0
C      1  0.4942250000000  0.4150840000000  0.4946200000000 1.0
C      1  0.5059530000000  0.5227930000000  0.5597300000000 1.0
C      1  0.4759190000000  0.4326180000000  0.5717490000000 1.0
C      1  0.4657730000000  0.5779170000000  0.5177490000000 1.0
C      1  0.5544310000000  0.4955400000000  0.4773720000000 1.0
C      1  0.5319740000000  0.5599310000000  0.4562770000000 1.0
C      1  0.4453490000000  0.4535510000000  0.5366670000000 1.0
C      1  0.5004300000000  0.5543230000000  0.4293730000000 1.0
C      1  0.4648840000000  0.5211710000000  0.4892730000000 1.0
C      1  0.4607640000000  0.5089690000000  0.5547350000000 1.0
C      1  0.4628160000000  0.5569370000000  0.5648990000000 1.0
C      1  0.4436270000000  0.5460260000000  0.4630000000000 1.0
C      1  0.5759280000000  0.4525070000000  0.4832500000000 1.0
C      1  0.5554670000000  0.5615170000000  0.5042580000000 1.0
C      1  0.4314080000000  0.5234850000000  0.5003850000000 1.0
C      1  0.5604590000000  0.4987410000000  0.4226900000000 1.0
C      1  0.4470700000000  0.5350100000000  0.5517890000000 1.0
C      1  0.5562760000000  0.5263580000000  0.5487010000000 1.0
C      1  0.5511150000000  0.4201290000000  0.4732940000000 1.0
C      1  0.5415390000000  0.5515920000000  0.5525070000000 1.0
C      1  0.5400760000000  0.5728940000000  0.4816040000000 1.0
END
