TITL C-4164232-771-690 33.8590994400992 125000 -16247.8890499555 0 0 110 (C1) n - 1
REM
REM in /home/nfs/bkarasulu/CARBON/AIRSS/Generating-Clusters/ReaxFF-fromJPCA2015/Units_Real/with-SteepDescent/Only-C1/SD-CG/Try1-3A/FIRE-CG
REM
REM
REM
REM
REM
REM ./C.cell (11c1c37f851c82e70ff6c80c92926a4b)
REM
REM compiler GCC version 9.2.1 20190827 (Red Hat 9.2.1-1)
REM options -cpp -mtune=generic -march=x86-64 -g -O0 -fpre-include=/usr/include/finclude/math-vector-fortran.h
REM seed 529647522 618899085 1535779135 302759358 1446869303 -1263105097 607042763 -1652212585 760547467 -427679995 -499885108 -161385568 -1351745242 64311172 -901583281 79843380 -644438766 -344537078 -934206889 -2130510758 566651637 -68425833 -678918202 -196723174 -83175799 933093584 -261389482 -1387173931 489428089 1893429179 12646040 -67029824 1776895994
REM
CELL 1.54180   50.00000   50.00000   50.00000   90.00000   90.00000   90.00000
LATT -1
SFAC C  
C      1  0.4171700000000  0.4755490000000  0.5337990000000 1.0
C      1  0.4929360000000  0.4958820000000  0.4607320000000 1.0
C      1  0.4989160000000  0.4482590000000  0.4848960000000 1.0
C      1  0.4442490000000  0.4463470000000  0.4540280000000 1.0
C      1  0.5571040000000  0.5574630000000  0.5527220000000 1.0
C      1  0.5288850000000  0.4626450000000  0.5779410000000 1.0
C      1  0.5541480000000  0.4612760000000  0.5628240000000 1.0
C      1  0.5736550000000  0.5429280000000  0.4885980000000 1.0
C      1  0.4842930000000  0.5184360000000  0.5471790000000 1.0
C      1  0.4303100000000  0.5520850000000  0.4786030000000 1.0
C      1  0.4858450000000  0.4516650000000  0.4205930000000 1.0
C      1  0.4436110000000  0.4750480000000  0.4630070000000 1.0
C      1  0.4652000000000  0.4896410000000  0.4500310000000 1.0
C      1  0.4673830000000  0.5086960000000  0.4996930000000 1.0
C      1  0.4516050000000  0.5592690000000  0.4557940000000 1.0
C      1  0.5358760000000  0.4774440000000  0.4923550000000 1.0
C      1  0.5432370000000  0.4352170000000  0.4640910000000 1.0
C      1  0.5097850000000  0.5691670000000  0.5562860000000 1.0
C      1  0.5411460000000  0.5898540000000  0.5212420000000 1.0
C      1  0.4406130000000  0.5087500000000  0.5439420000000 1.0
C      1  0.4803270000000  0.5321460000000  0.4919550000000 1.0
C      1  0.5296670000000  0.4423540000000  0.4415130000000 1.0
C      1  0.4782380000000  0.4171900000000  0.4605080000000 1.0
C      1  0.4795040000000  0.4155900000000  0.5426110000000 1.0
C      1  0.5188820000000  0.4859650000000  0.5920880000000 1.0
C      1  0.4555320000000  0.4493160000000  0.5525740000000 1.0
C      1  0.5767020000000  0.5072240000000  0.5679330000000 1.0
C      1  0.4870290000000  0.5853920000000  0.5147950000000 1.0
C      1  0.4768400000000  0.5715780000000  0.4626920000000 1.0
C      1  0.5313390000000  0.5042620000000  0.5735390000000 1.0
C      1  0.5065010000000  0.4760620000000  0.4858970000000 1.0
C      1  0.4459480000000  0.4954580000000  0.5676320000000 1.0
C      1  0.5644400000000  0.5418770000000  0.4594610000000 1.0
C      1  0.5452250000000  0.5567740000000  0.4424670000000 1.0
C      1  0.4890080000000  0.5257590000000  0.4659870000000 1.0
C      1  0.5174320000000  0.4792470000000  0.5351720000000 1.0
C      1  0.4735360000000  0.5880710000000  0.4879380000000 1.0
C      1  0.4716090000000  0.4726320000000  0.4079940000000 1.0
C      1  0.5097700000000  0.4522160000000  0.5569950000000 1.0
C      1  0.5547950000000  0.5197480000000  0.5807810000000 1.0
C      1  0.5166360000000  0.5485920000000  0.4344000000000 1.0
C      1  0.4558580000000  0.4125250000000  0.5257570000000 1.0
C      1  0.4207570000000  0.5249510000000  0.5374260000000 1.0
C      1  0.5100050000000  0.5717680000000  0.5025500000000 1.0
C      1  0.4858100000000  0.5681520000000  0.5396290000000 1.0
C      1  0.5426700000000  0.4738830000000  0.5206960000000 1.0
C      1  0.4498160000000  0.4955600000000  0.5190010000000 1.0
C      1  0.4164640000000  0.4869360000000  0.4703290000000 1.0
C      1  0.5530690000000  0.4741510000000  0.4248770000000 1.0
C      1  0.5288620000000  0.5263730000000  0.5030240000000 1.0
C      1  0.4353580000000  0.4699860000000  0.5574640000000 1.0
C      1  0.4828120000000  0.4002610000000  0.4829410000000 1.0
C      1  0.4372890000000  0.4668390000000  0.5156390000000 1.0
C      1  0.4982570000000  0.5510510000000  0.4568870000000 1.0
C      1  0.5497760000000  0.5856310000000  0.4456620000000 1.0
C      1  0.5598380000000  0.4607840000000  0.4734060000000 1.0
C      1  0.5667870000000  0.5477220000000  0.5139960000000 1.0
C      1  0.5408200000000  0.5066710000000  0.4579460000000 1.0
C      1  0.5816670000000  0.5013750000000  0.5400780000000 1.0
C      1  0.4735810000000  0.5043090000000  0.5714270000000 1.0
C      1  0.4968150000000  0.4761970000000  0.5151330000000 1.0
C      1  0.5747180000000  0.4934740000000  0.5119500000000 1.0
C      1  0.4751530000000  0.5269980000000  0.4183500000000 1.0
C      1  0.5362800000000  0.5240460000000  0.5306480000000 1.0
C      1  0.5063110000000  0.5436600000000  0.4993190000000 1.0
C      1  0.5878370000000  0.4994650000000  0.4714400000000 1.0
C      1  0.4558810000000  0.4443220000000  0.5215780000000 1.0
C      1  0.5200440000000  0.5043950000000  0.4148920000000 1.0
C      1  0.4618560000000  0.5428600000000  0.4361610000000 1.0
C      1  0.4409340000000  0.5454010000000  0.5307370000000 1.0
C      1  0.5191670000000  0.4271850000000  0.4798660000000 1.0
C      1  0.5362910000000  0.5789140000000  0.5466110000000 1.0
C      1  0.4270960000000  0.5042320000000  0.4214140000000 1.0
C      1  0.5370770000000  0.5050330000000  0.4864020000000 1.0
C      1  0.5862050000000  0.5165970000000  0.4956150000000 1.0
C      1  0.5017120000000  0.5292840000000  0.5887660000000 1.0
C      1  0.5164770000000  0.5519070000000  0.5796600000000 1.0
C      1  0.5253890000000  0.4328620000000  0.5405720000000 1.0
C      1  0.5680100000000  0.4735120000000  0.4480950000000 1.0
C      1  0.4081960000000  0.5023000000000  0.5233530000000 1.0
C      1  0.4580310000000  0.3972400000000  0.5012300000000 1.0
C      1  0.4700860000000  0.4353690000000  0.4421120000000 1.0
C      1  0.5078200000000  0.4061860000000  0.4966080000000 1.0
C      1  0.5817180000000  0.4759180000000  0.4882660000000 1.0
C      1  0.5693030000000  0.5141460000000  0.4522380000000 1.0
C      1  0.5616620000000  0.5352740000000  0.5356900000000 1.0
C      1  0.4090970000000  0.5055130000000  0.4931830000000 1.0
C      1  0.4932680000000  0.5030890000000  0.5938150000000 1.0
C      1  0.4492750000000  0.5828310000000  0.5003150000000 1.0
C      1  0.4161080000000  0.5023170000000  0.4465590000000 1.0
C      1  0.5168680000000  0.4531500000000  0.4192940000000 1.0
C      1  0.4599410000000  0.4986140000000  0.4216630000000 1.0
C      1  0.4186160000000  0.5271740000000  0.4786080000000 1.0
C      1  0.5179670000000  0.5077260000000  0.5470650000000 1.0
C      1  0.5756820000000  0.4808710000000  0.5607190000000 1.0
C      1  0.4786470000000  0.4980530000000  0.5226620000000 1.0
C      1  0.5306800000000  0.4776130000000  0.4075040000000 1.0
C      1  0.4869110000000  0.4474280000000  0.5110570000000 1.0
C      1  0.5187010000000  0.4968260000000  0.4429860000000 1.0
C      1  0.5042820000000  0.4202390000000  0.5232860000000 1.0
C      1  0.5438260000000  0.5903650000000  0.4670750000000 1.0
C      1  0.4363360000000  0.4107180000000  0.4904750000000 1.0
C      1  0.4343080000000  0.4277940000000  0.4724530000000 1.0
C      1  0.5046560000000  0.5295240000000  0.4156150000000 1.0
C      1  0.4319830000000  0.5622440000000  0.5072280000000 1.0
C      1  0.5485340000000  0.4492960000000  0.5364760000000 1.0
C      1  0.5336440000000  0.5904060000000  0.4955260000000 1.0
C      1  0.4810450000000  0.4384030000000  0.5600990000000 1.0
C      1  0.5460350000000  0.5469230000000  0.5773430000000 1.0
C      1  0.4691020000000  0.5441020000000  0.5402600000000 1.0
END
