TITL C-4164244-2836-598 37.3186108644658 125000 -17662.169748247 0 0 119 (C1) n - 1
REM
REM in /home/nfs/bkarasulu/CARBON/AIRSS/Generating-Clusters/ReaxFF-fromJPCA2015/Units_Real/with-SteepDescent/Only-C1/SD-CG/Try1-3A/FIRE-CG
REM
REM
REM
REM
REM
REM ./C.cell (11c1c37f851c82e70ff6c80c92926a4b)
REM
REM compiler GCC version 9.2.1 20190827 (Red Hat 9.2.1-1)
REM options -cpp -mtune=generic -march=x86-64 -g -O0 -fpre-include=/usr/include/finclude/math-vector-fortran.h
REM seed -1203378752 -1487576118 -1083103766 -26002705 -1557657679 1353924523 212899460 -812632834 919659090 -320816679 534127588 829074661 1064999524 -255131280 -1172778268 1681767217 -790467466 -1359433765 -192614899 1942894022 -1557844370 -851628062 -134889190 526433045 1234153913 1468137894 1747715746 -833580430 -114803493 -1558615033 1943877821 -121829672 -1100816468
REM
CELL 1.54180   50.00000   50.00000   50.00000   90.00000   90.00000   90.00000
LATT -1
SFAC C  
C      1  0.4759350000000  0.4072340000000  0.5167700000000 1.0
C      1  0.4423860000000  0.4864660000000  0.4214770000000 1.0
C      1  0.4980690000000  0.4857450000000  0.5260020000000 1.0
C      1  0.5465430000000  0.4989310000000  0.4755520000000 1.0
C      1  0.5201510000000  0.5450290000000  0.4871790000000 1.0
C      1  0.5609430000000  0.4200240000000  0.4862820000000 1.0
C      1  0.4547200000000  0.5696710000000  0.4765340000000 1.0
C      1  0.5368450000000  0.4688640000000  0.4214800000000 1.0
C      1  0.4748040000000  0.4526630000000  0.4444390000000 1.0
C      1  0.5097400000000  0.4711350000000  0.4129040000000 1.0
C      1  0.4466110000000  0.5638040000000  0.5510730000000 1.0
C      1  0.6098660000000  0.5327510000000  0.5050880000000 1.0
C      1  0.5576340000000  0.4166900000000  0.4574690000000 1.0
C      1  0.4109490000000  0.5257320000000  0.5572280000000 1.0
C      1  0.4174220000000  0.4814440000000  0.4956220000000 1.0
C      1  0.4391180000000  0.4478800000000  0.5343770000000 1.0
C      1  0.5125210000000  0.5334220000000  0.5372430000000 1.0
C      1  0.5472610000000  0.5110360000000  0.5399400000000 1.0
C      1  0.4769030000000  0.5063280000000  0.5198850000000 1.0
C      1  0.4038790000000  0.5013990000000  0.5422760000000 1.0
C      1  0.5124700000000  0.5903140000000  0.5076830000000 1.0
C      1  0.5737360000000  0.4867550000000  0.4700770000000 1.0
C      1  0.5592080000000  0.5712420000000  0.5255810000000 1.0
C      1  0.4488860000000  0.5150100000000  0.5924670000000 1.0
C      1  0.5183180000000  0.5610600000000  0.5461910000000 1.0
C      1  0.4270700000000  0.4947790000000  0.4664810000000 1.0
C      1  0.4592370000000  0.5545090000000  0.4340260000000 1.0
C      1  0.5828950000000  0.4612450000000  0.4817160000000 1.0
C      1  0.5498620000000  0.5151010000000  0.5829010000000 1.0
C      1  0.4230470000000  0.4365610000000  0.4786040000000 1.0
C      1  0.4209180000000  0.4535430000000  0.4574470000000 1.0
C      1  0.5439940000000  0.4533400000000  0.4427510000000 1.0
C      1  0.5702990000000  0.5067960000000  0.5232100000000 1.0
C      1  0.5755490000000  0.4591160000000  0.5094040000000 1.0
C      1  0.5534220000000  0.5328800000000  0.5591960000000 1.0
C      1  0.5107780000000  0.4235290000000  0.4301030000000 1.0
C      1  0.5482190000000  0.5375490000000  0.4320770000000 1.0
C      1  0.5442930000000  0.4326030000000  0.5398950000000 1.0
C      1  0.5056620000000  0.5879290000000  0.4804390000000 1.0
C      1  0.4776020000000  0.5586070000000  0.5169190000000 1.0
C      1  0.5753870000000  0.4995860000000  0.4443340000000 1.0
C      1  0.4835410000000  0.5311520000000  0.5067750000000 1.0
C      1  0.4685200000000  0.4254430000000  0.4542340000000 1.0
C      1  0.4715100000000  0.5742250000000  0.5551760000000 1.0
C      1  0.5137660000000  0.4811330000000  0.4998740000000 1.0
C      1  0.4796670000000  0.5834860000000  0.4680940000000 1.0
C      1  0.5291190000000  0.4769890000000  0.5667560000000 1.0
C      1  0.4711640000000  0.4955290000000  0.5895390000000 1.0
C      1  0.5242620000000  0.5021620000000  0.4566490000000 1.0
C      1  0.4234730000000  0.5496890000000  0.5435440000000 1.0
C      1  0.4198350000000  0.4849100000000  0.5616700000000 1.0
C      1  0.4516160000000  0.5661430000000  0.5049470000000 1.0
C      1  0.4547870000000  0.5031780000000  0.5020040000000 1.0
C      1  0.4963830000000  0.5456290000000  0.4711860000000 1.0
C      1  0.4693140000000  0.4803120000000  0.4154350000000 1.0
C      1  0.4837310000000  0.4598690000000  0.5266750000000 1.0
C      1  0.5149090000000  0.4528200000000  0.5761400000000 1.0
C      1  0.4960910000000  0.5108610000000  0.5971330000000 1.0
C      1  0.4951610000000  0.4477030000000  0.4230440000000 1.0
C      1  0.5513100000000  0.4398620000000  0.5093330000000 1.0
C      1  0.4974830000000  0.4202600000000  0.5011700000000 1.0
C      1  0.5783430000000  0.4800520000000  0.5298150000000 1.0
C      1  0.4869000000000  0.4525230000000  0.5712440000000 1.0
C      1  0.4887510000000  0.5243070000000  0.5546730000000 1.0
C      1  0.5553820000000  0.4860950000000  0.5777110000000 1.0
C      1  0.5713060000000  0.5287780000000  0.4494800000000 1.0
C      1  0.5821710000000  0.5306410000000  0.5040270000000 1.0
C      1  0.5520280000000  0.5979140000000  0.4809520000000 1.0
C      1  0.5233900000000  0.4930040000000  0.5446800000000 1.0
C      1  0.5769270000000  0.5537610000000  0.5140910000000 1.0
C      1  0.4970070000000  0.5768520000000  0.5318740000000 1.0
C      1  0.5524040000000  0.4905270000000  0.4268940000000 1.0
C      1  0.4946190000000  0.5259280000000  0.4158750000000 1.0
C      1  0.5283220000000  0.4551750000000  0.4946830000000 1.0
C      1  0.4587020000000  0.4465350000000  0.4967660000000 1.0
C      1  0.4759130000000  0.4770300000000  0.4622670000000 1.0
C      1  0.4898880000000  0.4393970000000  0.5466680000000 1.0
C      1  0.5235790000000  0.5266740000000  0.5098150000000 1.0
C      1  0.4660370000000  0.4718260000000  0.5740500000000 1.0
C      1  0.4282430000000  0.4558130000000  0.5057350000000 1.0
C      1  0.5664610000000  0.4423540000000  0.5569900000000 1.0
C      1  0.4083240000000  0.5021500000000  0.5128420000000 1.0
C      1  0.4304680000000  0.5204410000000  0.5049840000000 1.0
C      1  0.4848600000000  0.5216680000000  0.4798810000000 1.0
C      1  0.5792210000000  0.4337280000000  0.4697040000000 1.0
C      1  0.5341350000000  0.5018150000000  0.5019770000000 1.0
C      1  0.4507250000000  0.4263090000000  0.4773930000000 1.0
C      1  0.4950210000000  0.4126870000000  0.4520080000000 1.0
C      1  0.4228380000000  0.5091020000000  0.5784080000000 1.0
C      1  0.4553540000000  0.4231690000000  0.5320180000000 1.0
C      1  0.5318580000000  0.5123230000000  0.4304740000000 1.0
C      1  0.5252630000000  0.4464960000000  0.4677420000000 1.0
C      1  0.5689750000000  0.5410960000000  0.4751790000000 1.0
C      1  0.5727050000000  0.4716700000000  0.5586370000000 1.0
C      1  0.4229200000000  0.4758930000000  0.4424290000000 1.0
C      1  0.4956220000000  0.5374560000000  0.5815740000000 1.0
C      1  0.5188530000000  0.4341920000000  0.5537500000000 1.0
C      1  0.4860980000000  0.5635750000000  0.4457520000000 1.0
C      1  0.5115930000000  0.4208500000000  0.4751470000000 1.0
C      1  0.4660220000000  0.5323050000000  0.4170620000000 1.0
C      1  0.4421560000000  0.4665340000000  0.5569110000000 1.0
C      1  0.5422570000000  0.5907080000000  0.5074680000000 1.0
C      1  0.4929770000000  0.4955520000000  0.4130590000000 1.0
C      1  0.4417890000000  0.5502810000000  0.4571400000000 1.0
C      1  0.4752280000000  0.5612060000000  0.5822150000000 1.0
C      1  0.5402880000000  0.4253880000000  0.4347790000000 1.0
C      1  0.4566320000000  0.5420590000000  0.5909640000000 1.0
C      1  0.5076530000000  0.5506000000000  0.4268940000000 1.0
C      1  0.4547430000000  0.4890510000000  0.4770720000000 1.0
C      1  0.4299940000000  0.5481180000000  0.5148870000000 1.0
C      1  0.5241070000000  0.5096220000000  0.5936370000000 1.0
C      1  0.5326630000000  0.5803830000000  0.4632000000000 1.0
C      1  0.5320290000000  0.5606410000000  0.4367520000000 1.0
C      1  0.5470640000000  0.5602850000000  0.5500730000000 1.0
C      1  0.4427590000000  0.5158880000000  0.4270990000000 1.0
C      1  0.4323120000000  0.5231310000000  0.4529970000000 1.0
C      1  0.4864790000000  0.4476460000000  0.5013870000000 1.0
C      1  0.5444450000000  0.5564130000000  0.4771660000000 1.0
C      1  0.4984020000000  0.4947240000000  0.4713490000000 1.0
END
