TITL C-4164243-3780-716 -12.5504065636256 125000 -8853.34131806433 0 0 61 (C1) n - 1
REM
REM in /home/nfs/bkarasulu/CARBON/AIRSS/Generating-Clusters/ReaxFF-fromJPCA2015/Units_Real/with-SteepDescent/Only-C1/SD-CG/Try1-3A/FIRE-CG
REM
REM
REM
REM
REM
REM ./C.cell (11c1c37f851c82e70ff6c80c92926a4b)
REM
REM compiler GCC version 9.2.1 20190827 (Red Hat 9.2.1-1)
REM options -cpp -mtune=generic -march=x86-64 -g -O0 -fpre-include=/usr/include/finclude/math-vector-fortran.h
REM seed -398923029 -2128434829 1857669767 -1663164682 883145682 1284654310 -289463372 14054348 138966775 -856203307 1922234513 -1178085133 493136501 -2002636504 -1123408987 -1383966438 -402506463 85475356 1742959789 1912643335 -1778573184 941029720 -676668200 -1815675763 -325931841 1679720630 834704079 773146499 -234890152 829600548 -541149189 94374550 323285893
REM
CELL 1.54180   50.00000   50.00000   50.00000   90.00000   90.00000   90.00000
LATT -1
SFAC C  
C      1  0.4744110000000  0.4438210000000  0.4916310000000 1.0
C      1  0.4269800000000  0.4574530000000  0.4707050000000 1.0
C      1  0.4587990000000  0.4732950000000  0.5289810000000 1.0
C      1  0.5052270000000  0.5174260000000  0.4597670000000 1.0
C      1  0.4725550000000  0.5150930000000  0.5081980000000 1.0
C      1  0.5291510000000  0.5614250000000  0.4759390000000 1.0
C      1  0.5991510000000  0.5119010000000  0.4969350000000 1.0
C      1  0.4412500000000  0.5587330000000  0.5067850000000 1.0
C      1  0.4268740000000  0.4890790000000  0.4957310000000 1.0
C      1  0.5250270000000  0.5141500000000  0.5167940000000 1.0
C      1  0.5529250000000  0.5298470000000  0.4612220000000 1.0
C      1  0.5084410000000  0.5650660000000  0.4966690000000 1.0
C      1  0.5517220000000  0.4608790000000  0.5356600000000 1.0
C      1  0.5007020000000  0.4324650000000  0.4964760000000 1.0
C      1  0.4881060000000  0.4433930000000  0.5570120000000 1.0
C      1  0.5323950000000  0.4633590000000  0.5094110000000 1.0
C      1  0.5366010000000  0.4582200000000  0.4790680000000 1.0
C      1  0.4838940000000  0.4902680000000  0.5177710000000 1.0
C      1  0.4803910000000  0.5133250000000  0.4765000000000 1.0
C      1  0.4628660000000  0.4400900000000  0.4430240000000 1.0
C      1  0.5800920000000  0.5028110000000  0.4771820000000 1.0
C      1  0.5248890000000  0.5387290000000  0.4569080000000 1.0
C      1  0.5146310000000  0.4771520000000  0.4417080000000 1.0
C      1  0.5140150000000  0.5423400000000  0.5199610000000 1.0
C      1  0.4395870000000  0.4432650000000  0.4524970000000 1.0
C      1  0.5185870000000  0.4387450000000  0.5190810000000 1.0
C      1  0.4510290000000  0.5518420000000  0.4677730000000 1.0
C      1  0.4349730000000  0.5464780000000  0.5311900000000 1.0
C      1  0.4695900000000  0.4546910000000  0.5510250000000 1.0
C      1  0.5220710000000  0.5143330000000  0.5648450000000 1.0
C      1  0.4716860000000  0.5216370000000  0.5550380000000 1.0
C      1  0.5650240000000  0.4846340000000  0.5379820000000 1.0
C      1  0.4412060000000  0.5099510000000  0.5089590000000 1.0
C      1  0.5556110000000  0.5506100000000  0.4828880000000 1.0
C      1  0.5164470000000  0.4396470000000  0.5485130000000 1.0
C      1  0.5015090000000  0.4518590000000  0.4486370000000 1.0
C      1  0.4377240000000  0.4972980000000  0.5345110000000 1.0
C      1  0.4432230000000  0.5221950000000  0.5488240000000 1.0
C      1  0.5245860000000  0.4860810000000  0.5705440000000 1.0
C      1  0.5826500000000  0.5272130000000  0.5184890000000 1.0
C      1  0.5426220000000  0.5232290000000  0.5427730000000 1.0
C      1  0.5385910000000  0.4781360000000  0.4581060000000 1.0
C      1  0.4974810000000  0.5293060000000  0.5594700000000 1.0
C      1  0.5716230000000  0.5109270000000  0.5400940000000 1.0
C      1  0.5156570000000  0.4402240000000  0.4718960000000 1.0
C      1  0.5410530000000  0.5491310000000  0.5308860000000 1.0
C      1  0.5588580000000  0.5007500000000  0.4602340000000 1.0
C      1  0.4538010000000  0.5729230000000  0.4863140000000 1.0
C      1  0.4527240000000  0.4570210000000  0.5033900000000 1.0
C      1  0.4679590000000  0.5371500000000  0.4604270000000 1.0
C      1  0.4767370000000  0.4577410000000  0.4615770000000 1.0
C      1  0.4645770000000  0.5266990000000  0.4394430000000 1.0
C      1  0.5122460000000  0.4890080000000  0.5147120000000 1.0
C      1  0.4862440000000  0.5355640000000  0.5333490000000 1.0
C      1  0.5344970000000  0.4598060000000  0.5601190000000 1.0
C      1  0.4836360000000  0.5777610000000  0.4921870000000 1.0
C      1  0.4662090000000  0.4892950000000  0.4625160000000 1.0
C      1  0.4394310000000  0.4764610000000  0.4794030000000 1.0
C      1  0.4980960000000  0.5016780000000  0.4360550000000 1.0
C      1  0.4685150000000  0.4993900000000  0.4349490000000 1.0
C      1  0.5628450000000  0.5470010000000  0.5112630000000 1.0
END
