TITL C-4164240-4114-466 24.3200694991929 125000 -17006.5929783971 0 0 114 (C1) n - 1
REM
REM in /home/nfs/bkarasulu/CARBON/AIRSS/Generating-Clusters/ReaxFF-fromJPCA2015/Units_Real/with-SteepDescent/Only-C1/SD-CG/Try1-3A/FIRE-CG
REM
REM
REM
REM
REM
REM ./C.cell (11c1c37f851c82e70ff6c80c92926a4b)
REM
REM compiler GCC version 9.2.1 20190827 (Red Hat 9.2.1-1)
REM options -cpp -mtune=generic -march=x86-64 -g -O0 -fpre-include=/usr/include/finclude/math-vector-fortran.h
REM seed 381664375 -140908534 -635011990 721961633 -2076396489 529384850 -1264206583 -565890901 88491494 1732507649 -290641545 1634381049 -956422607 -1224937668 -1451279462 -257531411 1448784853 -1922971946 1369533820 -203014631 -2141621592 719070475 -1980970723 -1518382498 -950098378 103679300 209252249 206900890 -787189424 -358054671 -1629347652 1058987835 722040645
REM
CELL 1.54180   50.00000   50.00000   50.00000   90.00000   90.00000   90.00000
LATT -1
SFAC C  
C      1  0.5874310000000  0.5036680000000  0.4628360000000 1.0
C      1  0.4482650000000  0.5647800000000  0.5316390000000 1.0
C      1  0.4270580000000  0.4569590000000  0.4171570000000 1.0
C      1  0.4766910000000  0.5131050000000  0.4515680000000 1.0
C      1  0.5913020000000  0.5064970000000  0.4917030000000 1.0
C      1  0.6045840000000  0.5004970000000  0.5175360000000 1.0
C      1  0.5182750000000  0.4634250000000  0.4621080000000 1.0
C      1  0.5823200000000  0.5146090000000  0.5313430000000 1.0
C      1  0.5662740000000  0.5106800000000  0.5071930000000 1.0
C      1  0.4263790000000  0.4885620000000  0.4559850000000 1.0
C      1  0.5780950000000  0.5430870000000  0.5305430000000 1.0
C      1  0.5153390000000  0.4692050000000  0.5889870000000 1.0
C      1  0.5174980000000  0.4164050000000  0.4589530000000 1.0
C      1  0.4174500000000  0.4483800000000  0.4926160000000 1.0
C      1  0.5047920000000  0.5132350000000  0.4573630000000 1.0
C      1  0.4083400000000  0.4757940000000  0.4985240000000 1.0
C      1  0.5533130000000  0.4348100000000  0.5170360000000 1.0
C      1  0.4924920000000  0.5683010000000  0.4467850000000 1.0
C      1  0.5808030000000  0.4753640000000  0.4574890000000 1.0
C      1  0.4363830000000  0.5608850000000  0.4737190000000 1.0
C      1  0.4418890000000  0.4534190000000  0.5530060000000 1.0
C      1  0.5045470000000  0.5912290000000  0.5724730000000 1.0
C      1  0.4757510000000  0.5130500000000  0.5729650000000 1.0
C      1  0.5528000000000  0.5207010000000  0.4365970000000 1.0
C      1  0.5675380000000  0.5591040000000  0.5087720000000 1.0
C      1  0.5089030000000  0.4272730000000  0.5437060000000 1.0
C      1  0.4632010000000  0.5146460000000  0.4253510000000 1.0
C      1  0.4507720000000  0.5846340000000  0.5094250000000 1.0
C      1  0.5152810000000  0.4939150000000  0.4998710000000 1.0
C      1  0.4544720000000  0.4687160000000  0.4128720000000 1.0
C      1  0.4855370000000  0.5283330000000  0.4120810000000 1.0
C      1  0.5616470000000  0.4320820000000  0.4878540000000 1.0
C      1  0.4232850000000  0.5217560000000  0.5368240000000 1.0
C      1  0.4972420000000  0.4199700000000  0.4809160000000 1.0
C      1  0.4082150000000  0.4770970000000  0.5274400000000 1.0
C      1  0.4875780000000  0.4390110000000  0.5603300000000 1.0
C      1  0.5206160000000  0.5594320000000  0.4459040000000 1.0
C      1  0.5638580000000  0.5419990000000  0.5564640000000 1.0
C      1  0.4702660000000  0.4754490000000  0.4640860000000 1.0
C      1  0.5390590000000  0.4230120000000  0.5404230000000 1.0
C      1  0.5183270000000  0.5393190000000  0.5041460000000 1.0
C      1  0.4852980000000  0.4801230000000  0.5317590000000 1.0
C      1  0.4755910000000  0.5536330000000  0.4255500000000 1.0
C      1  0.5193270000000  0.4531190000000  0.4186740000000 1.0
C      1  0.4553740000000  0.4229540000000  0.5187710000000 1.0
C      1  0.4732590000000  0.4666750000000  0.4365510000000 1.0
C      1  0.4781610000000  0.5887840000000  0.4979830000000 1.0
C      1  0.5616530000000  0.4712580000000  0.4377250000000 1.0
C      1  0.5058450000000  0.4923110000000  0.5435340000000 1.0
C      1  0.4623880000000  0.4343770000000  0.5455360000000 1.0
C      1  0.4901340000000  0.4471110000000  0.4222010000000 1.0
C      1  0.5544970000000  0.5190900000000  0.5732640000000 1.0
C      1  0.5203840000000  0.4960860000000  0.5922470000000 1.0
C      1  0.5358360000000  0.4796100000000  0.5148190000000 1.0
C      1  0.5494090000000  0.5747400000000  0.5246970000000 1.0
C      1  0.5449320000000  0.5277900000000  0.4947840000000 1.0
C      1  0.4990370000000  0.4478930000000  0.4750410000000 1.0
C      1  0.4286780000000  0.5428560000000  0.4524230000000 1.0
C      1  0.5248550000000  0.5855100000000  0.5123160000000 1.0
C      1  0.4841320000000  0.5793240000000  0.4717690000000 1.0
C      1  0.5532270000000  0.4916120000000  0.5638380000000 1.0
C      1  0.5813590000000  0.4522400000000  0.4781740000000 1.0
C      1  0.5329570000000  0.4927410000000  0.5418310000000 1.0
C      1  0.4496300000000  0.5406540000000  0.4312980000000 1.0
C      1  0.4939750000000  0.5955990000000  0.5962760000000 1.0
C      1  0.4558690000000  0.4992600000000  0.4684920000000 1.0
C      1  0.5475070000000  0.5656740000000  0.5534070000000 1.0
C      1  0.5288960000000  0.5224350000000  0.5883210000000 1.0
C      1  0.6081970000000  0.4698850000000  0.5215150000000 1.0
C      1  0.4193200000000  0.4972190000000  0.5461100000000 1.0
C      1  0.4237400000000  0.4611290000000  0.4469620000000 1.0
C      1  0.4670170000000  0.4972070000000  0.5366720000000 1.0
C      1  0.4185660000000  0.4509190000000  0.5366130000000 1.0
C      1  0.5405900000000  0.4513500000000  0.4463930000000 1.0
C      1  0.4999180000000  0.5181370000000  0.5076260000000 1.0
C      1  0.5198800000000  0.4910620000000  0.4601340000000 1.0
C      1  0.5929450000000  0.4560800000000  0.5012420000000 1.0
C      1  0.4818290000000  0.5398850000000  0.5692620000000 1.0
C      1  0.5224570000000  0.4867740000000  0.4139380000000 1.0
C      1  0.4084320000000  0.4964240000000  0.4765790000000 1.0
C      1  0.5439710000000  0.4653980000000  0.5755910000000 1.0
C      1  0.5096220000000  0.4278430000000  0.4319620000000 1.0
C      1  0.5442750000000  0.4270550000000  0.4649300000000 1.0
C      1  0.4745230000000  0.4578300000000  0.4848300000000 1.0
C      1  0.4300590000000  0.4402770000000  0.4676820000000 1.0
C      1  0.5098430000000  0.5436670000000  0.5780060000000 1.0
C      1  0.4569560000000  0.4314410000000  0.4739360000000 1.0
C      1  0.5366260000000  0.5015440000000  0.4803840000000 1.0
C      1  0.4281170000000  0.4331120000000  0.5153820000000 1.0
C      1  0.4529390000000  0.5150390000000  0.4930980000000 1.0
C      1  0.4699960000000  0.5620810000000  0.5505890000000 1.0
C      1  0.5325270000000  0.4521870000000  0.5138220000000 1.0
C      1  0.4160010000000  0.5247680000000  0.4728200000000 1.0
C      1  0.5456850000000  0.4445380000000  0.5568250000000 1.0
C      1  0.4977090000000  0.5912980000000  0.5208270000000 1.0
C      1  0.4870050000000  0.5848810000000  0.5470810000000 1.0
C      1  0.4277600000000  0.5446610000000  0.5248630000000 1.0
C      1  0.5113380000000  0.5133010000000  0.4130230000000 1.0
C      1  0.4329020000000  0.5350770000000  0.4942210000000 1.0
C      1  0.5706860000000  0.5271010000000  0.4571500000000 1.0
C      1  0.5372640000000  0.5648970000000  0.4684290000000 1.0
C      1  0.4891220000000  0.4631350000000  0.5773690000000 1.0
C      1  0.5487600000000  0.4939030000000  0.4231330000000 1.0
C      1  0.4848330000000  0.4592860000000  0.5127250000000 1.0
C      1  0.5179030000000  0.5659150000000  0.4912330000000 1.0
C      1  0.4697890000000  0.4151510000000  0.4934550000000 1.0
C      1  0.4697120000000  0.4863320000000  0.5766560000000 1.0
C      1  0.5244790000000  0.5673320000000  0.5707660000000 1.0
C      1  0.5613810000000  0.5500710000000  0.4783420000000 1.0
C      1  0.5237150000000  0.5303210000000  0.4371580000000 1.0
C      1  0.4306470000000  0.5871410000000  0.4869080000000 1.0
C      1  0.4712450000000  0.5156840000000  0.5148420000000 1.0
C      1  0.5069500000000  0.4424350000000  0.5191790000000 1.0
C      1  0.4466880000000  0.4833760000000  0.5558690000000 1.0
END
