TITL C-4164238-4211-284 86.4114680425021 125000 -25050.1593876628 0 0 167 (C1) n - 1
REM
REM in /home/nfs/bkarasulu/CARBON/AIRSS/Generating-Clusters/ReaxFF-fromJPCA2015/Units_Real/with-SteepDescent/Only-C1/SD-CG/Try1-3A/FIRE-CG
REM
REM
REM
REM
REM
REM ./C.cell (11c1c37f851c82e70ff6c80c92926a4b)
REM
REM compiler GCC version 9.2.1 20190827 (Red Hat 9.2.1-1)
REM options -cpp -mtune=generic -march=x86-64 -g -O0 -fpre-include=/usr/include/finclude/math-vector-fortran.h
REM seed 497259232 156973489 -224143239 2020276721 -366802403 1540483177 -2039724641 -1159333054 834909427 41484707 -2072271602 109287348 -638306112 392837760 1716628010 1797246126 -1703107668 1180918214 231234937 -431632712 1644222934 -712064249 -1261866892 466091196 -2054562421 736775823 -466423404 365769616 691464657 -789333813 984630217 -211362501 -157651201
REM
CELL 1.54180   50.00000   50.00000   50.00000   90.00000   90.00000   90.00000
LATT -1
SFAC C  
C      1  0.5011080000000  0.4847820000000  0.5935210000000 1.0
C      1  0.4461330000000  0.4519580000000  0.5114980000000 1.0
C      1  0.4666940000000  0.4313550000000  0.5709330000000 1.0
C      1  0.6101110000000  0.4840150000000  0.4651880000000 1.0
C      1  0.5240910000000  0.5383470000000  0.5301640000000 1.0
C      1  0.5704740000000  0.4615060000000  0.4379120000000 1.0
C      1  0.5366080000000  0.4582260000000  0.5784200000000 1.0
C      1  0.4746380000000  0.4541930000000  0.4155200000000 1.0
C      1  0.3925230000000  0.4443510000000  0.5200890000000 1.0
C      1  0.5401450000000  0.5967630000000  0.4658180000000 1.0
C      1  0.4442430000000  0.4977970000000  0.5956430000000 1.0
C      1  0.5836360000000  0.5510470000000  0.4460650000000 1.0
C      1  0.4491480000000  0.4048880000000  0.4965520000000 1.0
C      1  0.4527050000000  0.5237370000000  0.4998800000000 1.0
C      1  0.4929200000000  0.4332460000000  0.5825410000000 1.0
C      1  0.4209830000000  0.5519490000000  0.5491800000000 1.0
C      1  0.5585760000000  0.4997430000000  0.5381370000000 1.0
C      1  0.4783880000000  0.3968860000000  0.4939470000000 1.0
C      1  0.5760820000000  0.5055670000000  0.4918750000000 1.0
C      1  0.5270440000000  0.4674060000000  0.4080720000000 1.0
C      1  0.4069530000000  0.4787710000000  0.5698220000000 1.0
C      1  0.4521040000000  0.5850810000000  0.4620300000000 1.0
C      1  0.3976960000000  0.4577260000000  0.4957090000000 1.0
C      1  0.5811950000000  0.5023830000000  0.5199800000000 1.0
C      1  0.4324850000000  0.4213340000000  0.4748650000000 1.0
C      1  0.5660730000000  0.4901450000000  0.4447340000000 1.0
C      1  0.4625100000000  0.5270670000000  0.4386420000000 1.0
C      1  0.4656810000000  0.4111900000000  0.5487110000000 1.0
C      1  0.4491230000000  0.4356120000000  0.4232880000000 1.0
C      1  0.4985960000000  0.4018980000000  0.4741530000000 1.0
C      1  0.4224030000000  0.5380850000000  0.4362320000000 1.0
C      1  0.5182420000000  0.5428640000000  0.5629660000000 1.0
C      1  0.5150400000000  0.5093770000000  0.5242170000000 1.0
C      1  0.5170160000000  0.4870310000000  0.4893890000000 1.0
C      1  0.4919380000000  0.4936950000000  0.4298060000000 1.0
C      1  0.4745980000000  0.5301990000000  0.5855320000000 1.0
C      1  0.5632900000000  0.5882000000000  0.5387970000000 1.0
C      1  0.4411800000000  0.4998800000000  0.4858180000000 1.0
C      1  0.4034130000000  0.4316370000000  0.5428610000000 1.0
C      1  0.4791190000000  0.5208100000000  0.5418240000000 1.0
C      1  0.4244130000000  0.5094080000000  0.4285230000000 1.0
C      1  0.5404570000000  0.4264770000000  0.4324470000000 1.0
C      1  0.4508050000000  0.5463140000000  0.5848060000000 1.0
C      1  0.5107180000000  0.4183550000000  0.5607930000000 1.0
C      1  0.5422430000000  0.5103160000000  0.4290860000000 1.0
C      1  0.6109000000000  0.4613110000000  0.4699930000000 1.0
C      1  0.4127150000000  0.4619220000000  0.4492020000000 1.0
C      1  0.5879050000000  0.5731500000000  0.5357830000000 1.0
C      1  0.4566040000000  0.5071010000000  0.4598440000000 1.0
C      1  0.4005860000000  0.4551380000000  0.5583330000000 1.0
C      1  0.4454760000000  0.4194930000000  0.4484190000000 1.0
C      1  0.5583830000000  0.4386180000000  0.5653820000000 1.0
C      1  0.4905900000000  0.5501790000000  0.4680250000000 1.0
C      1  0.4016720000000  0.5335820000000  0.5089940000000 1.0
C      1  0.4834540000000  0.4753390000000  0.5183170000000 1.0
C      1  0.5416450000000  0.4192370000000  0.5531670000000 1.0
C      1  0.4703950000000  0.4835400000000  0.4110270000000 1.0
C      1  0.3957920000000  0.4876950000000  0.4990120000000 1.0
C      1  0.5615090000000  0.5780770000000  0.4644300000000 1.0
C      1  0.5821220000000  0.5605000000000  0.5624100000000 1.0
C      1  0.5044230000000  0.4489860000000  0.4126950000000 1.0
C      1  0.4994770000000  0.3973510000000  0.5150650000000 1.0
C      1  0.4315570000000  0.5757140000000  0.5043540000000 1.0
C      1  0.4696220000000  0.5651720000000  0.5428370000000 1.0
C      1  0.6055540000000  0.4866790000000  0.5275980000000 1.0
C      1  0.4930340000000  0.4966700000000  0.5363070000000 1.0
C      1  0.5530220000000  0.4216630000000  0.4585670000000 1.0
C      1  0.5074630000000  0.4451000000000  0.5446010000000 1.0
C      1  0.4839740000000  0.4501450000000  0.5302460000000 1.0
C      1  0.5887420000000  0.4421610000000  0.5112240000000 1.0
C      1  0.4529740000000  0.4583750000000  0.5714150000000 1.0
C      1  0.4100900000000  0.5021690000000  0.5483560000000 1.0
C      1  0.4020430000000  0.5315880000000  0.4801940000000 1.0
C      1  0.5504810000000  0.5404530000000  0.4272800000000 1.0
C      1  0.5683080000000  0.5803840000000  0.4916810000000 1.0
C      1  0.4547920000000  0.5933150000000  0.5103490000000 1.0
C      1  0.4423850000000  0.4934290000000  0.5373920000000 1.0
C      1  0.5147370000000  0.5694830000000  0.4166700000000 1.0
C      1  0.5449420000000  0.5587630000000  0.4500060000000 1.0
C      1  0.5306160000000  0.4686690000000  0.5062750000000 1.0
C      1  0.5100600000000  0.5873310000000  0.5532590000000 1.0
C      1  0.5973340000000  0.5365350000000  0.4659720000000 1.0
C      1  0.5254540000000  0.4650970000000  0.5525550000000 1.0
C      1  0.5323850000000  0.4223610000000  0.4801410000000 1.0
C      1  0.4163420000000  0.5564270000000  0.5206190000000 1.0
C      1  0.4785890000000  0.5555900000000  0.5138760000000 1.0
C      1  0.5473930000000  0.5456050000000  0.5143880000000 1.0
C      1  0.5897950000000  0.5673690000000  0.5064240000000 1.0
C      1  0.4882150000000  0.5409510000000  0.5613820000000 1.0
C      1  0.5070550000000  0.5103840000000  0.4972970000000 1.0
C      1  0.6040910000000  0.5453710000000  0.4944910000000 1.0
C      1  0.4292060000000  0.4520130000000  0.4301240000000 1.0
C      1  0.4074580000000  0.5020960000000  0.4751000000000 1.0
C      1  0.5486270000000  0.4828060000000  0.4675640000000 1.0
C      1  0.4536250000000  0.5198960000000  0.5286560000000 1.0
C      1  0.5905570000000  0.5049470000000  0.4639530000000 1.0
C      1  0.4755640000000  0.4877440000000  0.4541770000000 1.0
C      1  0.4771270000000  0.4576110000000  0.4496630000000 1.0
C      1  0.6158310000000  0.5238120000000  0.5098300000000 1.0
C      1  0.5596170000000  0.4393350000000  0.5127250000000 1.0
C      1  0.5322700000000  0.4967710000000  0.4043120000000 1.0
C      1  0.4731380000000  0.5937700000000  0.5339410000000 1.0
C      1  0.5457400000000  0.4156780000000  0.5248400000000 1.0
C      1  0.4681900000000  0.5457870000000  0.4895450000000 1.0
C      1  0.5553310000000  0.5183890000000  0.5583790000000 1.0
C      1  0.6266570000000  0.5020030000000  0.5193270000000 1.0
C      1  0.5072110000000  0.5575910000000  0.5095050000000 1.0
C      1  0.5015220000000  0.6004790000000  0.5317390000000 1.0
C      1  0.4469900000000  0.5019950000000  0.4091160000000 1.0
C      1  0.5198960000000  0.6028180000000  0.4856520000000 1.0
C      1  0.4681120000000  0.4407620000000  0.4941290000000 1.0
C      1  0.4650760000000  0.5999310000000  0.4837040000000 1.0
C      1  0.5805880000000  0.4560620000000  0.5587570000000 1.0
C      1  0.4936910000000  0.4155380000000  0.4501790000000 1.0
C      1  0.5058950000000  0.4570350000000  0.5918410000000 1.0
C      1  0.4314130000000  0.4323610000000  0.5298100000000 1.0
C      1  0.4149220000000  0.5497650000000  0.4622550000000 1.0
C      1  0.4921510000000  0.4024150000000  0.5428350000000 1.0
C      1  0.4298360000000  0.5720940000000  0.4751540000000 1.0
C      1  0.5004700000000  0.4590330000000  0.4663970000000 1.0
C      1  0.5202310000000  0.4788200000000  0.4622130000000 1.0
C      1  0.4930560000000  0.6019470000000  0.4747360000000 1.0
C      1  0.4629390000000  0.4827470000000  0.5596310000000 1.0
C      1  0.5302380000000  0.5469310000000  0.4071200000000 1.0
C      1  0.4313060000000  0.4734070000000  0.5867560000000 1.0
C      1  0.5891560000000  0.5061510000000  0.5763700000000 1.0
C      1  0.4968060000000  0.5777940000000  0.4594020000000 1.0
C      1  0.4458590000000  0.4077110000000  0.5258150000000 1.0
C      1  0.5233520000000  0.5793460000000  0.4453860000000 1.0
C      1  0.4152550000000  0.5269250000000  0.5636720000000 1.0
C      1  0.5186400000000  0.5219940000000  0.3939310000000 1.0
C      1  0.4115040000000  0.4914740000000  0.4467350000000 1.0
C      1  0.3975790000000  0.5065260000000  0.5205380000000 1.0
C      1  0.4421320000000  0.4806130000000  0.5101010000000 1.0
C      1  0.4474750000000  0.5508890000000  0.4289460000000 1.0
C      1  0.5271520000000  0.4981350000000  0.5905750000000 1.0
C      1  0.5571280000000  0.5766200000000  0.5647150000000 1.0
C      1  0.5146600000000  0.5364270000000  0.4853260000000 1.0
C      1  0.5965870000000  0.4577320000000  0.5345080000000 1.0
C      1  0.5265520000000  0.4062810000000  0.5045710000000 1.0
C      1  0.5775020000000  0.4803390000000  0.5784900000000 1.0
C      1  0.5810640000000  0.5308040000000  0.5683080000000 1.0
C      1  0.4873440000000  0.4616740000000  0.4917880000000 1.0
C      1  0.5483950000000  0.5763760000000  0.5136920000000 1.0
C      1  0.4906880000000  0.5374700000000  0.4390890000000 1.0
C      1  0.5112910000000  0.5142300000000  0.4355760000000 1.0
C      1  0.5359110000000  0.4827070000000  0.5324590000000 1.0
C      1  0.5115270000000  0.4257890000000  0.4287930000000 1.0
C      1  0.5954260000000  0.4410200000000  0.4816590000000 1.0
C      1  0.5452850000000  0.5319380000000  0.4888590000000 1.0
C      1  0.5493100000000  0.4518100000000  0.4203230000000 1.0
C      1  0.5510550000000  0.5044880000000  0.4858730000000 1.0
C      1  0.4870970000000  0.5638670000000  0.4213260000000 1.0
C      1  0.5765530000000  0.4404600000000  0.4586120000000 1.0
C      1  0.4905350000000  0.5231240000000  0.3937870000000 1.0
C      1  0.5504830000000  0.4805700000000  0.5896720000000 1.0
C      1  0.5329360000000  0.5211990000000  0.5745830000000 1.0
C      1  0.5447770000000  0.4495880000000  0.4890030000000 1.0
C      1  0.5195720000000  0.5870240000000  0.5093800000000 1.0
C      1  0.4732780000000  0.4996840000000  0.5860310000000 1.0
C      1  0.4644400000000  0.5218580000000  0.3982640000000 1.0
C      1  0.4148210000000  0.4443810000000  0.4743280000000 1.0
C      1  0.4456560000000  0.5617470000000  0.5604480000000 1.0
C      1  0.5274070000000  0.5721390000000  0.5683730000000 1.0
C      1  0.4694540000000  0.4318450000000  0.4620210000000 1.0
C      1  0.4320440000000  0.5236170000000  0.5874740000000 1.0
C      1  0.4635990000000  0.5754580000000  0.4356880000000 1.0
END
