TITL C-4164239-2837-223 54.3437856906359 125000 -17378.228475536 0 0 119 (C1) n - 1
REM
REM in /home/nfs/bkarasulu/CARBON/AIRSS/Generating-Clusters/ReaxFF-fromJPCA2015/Units_Real/with-SteepDescent/Only-C1/SD-CG/Try1-3A/FIRE-CG
REM
REM
REM
REM
REM
REM ./C.cell (11c1c37f851c82e70ff6c80c92926a4b)
REM
REM compiler GCC version 9.2.1 20190827 (Red Hat 9.2.1-1)
REM options -cpp -mtune=generic -march=x86-64 -g -O0 -fpre-include=/usr/include/finclude/math-vector-fortran.h
REM seed 1198237134 1787038352 -613940836 -2053921442 1258073520 -1682714519 734222243 -1529887023 232967853 2049951057 -750700796 539149969 38179347 1470647273 1188127879 -1418683810 1882827722 -220265998 2021189741 -5084908 829680198 -564172001 1779765110 -203199553 -2114319274 572397021 715010935 -1172728306 877977137 -1401680683 -104946239 1408698486 -2040694075
REM
CELL 1.54180   50.00000   50.00000   50.00000   90.00000   90.00000   90.00000
LATT -1
SFAC C  
C      1  0.5550460000000  0.5738450000000  0.4986210000000 1.0
C      1  0.5670470000000  0.4576910000000  0.4534930000000 1.0
C      1  0.5176430000000  0.4431410000000  0.4310240000000 1.0
C      1  0.4547070000000  0.4241860000000  0.5405790000000 1.0
C      1  0.5262040000000  0.5946960000000  0.4640190000000 1.0
C      1  0.4528970000000  0.4757670000000  0.4328380000000 1.0
C      1  0.5773270000000  0.5097220000000  0.5254170000000 1.0
C      1  0.5497740000000  0.5789260000000  0.5280770000000 1.0
C      1  0.5160900000000  0.5849030000000  0.4397320000000 1.0
C      1  0.4949380000000  0.4549190000000  0.5052630000000 1.0
C      1  0.4547870000000  0.5733140000000  0.5124890000000 1.0
C      1  0.4587320000000  0.5167750000000  0.5389480000000 1.0
C      1  0.4862120000000  0.5857800000000  0.5505020000000 1.0
C      1  0.4847140000000  0.5629330000000  0.4740780000000 1.0
C      1  0.5022770000000  0.5865580000000  0.4797870000000 1.0
C      1  0.5416210000000  0.4787350000000  0.4176080000000 1.0
C      1  0.6024330000000  0.4898310000000  0.4805740000000 1.0
C      1  0.4994660000000  0.5472140000000  0.5794290000000 1.0
C      1  0.5582340000000  0.5000990000000  0.4889420000000 1.0
C      1  0.4799590000000  0.5279960000000  0.5257480000000 1.0
C      1  0.5142000000000  0.5283210000000  0.4478760000000 1.0
C      1  0.4603010000000  0.5790710000000  0.5593720000000 1.0
C      1  0.4486620000000  0.4167130000000  0.5119780000000 1.0
C      1  0.5172040000000  0.4938140000000  0.4124790000000 1.0
C      1  0.4988760000000  0.4043990000000  0.4677450000000 1.0
C      1  0.4586160000000  0.4848800000000  0.5831670000000 1.0
C      1  0.4664220000000  0.4663780000000  0.5036150000000 1.0
C      1  0.5226430000000  0.4079800000000  0.4592950000000 1.0
C      1  0.5391060000000  0.4152440000000  0.5200700000000 1.0
C      1  0.4428530000000  0.4837070000000  0.4592130000000 1.0
C      1  0.4148630000000  0.4915670000000  0.4635530000000 1.0
C      1  0.5559880000000  0.5031560000000  0.4240040000000 1.0
C      1  0.5039320000000  0.5616410000000  0.5544250000000 1.0
C      1  0.4594770000000  0.5214040000000  0.4872850000000 1.0
C      1  0.5601630000000  0.4513260000000  0.5542700000000 1.0
C      1  0.4938480000000  0.4833600000000  0.4261500000000 1.0
C      1  0.4267710000000  0.4351780000000  0.5048880000000 1.0
C      1  0.5102200000000  0.4105680000000  0.5200850000000 1.0
C      1  0.5712010000000  0.5178590000000  0.4700640000000 1.0
C      1  0.4850530000000  0.4818740000000  0.5406020000000 1.0
C      1  0.5632040000000  0.5678090000000  0.4498590000000 1.0
C      1  0.4181620000000  0.4748890000000  0.5859420000000 1.0
C      1  0.5484670000000  0.5635440000000  0.4255030000000 1.0
C      1  0.5067470000000  0.5647740000000  0.4224500000000 1.0
C      1  0.4424090000000  0.5554440000000  0.5317540000000 1.0
C      1  0.5604230000000  0.4870260000000  0.5267110000000 1.0
C      1  0.4575610000000  0.5713280000000  0.4820350000000 1.0
C      1  0.5718420000000  0.4495440000000  0.4780130000000 1.0
C      1  0.5491900000000  0.4186530000000  0.4950060000000 1.0
C      1  0.4483300000000  0.5505880000000  0.4316550000000 1.0
C      1  0.4657560000000  0.4691600000000  0.5592390000000 1.0
C      1  0.5171170000000  0.5335840000000  0.4961320000000 1.0
C      1  0.4461780000000  0.4509550000000  0.5467700000000 1.0
C      1  0.4417840000000  0.5592830000000  0.4608240000000 1.0
C      1  0.4823950000000  0.5374210000000  0.4963300000000 1.0
C      1  0.4771700000000  0.4188840000000  0.5586800000000 1.0
C      1  0.4695780000000  0.4992180000000  0.4260730000000 1.0
C      1  0.5279000000000  0.5222700000000  0.5247980000000 1.0
C      1  0.4310990000000  0.4968590000000  0.5787080000000 1.0
C      1  0.5414030000000  0.4594760000000  0.5757070000000 1.0
C      1  0.4222560000000  0.4864650000000  0.5087640000000 1.0
C      1  0.4795290000000  0.5053750000000  0.5817490000000 1.0
C      1  0.5116530000000  0.4612500000000  0.5760530000000 1.0
C      1  0.4939740000000  0.4571860000000  0.4410340000000 1.0
C      1  0.4751760000000  0.4908690000000  0.5140450000000 1.0
C      1  0.5382610000000  0.4815300000000  0.4937210000000 1.0
C      1  0.5543470000000  0.5861190000000  0.4715810000000 1.0
C      1  0.4035540000000  0.5370260000000  0.4909900000000 1.0
C      1  0.5298400000000  0.4286200000000  0.4778670000000 1.0
C      1  0.5055890000000  0.5365250000000  0.5389310000000 1.0
C      1  0.4925030000000  0.4969270000000  0.4938410000000 1.0
C      1  0.5050380000000  0.4900580000000  0.5806020000000 1.0
C      1  0.5211410000000  0.4189270000000  0.4370780000000 1.0
C      1  0.5766880000000  0.5037220000000  0.4437040000000 1.0
C      1  0.5429270000000  0.4535610000000  0.4317620000000 1.0
C      1  0.5399390000000  0.5509590000000  0.4887410000000 1.0
C      1  0.5191860000000  0.4748060000000  0.4741130000000 1.0
C      1  0.4589790000000  0.4668820000000  0.4770660000000 1.0
C      1  0.4994150000000  0.4358790000000  0.5683790000000 1.0
C      1  0.5687570000000  0.4799560000000  0.5523950000000 1.0
C      1  0.5295670000000  0.5054790000000  0.5804390000000 1.0
C      1  0.5520300000000  0.4863180000000  0.5764000000000 1.0
C      1  0.5280780000000  0.5344580000000  0.5824780000000 1.0
C      1  0.4241180000000  0.4453200000000  0.4783200000000 1.0
C      1  0.4519350000000  0.5524550000000  0.5605280000000 1.0
C      1  0.5567440000000  0.5548010000000  0.5465310000000 1.0
C      1  0.5879090000000  0.4793860000000  0.4551410000000 1.0
C      1  0.5591020000000  0.5447610000000  0.4680360000000 1.0
C      1  0.4761460000000  0.5907860000000  0.5233580000000 1.0
C      1  0.5314590000000  0.4882750000000  0.5225320000000 1.0
C      1  0.5251850000000  0.5892790000000  0.5220400000000 1.0
C      1  0.4914420000000  0.5467390000000  0.4438540000000 1.0
C      1  0.5566030000000  0.5308080000000  0.5302110000000 1.0
C      1  0.4921110000000  0.4067290000000  0.4949750000000 1.0
C      1  0.5443410000000  0.5427280000000  0.5683850000000 1.0
C      1  0.5294910000000  0.5494390000000  0.4109930000000 1.0
C      1  0.5177930000000  0.5184100000000  0.4725600000000 1.0
C      1  0.4110930000000  0.4711130000000  0.4834730000000 1.0
C      1  0.4532670000000  0.4398460000000  0.4673550000000 1.0
C      1  0.4409440000000  0.5308650000000  0.4671660000000 1.0
C      1  0.5701850000000  0.4357060000000  0.5028260000000 1.0
C      1  0.4364670000000  0.4597190000000  0.5201270000000 1.0
C      1  0.5289600000000  0.5202730000000  0.4231260000000 1.0
C      1  0.4365470000000  0.5080600000000  0.5491590000000 1.0
C      1  0.4213640000000  0.5336020000000  0.5161610000000 1.0
C      1  0.4380480000000  0.5116260000000  0.5037060000000 1.0
C      1  0.5080540000000  0.4495330000000  0.4794960000000 1.0
C      1  0.5953120000000  0.5064780000000  0.5024360000000 1.0
C      1  0.4656360000000  0.4501660000000  0.4407690000000 1.0
C      1  0.4122890000000  0.5212770000000  0.4681140000000 1.0
C      1  0.4690680000000  0.5292930000000  0.4306700000000 1.0
C      1  0.5035670000000  0.4132000000000  0.5477050000000 1.0
C      1  0.4092360000000  0.5066180000000  0.5321790000000 1.0
C      1  0.4742020000000  0.5339160000000  0.5745820000000 1.0
C      1  0.5072780000000  0.4692020000000  0.5266130000000 1.0
C      1  0.5038720000000  0.4963350000000  0.4687250000000 1.0
C      1  0.5016740000000  0.5955540000000  0.5080750000000 1.0
C      1  0.5571360000000  0.4360710000000  0.5300060000000 1.0
C      1  0.4657670000000  0.4165540000000  0.4888430000000 1.0
END
