TITL C-4164234-2335-660 51.4915678114496 125000 -22177.0450934888 0 0 150 (C1) n - 1
REM
REM in /home/nfs/bkarasulu/CARBON/AIRSS/Generating-Clusters/ReaxFF-fromJPCA2015/Units_Real/with-SteepDescent/Only-C1/SD-CG/Try1-3A/FIRE-CG
REM
REM
REM
REM
REM
REM ./C.cell (11c1c37f851c82e70ff6c80c92926a4b)
REM
REM compiler GCC version 9.2.1 20190827 (Red Hat 9.2.1-1)
REM options -cpp -mtune=generic -march=x86-64 -g -O0 -fpre-include=/usr/include/finclude/math-vector-fortran.h
REM seed -1276657700 -215519107 334941284 464745235 387085837 -2101894854 -1601192342 -55150121 -1511236130 265979291 -1981239954 -1886059089 -1666818199 1013531862 466727771 906485526 -89635374 -1217895187 -210757780 -1531471033 1708533365 -898271018 -1228493164 -464035325 -1929071810 -896583758 1123523187 1097033127 -1010917926 1396666965 1293740099 -180341938 1464033775
REM
CELL 1.54180   50.00000   50.00000   50.00000   90.00000   90.00000   90.00000
LATT -1
SFAC C  
C      1  0.4343690000000  0.5137940000000  0.5852620000000 1.0
C      1  0.4598770000000  0.4106250000000  0.4978760000000 1.0
C      1  0.4131480000000  0.4997800000000  0.4448620000000 1.0
C      1  0.4863840000000  0.4120360000000  0.5083710000000 1.0
C      1  0.4010530000000  0.5468070000000  0.4710070000000 1.0
C      1  0.4984140000000  0.5485980000000  0.4801970000000 1.0
C      1  0.5077580000000  0.4523000000000  0.5860500000000 1.0
C      1  0.5124020000000  0.5305310000000  0.5462310000000 1.0
C      1  0.5359140000000  0.5971600000000  0.4958850000000 1.0
C      1  0.5269820000000  0.4059270000000  0.5627810000000 1.0
C      1  0.4624470000000  0.5105080000000  0.5221680000000 1.0
C      1  0.5733480000000  0.5736990000000  0.5203830000000 1.0
C      1  0.5170810000000  0.5277130000000  0.4941520000000 1.0
C      1  0.4844790000000  0.4987820000000  0.6001130000000 1.0
C      1  0.5262390000000  0.5884570000000  0.4484300000000 1.0
C      1  0.5607190000000  0.5209490000000  0.4848750000000 1.0
C      1  0.5905530000000  0.5224810000000  0.5137070000000 1.0
C      1  0.5011130000000  0.5476980000000  0.5920340000000 1.0
C      1  0.5737830000000  0.5417590000000  0.5302350000000 1.0
C      1  0.4465200000000  0.5627430000000  0.5991390000000 1.0
C      1  0.5494330000000  0.4890810000000  0.6034000000000 1.0
C      1  0.5607500000000  0.5297830000000  0.4226090000000 1.0
C      1  0.4836340000000  0.5807970000000  0.5604780000000 1.0
C      1  0.5623090000000  0.5813570000000  0.4943370000000 1.0
C      1  0.5094090000000  0.5054480000000  0.5136040000000 1.0
C      1  0.5427200000000  0.5540830000000  0.4268170000000 1.0
C      1  0.5651240000000  0.4959490000000  0.5558380000000 1.0
C      1  0.4861680000000  0.4338970000000  0.5771290000000 1.0
C      1  0.5637770000000  0.4264970000000  0.5403960000000 1.0
C      1  0.5026410000000  0.4871790000000  0.4580700000000 1.0
C      1  0.4313160000000  0.5793640000000  0.5044100000000 1.0
C      1  0.4000040000000  0.4856120000000  0.4946790000000 1.0
C      1  0.4773400000000  0.5652140000000  0.5846570000000 1.0
C      1  0.4771470000000  0.5243540000000  0.5643240000000 1.0
C      1  0.4805350000000  0.5778140000000  0.4434320000000 1.0
C      1  0.6033210000000  0.4715060000000  0.4932010000000 1.0
C      1  0.5284400000000  0.4934090000000  0.4652700000000 1.0
C      1  0.5098400000000  0.5698970000000  0.5550350000000 1.0
C      1  0.4248160000000  0.4568560000000  0.4671690000000 1.0
C      1  0.5452680000000  0.4471930000000  0.4760730000000 1.0
C      1  0.5546180000000  0.4679050000000  0.4154770000000 1.0
C      1  0.5445860000000  0.5481790000000  0.5302250000000 1.0
C      1  0.4232740000000  0.4834210000000  0.5592200000000 1.0
C      1  0.5445240000000  0.5090640000000  0.4253940000000 1.0
C      1  0.4977760000000  0.4140330000000  0.5589600000000 1.0
C      1  0.4691140000000  0.5909630000000  0.4670680000000 1.0
C      1  0.4366630000000  0.5406110000000  0.4467110000000 1.0
C      1  0.5244830000000  0.5554330000000  0.5777990000000 1.0
C      1  0.5317460000000  0.4771650000000  0.4013500000000 1.0
C      1  0.5350110000000  0.5181240000000  0.4743770000000 1.0
C      1  0.4541210000000  0.4725020000000  0.5932670000000 1.0
C      1  0.4715180000000  0.5378960000000  0.5193680000000 1.0
C      1  0.4843550000000  0.5505400000000  0.4542480000000 1.0
C      1  0.5462700000000  0.5403170000000  0.5695640000000 1.0
C      1  0.4848930000000  0.5293450000000  0.4379930000000 1.0
C      1  0.5494080000000  0.4194190000000  0.5158480000000 1.0
C      1  0.4364520000000  0.5432890000000  0.5789010000000 1.0
C      1  0.5102280000000  0.5019120000000  0.5404860000000 1.0
C      1  0.5466950000000  0.4283820000000  0.5645450000000 1.0
C      1  0.4633940000000  0.5103480000000  0.4782890000000 1.0
C      1  0.5594930000000  0.4393670000000  0.4526110000000 1.0
C      1  0.4203080000000  0.4460870000000  0.4927370000000 1.0
C      1  0.4914380000000  0.4644550000000  0.4659880000000 1.0
C      1  0.4709430000000  0.4932100000000  0.4007980000000 1.0
C      1  0.5494690000000  0.4922950000000  0.4470760000000 1.0
C      1  0.4771340000000  0.4548240000000  0.5379250000000 1.0
C      1  0.5105490000000  0.4091520000000  0.4625340000000 1.0
C      1  0.4449930000000  0.5466340000000  0.4745970000000 1.0
C      1  0.4501640000000  0.4375680000000  0.4240100000000 1.0
C      1  0.5675700000000  0.5056250000000  0.5077690000000 1.0
C      1  0.5237360000000  0.5489430000000  0.5116040000000 1.0
C      1  0.5508760000000  0.4781400000000  0.5808280000000 1.0
C      1  0.5090400000000  0.4028090000000  0.4919700000000 1.0
C      1  0.4115780000000  0.4823500000000  0.4676160000000 1.0
C      1  0.5987150000000  0.4945260000000  0.4764700000000 1.0
C      1  0.5065330000000  0.5773540000000  0.4293720000000 1.0
C      1  0.5969650000000  0.4656880000000  0.5229700000000 1.0
C      1  0.5274400000000  0.5905740000000  0.5434640000000 1.0
C      1  0.4545510000000  0.4988770000000  0.6022210000000 1.0
C      1  0.5145130000000  0.5495570000000  0.4205770000000 1.0
C      1  0.5359730000000  0.4514230000000  0.5781970000000 1.0
C      1  0.4363410000000  0.3912130000000  0.4698720000000 1.0
C      1  0.4115110000000  0.5585810000000  0.4961090000000 1.0
C      1  0.4482100000000  0.4472190000000  0.4517800000000 1.0
C      1  0.5867550000000  0.4373560000000  0.5256090000000 1.0
C      1  0.4347230000000  0.5378330000000  0.5011740000000 1.0
C      1  0.4604750000000  0.3994950000000  0.4699080000000 1.0
C      1  0.5170510000000  0.6006580000000  0.5186110000000 1.0
C      1  0.4051750000000  0.4616490000000  0.5110290000000 1.0
C      1  0.5684050000000  0.5667350000000  0.4703080000000 1.0
C      1  0.5812470000000  0.5370980000000  0.4686540000000 1.0
C      1  0.4586330000000  0.4921990000000  0.5011830000000 1.0
C      1  0.4586360000000  0.5332810000000  0.4286160000000 1.0
C      1  0.4353510000000  0.5085280000000  0.5586310000000 1.0
C      1  0.5176730000000  0.5991630000000  0.4745660000000 1.0
C      1  0.5102950000000  0.4782410000000  0.5063190000000 1.0
C      1  0.4876680000000  0.5963980000000  0.5150820000000 1.0
C      1  0.5404990000000  0.4460230000000  0.5038090000000 1.0
C      1  0.4094610000000  0.5291710000000  0.4485950000000 1.0
C      1  0.4192650000000  0.5270290000000  0.5234670000000 1.0
C      1  0.5805080000000  0.5214880000000  0.4425910000000 1.0
C      1  0.4623160000000  0.4455180000000  0.5631560000000 1.0
C      1  0.5083260000000  0.4617580000000  0.4114800000000 1.0
C      1  0.4778630000000  0.5325050000000  0.4924980000000 1.0
C      1  0.4904040000000  0.4820930000000  0.5525760000000 1.0
C      1  0.4696240000000  0.5839620000000  0.5352340000000 1.0
C      1  0.4043930000000  0.5019260000000  0.5186040000000 1.0
C      1  0.4433030000000  0.5702840000000  0.5301400000000 1.0
C      1  0.5664080000000  0.5277080000000  0.5577970000000 1.0
C      1  0.4826800000000  0.4716280000000  0.4187310000000 1.0
C      1  0.5335780000000  0.5069970000000  0.4016620000000 1.0
C      1  0.4817620000000  0.5069010000000  0.4557350000000 1.0
C      1  0.5269580000000  0.3927000000000  0.5380980000000 1.0
C      1  0.4970580000000  0.4794570000000  0.5814970000000 1.0
C      1  0.4900630000000  0.4610050000000  0.4933820000000 1.0
C      1  0.5732060000000  0.4633980000000  0.4353320000000 1.0
C      1  0.4432020000000  0.4358440000000  0.5071200000000 1.0
C      1  0.5827060000000  0.4277360000000  0.4709990000000 1.0
C      1  0.5116220000000  0.5277320000000  0.3985290000000 1.0
C      1  0.4637850000000  0.5033520000000  0.5508460000000 1.0
C      1  0.4882030000000  0.5141110000000  0.3971860000000 1.0
C      1  0.4389920000000  0.4607170000000  0.5733040000000 1.0
C      1  0.4723100000000  0.4637760000000  0.4460770000000 1.0
C      1  0.5336840000000  0.4703620000000  0.5199830000000 1.0
C      1  0.4495630000000  0.5105470000000  0.4118690000000 1.0
C      1  0.4845460000000  0.4075570000000  0.4485160000000 1.0
C      1  0.5516920000000  0.5753960000000  0.5394680000000 1.0
C      1  0.5515040000000  0.5730470000000  0.4479750000000 1.0
C      1  0.4463040000000  0.5766540000000  0.4793930000000 1.0
C      1  0.4369190000000  0.4623690000000  0.4146230000000 1.0
C      1  0.6015440000000  0.5217660000000  0.4871570000000 1.0
C      1  0.5265920000000  0.4270010000000  0.4466790000000 1.0
C      1  0.4330850000000  0.5443150000000  0.5418430000000 1.0
C      1  0.5913260000000  0.4254900000000  0.4988130000000 1.0
C      1  0.5528220000000  0.4905810000000  0.5281300000000 1.0
C      1  0.4998150000000  0.5509640000000  0.5288450000000 1.0
C      1  0.4897610000000  0.4277060000000  0.5343140000000 1.0
C      1  0.4895780000000  0.5990960000000  0.4861870000000 1.0
C      1  0.4970660000000  0.5203410000000  0.5833780000000 1.0
C      1  0.4650230000000  0.4632210000000  0.5084710000000 1.0
C      1  0.4299560000000  0.4908100000000  0.4220230000000 1.0
C      1  0.4087520000000  0.4789140000000  0.5346380000000 1.0
C      1  0.5915120000000  0.4836560000000  0.5450050000000 1.0
C      1  0.4637460000000  0.5473550000000  0.5670890000000 1.0
C      1  0.5311880000000  0.3959190000000  0.5102280000000 1.0
C      1  0.4250280000000  0.4322650000000  0.5305550000000 1.0
C      1  0.6040930000000  0.4450370000000  0.4806600000000 1.0
C      1  0.5078690000000  0.4350010000000  0.4256440000000 1.0
C      1  0.4796830000000  0.4248730000000  0.4274970000000 1.0
C      1  0.5830190000000  0.4933450000000  0.4500110000000 1.0
END
