TITL C-4164235-1454-316 2.4242584069104 125000 -8896.24983408252 0 0 61 (C1) n - 1
REM
REM in /home/nfs/bkarasulu/CARBON/AIRSS/Generating-Clusters/ReaxFF-fromJPCA2015/Units_Real/with-SteepDescent/Only-C1/SD-CG/Try1-3A/FIRE-CG
REM
REM
REM
REM
REM
REM ./C.cell (11c1c37f851c82e70ff6c80c92926a4b)
REM
REM compiler GCC version 9.2.1 20190827 (Red Hat 9.2.1-1)
REM options -cpp -mtune=generic -march=x86-64 -g -O0 -fpre-include=/usr/include/finclude/math-vector-fortran.h
REM seed -291531505 916556140 909503468 -1328733884 808941979 -808653440 -1328156972 1660401169 -114051023 1867647234 1483544741 339656046 1306325803 1079541468 -1305530336 1182628416 999377285 1341688022 -319988709 627061106 1625892511 -670420112 -551496384 -393884594 473920334 1553979229 -115568928 1132839832 -607828432 -112249493 -191921712 -414324293 -332976953
REM
CELL 1.54180   50.00000   50.00000   50.00000   90.00000   90.00000   90.00000
LATT -1
SFAC C  
C      1  0.4589460000000  0.4751420000000  0.5388490000000 1.0
C      1  0.5093390000000  0.4166910000000  0.5200250000000 1.0
C      1  0.5009390000000  0.5298400000000  0.4497030000000 1.0
C      1  0.5301180000000  0.4368310000000  0.4899320000000 1.0
C      1  0.4773420000000  0.4286250000000  0.4809430000000 1.0
C      1  0.5413670000000  0.4684970000000  0.5230950000000 1.0
C      1  0.4910920000000  0.4527480000000  0.5542240000000 1.0
C      1  0.4962880000000  0.5132390000000  0.5034740000000 1.0
C      1  0.5255990000000  0.4740350000000  0.5643190000000 1.0
C      1  0.5614880000000  0.5485260000000  0.4822190000000 1.0
C      1  0.5164510000000  0.4808250000000  0.5367530000000 1.0
C      1  0.4393650000000  0.5380480000000  0.4744300000000 1.0
C      1  0.5134830000000  0.4558280000000  0.4507030000000 1.0
C      1  0.5302790000000  0.5619580000000  0.5513030000000 1.0
C      1  0.4947980000000  0.5316710000000  0.5297710000000 1.0
C      1  0.4262400000000  0.5294950000000  0.4990330000000 1.0
C      1  0.5656190000000  0.5223890000000  0.4949560000000 1.0
C      1  0.4974030000000  0.5753000000000  0.5093390000000 1.0
C      1  0.5076960000000  0.5673350000000  0.4825930000000 1.0
C      1  0.4614010000000  0.5594820000000  0.4685600000000 1.0
C      1  0.5269900000000  0.4268730000000  0.5392180000000 1.0
C      1  0.5443250000000  0.5471860000000  0.4595100000000 1.0
C      1  0.4680720000000  0.5442680000000  0.5340760000000 1.0
C      1  0.4634890000000  0.4514870000000  0.4931700000000 1.0
C      1  0.4739140000000  0.4848710000000  0.4291100000000 1.0
C      1  0.5030440000000  0.5228820000000  0.5590760000000 1.0
C      1  0.5272250000000  0.5219360000000  0.4627100000000 1.0
C      1  0.5415180000000  0.4995080000000  0.4453330000000 1.0
C      1  0.4883520000000  0.4708220000000  0.5339060000000 1.0
C      1  0.5170210000000  0.4442660000000  0.5616850000000 1.0
C      1  0.5231520000000  0.5155330000000  0.4954160000000 1.0
C      1  0.5683930000000  0.4934890000000  0.4836160000000 1.0
C      1  0.5541790000000  0.4790480000000  0.4617950000000 1.0
C      1  0.5199660000000  0.4980880000000  0.4281250000000 1.0
C      1  0.5367740000000  0.5668010000000  0.4790160000000 1.0
C      1  0.4693880000000  0.5704770000000  0.5199540000000 1.0
C      1  0.5430590000000  0.4395950000000  0.5165990000000 1.0
C      1  0.5127600000000  0.5588390000000  0.5282490000000 1.0
C      1  0.5050730000000  0.4214830000000  0.4931090000000 1.0
C      1  0.4567150000000  0.5261830000000  0.5538350000000 1.0
C      1  0.4522110000000  0.4994170000000  0.4433060000000 1.0
C      1  0.4464240000000  0.4587730000000  0.5168590000000 1.0
C      1  0.4695140000000  0.4750590000000  0.4776720000000 1.0
C      1  0.4780640000000  0.4325180000000  0.4514940000000 1.0
C      1  0.4743370000000  0.5022410000000  0.4869160000000 1.0
C      1  0.4278830000000  0.4793010000000  0.5119320000000 1.0
C      1  0.5451510000000  0.4945940000000  0.5621570000000 1.0
C      1  0.4900970000000  0.5531700000000  0.4633100000000 1.0
C      1  0.5487200000000  0.5171020000000  0.5454140000000 1.0
C      1  0.5310170000000  0.5330080000000  0.5628040000000 1.0
C      1  0.4583710000000  0.4744450000000  0.4511050000000 1.0
C      1  0.4461210000000  0.5020720000000  0.5410070000000 1.0
C      1  0.4254800000000  0.5067290000000  0.5184540000000 1.0
C      1  0.5584200000000  0.4763330000000  0.5028440000000 1.0
C      1  0.5444160000000  0.5195720000000  0.5145270000000 1.0
C      1  0.4564750000000  0.5147660000000  0.4669390000000 1.0
C      1  0.4946940000000  0.5087800000000  0.4296660000000 1.0
C      1  0.4904730000000  0.4554540000000  0.4358790000000 1.0
C      1  0.4788630000000  0.5219990000000  0.5753110000000 1.0
C      1  0.5355570000000  0.4553040000000  0.4665990000000 1.0
C      1  0.4590470000000  0.5692180000000  0.4940730000000 1.0
END
