TITL C-4164241-3639-97 -0.202192086516193 125000 -3797.95418609494 0 0 27 (C1) n - 1
REM
REM in /home/nfs/bkarasulu/CARBON/AIRSS/Generating-Clusters/ReaxFF-fromJPCA2015/Units_Real/with-SteepDescent/Only-C1/SD-CG/Try1-3A/FIRE-CG
REM
REM
REM
REM
REM
REM ./C.cell (11c1c37f851c82e70ff6c80c92926a4b)
REM
REM compiler GCC version 9.2.1 20190827 (Red Hat 9.2.1-1)
REM options -cpp -mtune=generic -march=x86-64 -g -O0 -fpre-include=/usr/include/finclude/math-vector-fortran.h
REM seed 118907625 -24004630 -1112009722 -512554228 1170364750 1931655421 -371789179 -282388104 101918675 709172245 126810120 -1725328444 -1019451449 -270141072 -130236411 -2021358457 470874914 -420097833 -1175639338 -1048554245 856010098 -939769637 -526809733 1121585513 2142775469 -1551820797 254131940 -169394637 458793745 -1944081065 -161981366 -1824616490 -739394346
REM
CELL 1.54180   50.00000   50.00000   50.00000   90.00000   90.00000   90.00000
LATT -1
SFAC C  
C      1  0.5160150000000  0.4441130000000  0.5072800000000 1.0
C      1  0.4687410000000  0.5247020000000  0.4545150000000 1.0
C      1  0.4618370000000  0.4878610000000  0.4888320000000 1.0
C      1  0.5370570000000  0.4469330000000  0.5265480000000 1.0
C      1  0.4944860000000  0.4809980000000  0.4498220000000 1.0
C      1  0.5215370000000  0.5373960000000  0.5379930000000 1.0
C      1  0.4702410000000  0.5304620000000  0.5129530000000 1.0
C      1  0.5109840000000  0.5269730000000  0.4515030000000 1.0
C      1  0.5053830000000  0.4640930000000  0.4928700000000 1.0
C      1  0.4910200000000  0.5411740000000  0.4682180000000 1.0
C      1  0.5547230000000  0.4603640000000  0.5068970000000 1.0
C      1  0.5299840000000  0.4834490000000  0.5066980000000 1.0
C      1  0.4831900000000  0.4718170000000  0.4759120000000 1.0
C      1  0.5200200000000  0.5341070000000  0.5080460000000 1.0
C      1  0.5217330000000  0.4873690000000  0.4537890000000 1.0
C      1  0.4742530000000  0.4868120000000  0.5398390000000 1.0
C      1  0.4947860000000  0.5424740000000  0.4964600000000 1.0
C      1  0.4899400000000  0.5092420000000  0.4400590000000 1.0
C      1  0.5260880000000  0.4733810000000  0.5355400000000 1.0
C      1  0.5001500000000  0.4753370000000  0.5487900000000 1.0
C      1  0.5323740000000  0.5106920000000  0.4660640000000 1.0
C      1  0.4527530000000  0.5374600000000  0.5296540000000 1.0
C      1  0.4640640000000  0.4996650000000  0.5158620000000 1.0
C      1  0.5329400000000  0.5111170000000  0.4954910000000 1.0
C      1  0.4899810000000  0.4995170000000  0.5613010000000 1.0
C      1  0.4497030000000  0.5077420000000  0.4696660000000 1.0
C      1  0.5060160000000  0.5247520000000  0.5593950000000 1.0
END
