TITL C-4164240-4114-534 6.86116130051707e-05 125000 -2976.7787006057 0 0 22 (C1) n - 1
REM
REM in /home/nfs/bkarasulu/CARBON/AIRSS/Generating-Clusters/ReaxFF-fromJPCA2015/Units_Real/with-SteepDescent/Only-C1/SD-CG/Try1-3A/FIRE-CG
REM
REM
REM
REM
REM
REM ./C.cell (11c1c37f851c82e70ff6c80c92926a4b)
REM
REM compiler GCC version 9.2.1 20190827 (Red Hat 9.2.1-1)
REM options -cpp -mtune=generic -march=x86-64 -g -O0 -fpre-include=/usr/include/finclude/math-vector-fortran.h
REM seed -1109597763 -587936866 1806881543 492740298 583190330 320329827 -126486970 -56373046 -728635485 -1306455422 522629779 101490873 1924429435 1891108532 -1215749457 1294252378 398853963 -476233324 -1448782512 -1697349699 1648917871 1559998718 384053955 -55172775 -1463087454 -1277809018 7108043 2116419089 -399710413 -605230241 1496162524 1738409195 -585024561
REM
CELL 1.54180   50.00000   50.00000   50.00000   90.00000   90.00000   90.00000
LATT -1
SFAC C  
C      1  0.4812510000000  0.5215220000000  0.4523960000000 1.0
C      1  0.5378190000000  0.5796460000000  0.5650230000000 1.0
C      1  0.5487800000000  0.5279950000000  0.5298690000000 1.0
C      1  0.5232640000000  0.4480300000000  0.4883990000000 1.0
C      1  0.4775720000000  0.5188610000000  0.4803200000000 1.0
C      1  0.5342890000000  0.5641990000000  0.5448620000000 1.0
C      1  0.4531020000000  0.4351830000000  0.4905930000000 1.0
C      1  0.4482380000000  0.5120730000000  0.4839470000000 1.0
C      1  0.4372770000000  0.4851340000000  0.4832590000000 1.0
C      1  0.5256640000000  0.4976630000000  0.4930570000000 1.0
C      1  0.5480510000000  0.5083210000000  0.5095660000000 1.0
C      1  0.4785650000000  0.4187900000000  0.4884330000000 1.0
C      1  0.4592690000000  0.5124580000000  0.4440810000000 1.0
C      1  0.5049370000000  0.4314390000000  0.4880440000000 1.0
C      1  0.5221450000000  0.5987600000000  0.5615870000000 1.0
C      1  0.5490440000000  0.5451490000000  0.5470590000000 1.0
C      1  0.4549510000000  0.4644880000000  0.4944880000000 1.0
C      1  0.4811060000000  0.4764740000000  0.5034980000000 1.0
C      1  0.5391120000000  0.4716560000000  0.4890040000000 1.0
C      1  0.4376640000000  0.5015930000000  0.4584120000000 1.0
C      1  0.5615570000000  0.4804100000000  0.5078300000000 1.0
C      1  0.4963420000000  0.5001540000000  0.4962750000000 1.0
END
