TITL C-4164247-2821-348 4.34378308959702 125000 -12218.1854683895 0 0 84 (C1) n - 1
REM
REM in /home/nfs/bkarasulu/CARBON/AIRSS/Generating-Clusters/ReaxFF-fromJPCA2015/Units_Real/with-SteepDescent/Only-C1/SD-CG/Try1-3A/FIRE-CG
REM
REM
REM
REM
REM
REM ./C.cell (11c1c37f851c82e70ff6c80c92926a4b)
REM
REM compiler GCC version 9.2.1 20190827 (Red Hat 9.2.1-1)
REM options -cpp -mtune=generic -march=x86-64 -g -O0 -fpre-include=/usr/include/finclude/math-vector-fortran.h
REM seed 186365217 770315166 -1047772265 -440984093 732640979 -1165043800 -2042411899 -1108650438 -413909464 575012976 415710723 1553728422 629746925 1585684987 604898510 -629190214 579936922 1973508392 -1280268072 678008532 1785092232 -2083882197 1057702746 -181964787 -1259592700 1075289987 657235155 208453880 -1689622133 -1407604969 -1899564635 -1224297171 -1908927511
REM
CELL 1.54180   50.00000   50.00000   50.00000   90.00000   90.00000   90.00000
LATT -1
SFAC C  
C      1  0.5376310000000  0.4751740000000  0.5217910000000 1.0
C      1  0.5487270000000  0.5169960000000  0.4527730000000 1.0
C      1  0.5772500000000  0.5081750000000  0.5188250000000 1.0
C      1  0.5728220000000  0.5383150000000  0.5466020000000 1.0
C      1  0.4361980000000  0.5183110000000  0.5472580000000 1.0
C      1  0.5203450000000  0.4825500000000  0.4766780000000 1.0
C      1  0.4542280000000  0.4283070000000  0.4892220000000 1.0
C      1  0.5389740000000  0.5773990000000  0.4827520000000 1.0
C      1  0.4570780000000  0.4355390000000  0.5349840000000 1.0
C      1  0.4924720000000  0.4830630000000  0.4763170000000 1.0
C      1  0.5580270000000  0.4343650000000  0.5104620000000 1.0
C      1  0.5203390000000  0.4734360000000  0.4191540000000 1.0
C      1  0.4805260000000  0.4523810000000  0.4465920000000 1.0
C      1  0.5206830000000  0.5180140000000  0.4585170000000 1.0
C      1  0.4575900000000  0.5112260000000  0.5651740000000 1.0
C      1  0.5135450000000  0.5419110000000  0.4725330000000 1.0
C      1  0.5237650000000  0.5382320000000  0.5710910000000 1.0
C      1  0.5418030000000  0.5499230000000  0.4871770000000 1.0
C      1  0.4848480000000  0.4326980000000  0.5243200000000 1.0
C      1  0.4764480000000  0.5297920000000  0.5646170000000 1.0
C      1  0.5135710000000  0.4564550000000  0.5626020000000 1.0
C      1  0.4189750000000  0.4645160000000  0.4803470000000 1.0
C      1  0.4952770000000  0.5486220000000  0.5637970000000 1.0
C      1  0.5404020000000  0.4926280000000  0.4152160000000 1.0
C      1  0.4912060000000  0.5557100000000  0.4537120000000 1.0
C      1  0.4920410000000  0.5203180000000  0.5138090000000 1.0
C      1  0.4591930000000  0.4886660000000  0.5149390000000 1.0
C      1  0.5607460000000  0.4991300000000  0.4370780000000 1.0
C      1  0.5650210000000  0.4612950000000  0.5197890000000 1.0
C      1  0.4481010000000  0.5568170000000  0.5114110000000 1.0
C      1  0.5222790000000  0.5878220000000  0.5041760000000 1.0
C      1  0.5254280000000  0.5031550000000  0.4936550000000 1.0
C      1  0.5063770000000  0.4513730000000  0.4286330000000 1.0
C      1  0.5756290000000  0.5093990000000  0.5480670000000 1.0
C      1  0.4466160000000  0.5554830000000  0.4819620000000 1.0
C      1  0.4294300000000  0.4970080000000  0.5278090000000 1.0
C      1  0.4944300000000  0.5863650000000  0.5209110000000 1.0
C      1  0.4884220000000  0.5720880000000  0.5455140000000 1.0
C      1  0.5102150000000  0.4345760000000  0.5394780000000 1.0
C      1  0.5641530000000  0.5350820000000  0.5165540000000 1.0
C      1  0.4801390000000  0.5341810000000  0.4374520000000 1.0
C      1  0.4775110000000  0.5073040000000  0.4746650000000 1.0
C      1  0.4601780000000  0.4703520000000  0.4397850000000 1.0
C      1  0.5045350000000  0.5195150000000  0.4323840000000 1.0
C      1  0.5367720000000  0.5432270000000  0.5267620000000 1.0
C      1  0.5465350000000  0.5491490000000  0.5553460000000 1.0
C      1  0.4372180000000  0.4316570000000  0.5130230000000 1.0
C      1  0.4174270000000  0.5174300000000  0.5106600000000 1.0
C      1  0.4905500000000  0.4664950000000  0.5766490000000 1.0
C      1  0.4462520000000  0.4528310000000  0.4726970000000 1.0
C      1  0.5349030000000  0.4317860000000  0.5264530000000 1.0
C      1  0.4573940000000  0.4709660000000  0.4939620000000 1.0
C      1  0.4822140000000  0.4332680000000  0.4952420000000 1.0
C      1  0.5629090000000  0.5361250000000  0.4562990000000 1.0
C      1  0.5302540000000  0.5045510000000  0.5202220000000 1.0
C      1  0.5532610000000  0.4944780000000  0.5645060000000 1.0
C      1  0.5329400000000  0.5714170000000  0.5234110000000 1.0
C      1  0.4806120000000  0.4863840000000  0.5348080000000 1.0
C      1  0.5682790000000  0.4738740000000  0.4526920000000 1.0
C      1  0.4460820000000  0.4580160000000  0.5490610000000 1.0
C      1  0.5747510000000  0.4778360000000  0.4778460000000 1.0
C      1  0.4424860000000  0.4913440000000  0.4455790000000 1.0
C      1  0.4316200000000  0.5376650000000  0.5257190000000 1.0
C      1  0.5028910000000  0.5059150000000  0.5344840000000 1.0
C      1  0.4677610000000  0.5746780000000  0.5245260000000 1.0
C      1  0.5425400000000  0.4408580000000  0.4855870000000 1.0
C      1  0.5252480000000  0.4619100000000  0.4958400000000 1.0
C      1  0.4361570000000  0.5312770000000  0.4690110000000 1.0
C      1  0.5605910000000  0.5593670000000  0.4701120000000 1.0
C      1  0.5354160000000  0.4740580000000  0.5538460000000 1.0
C      1  0.4236640000000  0.4667970000000  0.5332100000000 1.0
C      1  0.4890360000000  0.5308290000000  0.4886750000000 1.0
C      1  0.4909560000000  0.4537180000000  0.4748480000000 1.0
C      1  0.5807550000000  0.4810440000000  0.5046710000000 1.0
C      1  0.5199260000000  0.5136320000000  0.4067580000000 1.0
C      1  0.4686210000000  0.5693660000000  0.4668240000000 1.0
C      1  0.4231020000000  0.4914780000000  0.4683020000000 1.0
C      1  0.4578230000000  0.5174300000000  0.4522320000000 1.0
C      1  0.5314560000000  0.4380940000000  0.4389510000000 1.0
C      1  0.5329830000000  0.5121210000000  0.5704580000000 1.0
C      1  0.5525180000000  0.4472230000000  0.4580340000000 1.0
C      1  0.4184590000000  0.5153630000000  0.4828620000000 1.0
C      1  0.4178750000000  0.4535630000000  0.5079750000000 1.0
C      1  0.4665860000000  0.4791160000000  0.5612760000000 1.0
END
