TITL C-4164238-4211-182 2.04305417159463 125000 -2161.1575947074 0 0 16 (C1) n - 1
REM
REM in /home/nfs/bkarasulu/CARBON/AIRSS/Generating-Clusters/ReaxFF-fromJPCA2015/Units_Real/with-SteepDescent/Only-C1/SD-CG/Try1-3A/FIRE-CG
REM
REM
REM
REM
REM
REM ./C.cell (11c1c37f851c82e70ff6c80c92926a4b)
REM
REM compiler GCC version 9.2.1 20190827 (Red Hat 9.2.1-1)
REM options -cpp -mtune=generic -march=x86-64 -g -O0 -fpre-include=/usr/include/finclude/math-vector-fortran.h
REM seed 1210100431 54656793 -535220309 1693425568 148372205 1040730471 169142598 -250779671 552746037 2063798583 1163718236 1378623001 84063339 -2079251109 1102539256 965580727 -1693470721 -788292911 226920110 -694325218 -1114819762 996942679 1913389929 -1884522681 -2021915992 -767334309 716527366 -1846026539 -1980693517 -314181811 379679480 -1613875221 -1147798019
REM
CELL 1.54180   50.00000   50.00000   50.00000   90.00000   90.00000   90.00000
LATT -1
SFAC C  
C      1  0.4952440000000  0.5252700000000  0.5505460000000 1.0
C      1  0.4680570000000  0.4942670000000  0.5254650000000 1.0
C      1  0.4954770000000  0.4794560000000  0.4415790000000 1.0
C      1  0.5541750000000  0.5303280000000  0.5060730000000 1.0
C      1  0.4726750000000  0.4806510000000  0.4636210000000 1.0
C      1  0.5049060000000  0.5239170000000  0.5210420000000 1.0
C      1  0.5848200000000  0.5338420000000  0.4969320000000 1.0
C      1  0.5091310000000  0.5017670000000  0.4555460000000 1.0
C      1  0.5307200000000  0.5272760000000  0.5131990000000 1.0
C      1  0.4529360000000  0.4706840000000  0.5205250000000 1.0
C      1  0.4723880000000  0.5072860000000  0.5533740000000 1.0
C      1  0.4865690000000  0.5065280000000  0.5063450000000 1.0
C      1  0.4872650000000  0.5011270000000  0.4779080000000 1.0
C      1  0.5819820000000  0.5071990000000  0.4875020000000 1.0
C      1  0.4449180000000  0.4479640000000  0.5008440000000 1.0
C      1  0.4587370000000  0.4624360000000  0.4794990000000 1.0
END
