TITL C-4164240-4114-336 -4.75148245853197 125000 -17377.5194361183 0 0 115 (C1) n - 1
REM
REM in /home/nfs/bkarasulu/CARBON/AIRSS/Generating-Clusters/ReaxFF-fromJPCA2015/Units_Real/with-SteepDescent/Only-C1/SD-CG/Try1-3A/FIRE-CG
REM
REM
REM
REM
REM
REM ./C.cell (11c1c37f851c82e70ff6c80c92926a4b)
REM
REM compiler GCC version 9.2.1 20190827 (Red Hat 9.2.1-1)
REM options -cpp -mtune=generic -march=x86-64 -g -O0 -fpre-include=/usr/include/finclude/math-vector-fortran.h
REM seed 1146670846 -424014508 1341956542 -1711166783 -1928693965 347792046 1006642395 -828186940 -1906492598 1471304023 -273580981 2007152808 -1796887976 -422312605 -303334584 -792281358 -1101372339 651125168 1647923218 1707275708 -59411206 -1526779120 -2077001740 -284877557 -133752665 -908541683 -1778240367 358203757 -1338775881 -448086026 1981810876 -1529361313 1376687385
REM
CELL 1.54180   50.00000   50.00000   50.00000   90.00000   90.00000   90.00000
LATT -1
SFAC C  
C      1  0.4023070000000  0.5155450000000  0.4988480000000 1.0
C      1  0.4360330000000  0.5543000000000  0.5114520000000 1.0
C      1  0.4710600000000  0.4850420000000  0.4733620000000 1.0
C      1  0.5259840000000  0.4870540000000  0.5159290000000 1.0
C      1  0.4313680000000  0.5490230000000  0.4566550000000 1.0
C      1  0.4410050000000  0.4543480000000  0.5517320000000 1.0
C      1  0.4838950000000  0.5079780000000  0.5837630000000 1.0
C      1  0.4259890000000  0.5156350000000  0.5407270000000 1.0
C      1  0.4263640000000  0.5203280000000  0.4517550000000 1.0
C      1  0.5127180000000  0.5451550000000  0.4056290000000 1.0
C      1  0.4000290000000  0.4807880000000  0.4756280000000 1.0
C      1  0.5183140000000  0.4739670000000  0.4900490000000 1.0
C      1  0.4323730000000  0.5641630000000  0.4840690000000 1.0
C      1  0.4987360000000  0.5671870000000  0.5602470000000 1.0
C      1  0.4992200000000  0.5046620000000  0.5547090000000 1.0
C      1  0.4399240000000  0.5080710000000  0.4280610000000 1.0
C      1  0.5109090000000  0.5597120000000  0.4337330000000 1.0
C      1  0.5272450000000  0.4632810000000  0.5610390000000 1.0
C      1  0.4696110000000  0.4952710000000  0.5174900000000 1.0
C      1  0.5290110000000  0.5820900000000  0.4475120000000 1.0
C      1  0.4644890000000  0.4501070000000  0.4496350000000 1.0
C      1  0.4548030000000  0.5547460000000  0.4406350000000 1.0
C      1  0.4881220000000  0.4116870000000  0.4862040000000 1.0
C      1  0.5039190000000  0.4386880000000  0.5150110000000 1.0
C      1  0.5278290000000  0.4463840000000  0.4310270000000 1.0
C      1  0.3934690000000  0.4874980000000  0.5037870000000 1.0
C      1  0.5444740000000  0.5658850000000  0.5427850000000 1.0
C      1  0.5565740000000  0.4488140000000  0.4438800000000 1.0
C      1  0.5167690000000  0.5213720000000  0.4605670000000 1.0
C      1  0.4802990000000  0.4586950000000  0.5214250000000 1.0
C      1  0.4909850000000  0.4049730000000  0.5436370000000 1.0
C      1  0.4631970000000  0.4908880000000  0.4224140000000 1.0
C      1  0.5885630000000  0.4562610000000  0.4702320000000 1.0
C      1  0.5717840000000  0.5157720000000  0.5006980000000 1.0
C      1  0.5388300000000  0.5111780000000  0.5056320000000 1.0
C      1  0.5582060000000  0.4307300000000  0.5467670000000 1.0
C      1  0.4572080000000  0.5140660000000  0.5797510000000 1.0
C      1  0.4467150000000  0.4681240000000  0.4633570000000 1.0
C      1  0.5644520000000  0.5605990000000  0.4783150000000 1.0
C      1  0.5426340000000  0.5299950000000  0.5903400000000 1.0
C      1  0.5543660000000  0.4582210000000  0.5581480000000 1.0
C      1  0.5557930000000  0.5701840000000  0.4521470000000 1.0
C      1  0.5659810000000  0.4371380000000  0.4692210000000 1.0
C      1  0.4376980000000  0.5284550000000  0.5655240000000 1.0
C      1  0.4429120000000  0.4266860000000  0.5433630000000 1.0
C      1  0.4818790000000  0.4413000000000  0.5683350000000 1.0
C      1  0.5796590000000  0.4669290000000  0.4431880000000 1.0
C      1  0.5178030000000  0.4835080000000  0.5441280000000 1.0
C      1  0.5240970000000  0.4315050000000  0.4945830000000 1.0
C      1  0.5067980000000  0.5172870000000  0.4059180000000 1.0
C      1  0.5238220000000  0.5316020000000  0.4930450000000 1.0
C      1  0.4927430000000  0.4664100000000  0.4778350000000 1.0
C      1  0.5501340000000  0.5148180000000  0.5674550000000 1.0
C      1  0.4542300000000  0.5325200000000  0.4214700000000 1.0
C      1  0.5195890000000  0.4282230000000  0.4493110000000 1.0
C      1  0.5335620000000  0.5792970000000  0.5189950000000 1.0
C      1  0.5528460000000  0.4321390000000  0.4952950000000 1.0
C      1  0.5737360000000  0.4960500000000  0.4415270000000 1.0
C      1  0.4391600000000  0.4298750000000  0.5142820000000 1.0
C      1  0.4879930000000  0.5219160000000  0.4543270000000 1.0
C      1  0.4805900000000  0.5157240000000  0.4252040000000 1.0
C      1  0.4828570000000  0.5388220000000  0.5245430000000 1.0
C      1  0.4060810000000  0.4664810000000  0.5194680000000 1.0
C      1  0.5137640000000  0.4132620000000  0.4720800000000 1.0
C      1  0.4868820000000  0.5778920000000  0.5356950000000 1.0
C      1  0.4608790000000  0.4458340000000  0.5034730000000 1.0
C      1  0.4767080000000  0.4392750000000  0.4774450000000 1.0
C      1  0.5186840000000  0.4931880000000  0.4192270000000 1.0
C      1  0.5915760000000  0.4685230000000  0.4968070000000 1.0
C      1  0.4185240000000  0.5327750000000  0.5173240000000 1.0
C      1  0.5158820000000  0.5933240000000  0.4686090000000 1.0
C      1  0.5108870000000  0.4408760000000  0.5679550000000 1.0
C      1  0.5446610000000  0.5569120000000  0.5012830000000 1.0
C      1  0.4842440000000  0.5569800000000  0.4800530000000 1.0
C      1  0.5393700000000  0.4173150000000  0.5437350000000 1.0
C      1  0.5062580000000  0.5893720000000  0.5169820000000 1.0
C      1  0.4902560000000  0.5347260000000  0.4971260000000 1.0
C      1  0.5156340000000  0.4153900000000  0.5547390000000 1.0
C      1  0.4834100000000  0.5503990000000  0.4530150000000 1.0
C      1  0.5768270000000  0.5248900000000  0.5295450000000 1.0
C      1  0.4696680000000  0.4599650000000  0.5498730000000 1.0
C      1  0.5726790000000  0.4758820000000  0.5443260000000 1.0
C      1  0.5299460000000  0.5386380000000  0.4420290000000 1.0
C      1  0.5722250000000  0.5047430000000  0.5497900000000 1.0
C      1  0.5072320000000  0.4665600000000  0.4221890000000 1.0
C      1  0.4609650000000  0.5586280000000  0.5315020000000 1.0
C      1  0.4681720000000  0.4180890000000  0.5562280000000 1.0
C      1  0.5248350000000  0.5522320000000  0.5600060000000 1.0
C      1  0.4997810000000  0.6004280000000  0.4897380000000 1.0
C      1  0.5610890000000  0.4924790000000  0.4676140000000 1.0
C      1  0.4178770000000  0.4463640000000  0.5019290000000 1.0
C      1  0.4897050000000  0.5336980000000  0.5967520000000 1.0
C      1  0.4065430000000  0.5093310000000  0.4702370000000 1.0
C      1  0.4827220000000  0.5131410000000  0.5338490000000 1.0
C      1  0.4418460000000  0.4946490000000  0.5290700000000 1.0
C      1  0.5772230000000  0.5244230000000  0.4495770000000 1.0
C      1  0.4212810000000  0.4604710000000  0.4759950000000 1.0
C      1  0.5808820000000  0.4916340000000  0.4882500000000 1.0
C      1  0.4736470000000  0.5083500000000  0.4904960000000 1.0
C      1  0.5626640000000  0.5498160000000  0.5268290000000 1.0
C      1  0.4782150000000  0.4663900000000  0.4289930000000 1.0
C      1  0.4499530000000  0.5817650000000  0.4709660000000 1.0
C      1  0.4250600000000  0.4748530000000  0.5394260000000 1.0
C      1  0.4927960000000  0.4115810000000  0.5154050000000 1.0
C      1  0.5268310000000  0.4986690000000  0.4465490000000 1.0
C      1  0.5354320000000  0.4805270000000  0.4675180000000 1.0
C      1  0.5180500000000  0.5332050000000  0.5986610000000 1.0
C      1  0.5821600000000  0.4597250000000  0.5220170000000 1.0
C      1  0.5679500000000  0.4342160000000  0.5206580000000 1.0
C      1  0.4788120000000  0.5545780000000  0.5770370000000 1.0
C      1  0.5581630000000  0.5443670000000  0.4388360000000 1.0
C      1  0.4743630000000  0.5840340000000  0.4849180000000 1.0
C      1  0.4549430000000  0.5518990000000  0.5610870000000 1.0
C      1  0.5251940000000  0.5234620000000  0.5542590000000 1.0
C      1  0.5768990000000  0.5351230000000  0.4764950000000 1.0
END
