TITL C-4164245-3996-711 2.8918603652467 125000 -16557.0850916499 0 0 110 (C1) n - 1
REM
REM in /home/nfs/bkarasulu/CARBON/AIRSS/Generating-Clusters/ReaxFF-fromJPCA2015/Units_Real/with-SteepDescent/Only-C1/SD-CG/Try1-3A/FIRE-CG
REM
REM
REM
REM
REM
REM ./C.cell (11c1c37f851c82e70ff6c80c92926a4b)
REM
REM compiler GCC version 9.2.1 20190827 (Red Hat 9.2.1-1)
REM options -cpp -mtune=generic -march=x86-64 -g -O0 -fpre-include=/usr/include/finclude/math-vector-fortran.h
REM seed 180723478 -1583825647 1220713331 1085792739 -919672776 1280476295 1216311036 -1942243829 1411254879 -1816054435 1622305852 -1510555210 1652204371 117724254 282293151 -1771446415 745244885 421625393 -1835451463 238627759 2085827820 505672646 -543676914 -144439773 1237110683 647239951 951033865 -1888837944 -330141246 1450525530 -880665445 -600223706 1370300706
REM
CELL 1.54180   50.00000   50.00000   50.00000   90.00000   90.00000   90.00000
LATT -1
SFAC C  
C      1  0.4590900000000  0.5309820000000  0.4804450000000 1.0
C      1  0.5373440000000  0.4564820000000  0.4208640000000 1.0
C      1  0.4200370000000  0.4587380000000  0.4863170000000 1.0
C      1  0.5061620000000  0.5309730000000  0.4794300000000 1.0
C      1  0.5099450000000  0.4985990000000  0.4099370000000 1.0
C      1  0.4077230000000  0.4980500000000  0.5338450000000 1.0
C      1  0.5592600000000  0.5494340000000  0.5059710000000 1.0
C      1  0.4689660000000  0.5782450000000  0.5226480000000 1.0
C      1  0.5440590000000  0.5268910000000  0.5167950000000 1.0
C      1  0.5392670000000  0.5435160000000  0.5690040000000 1.0
C      1  0.5167390000000  0.5776490000000  0.4973070000000 1.0
C      1  0.4415810000000  0.4376030000000  0.5222260000000 1.0
C      1  0.5745090000000  0.5072370000000  0.4499420000000 1.0
C      1  0.5434480000000  0.5042440000000  0.4980390000000 1.0
C      1  0.5646220000000  0.5288750000000  0.5691060000000 1.0
C      1  0.5176650000000  0.4812310000000  0.4681490000000 1.0
C      1  0.4931310000000  0.5543630000000  0.5637370000000 1.0
C      1  0.4160300000000  0.5293580000000  0.4800620000000 1.0
C      1  0.4284820000000  0.4458720000000  0.4363680000000 1.0
C      1  0.5172990000000  0.5281740000000  0.5288530000000 1.0
C      1  0.4801340000000  0.5017390000000  0.4202410000000 1.0
C      1  0.4900820000000  0.4620590000000  0.4066640000000 1.0
C      1  0.4510940000000  0.5257670000000  0.5767720000000 1.0
C      1  0.4800670000000  0.5000230000000  0.4510310000000 1.0
C      1  0.5991690000000  0.5417360000000  0.5379100000000 1.0
C      1  0.4913070000000  0.5492540000000  0.4271670000000 1.0
C      1  0.5299750000000  0.5164270000000  0.4196030000000 1.0
C      1  0.4673070000000  0.4676290000000  0.4864920000000 1.0
C      1  0.5681180000000  0.4419350000000  0.5261570000000 1.0
C      1  0.4880980000000  0.4775270000000  0.5918130000000 1.0
C      1  0.4726280000000  0.4331620000000  0.4489510000000 1.0
C      1  0.5765400000000  0.4775990000000  0.4528650000000 1.0
C      1  0.5390010000000  0.4629560000000  0.4787080000000 1.0
C      1  0.4737750000000  0.4341940000000  0.5623420000000 1.0
C      1  0.5402260000000  0.4342720000000  0.5627200000000 1.0
C      1  0.4284200000000  0.4387620000000  0.4656010000000 1.0
C      1  0.4877240000000  0.4248510000000  0.5151740000000 1.0
C      1  0.5383620000000  0.4759700000000  0.5051980000000 1.0
C      1  0.5349430000000  0.5590120000000  0.4485650000000 1.0
C      1  0.4980490000000  0.5793530000000  0.5203130000000 1.0
C      1  0.4673300000000  0.4975930000000  0.5731010000000 1.0
C      1  0.5126550000000  0.4646560000000  0.5117110000000 1.0
C      1  0.5457160000000  0.5781460000000  0.5335250000000 1.0
C      1  0.5683450000000  0.4621110000000  0.4764580000000 1.0
C      1  0.4412550000000  0.4793110000000  0.4847770000000 1.0
C      1  0.5561430000000  0.5037300000000  0.4271210000000 1.0
C      1  0.4388610000000  0.4844040000000  0.5778100000000 1.0
C      1  0.4482180000000  0.5852630000000  0.5041770000000 1.0
C      1  0.5798340000000  0.4558430000000  0.5028360000000 1.0
C      1  0.4507080000000  0.5857620000000  0.4739730000000 1.0
C      1  0.4461370000000  0.5644930000000  0.5405620000000 1.0
C      1  0.5591060000000  0.4742630000000  0.4285430000000 1.0
C      1  0.5068720000000  0.5767320000000  0.5493030000000 1.0
C      1  0.4178380000000  0.4510340000000  0.5142190000000 1.0
C      1  0.5811910000000  0.5326050000000  0.4645070000000 1.0
C      1  0.4636650000000  0.4377020000000  0.5006010000000 1.0
C      1  0.5256590000000  0.5074910000000  0.4757750000000 1.0
C      1  0.4296010000000  0.5061320000000  0.4411830000000 1.0
C      1  0.4114010000000  0.4698540000000  0.5376990000000 1.0
C      1  0.5162530000000  0.4234460000000  0.4754940000000 1.0
C      1  0.4667720000000  0.4724820000000  0.4128930000000 1.0
C      1  0.4297890000000  0.4625360000000  0.5600610000000 1.0
C      1  0.4569370000000  0.4479590000000  0.4270400000000 1.0
C      1  0.4842110000000  0.4528210000000  0.5803770000000 1.0
C      1  0.4457620000000  0.5565630000000  0.4723710000000 1.0
C      1  0.5218850000000  0.4194060000000  0.5498610000000 1.0
C      1  0.5837750000000  0.5389480000000  0.4933520000000 1.0
C      1  0.4877760000000  0.4770360000000  0.4677460000000 1.0
C      1  0.5141620000000  0.5330150000000  0.5582140000000 1.0
C      1  0.5451230000000  0.5766460000000  0.5055940000000 1.0
C      1  0.5890970000000  0.5026110000000  0.5299980000000 1.0
C      1  0.4991980000000  0.4799200000000  0.5361450000000 1.0
C      1  0.5143900000000  0.5635430000000  0.4710450000000 1.0
C      1  0.5394120000000  0.4632830000000  0.5707590000000 1.0
C      1  0.5634540000000  0.5533890000000  0.4530590000000 1.0
C      1  0.5800030000000  0.4610660000000  0.5430020000000 1.0
C      1  0.4553660000000  0.4290300000000  0.4718960000000 1.0
C      1  0.4729670000000  0.4948760000000  0.5440230000000 1.0
C      1  0.5160160000000  0.4734390000000  0.5951930000000 1.0
C      1  0.5652870000000  0.4765920000000  0.5610440000000 1.0
C      1  0.4387500000000  0.5410500000000  0.5552470000000 1.0
C      1  0.4735740000000  0.5842050000000  0.4588180000000 1.0
C      1  0.5196560000000  0.5428470000000  0.4278990000000 1.0
C      1  0.4406650000000  0.5317290000000  0.4328270000000 1.0
C      1  0.5172470000000  0.4734130000000  0.5535600000000 1.0
C      1  0.4695440000000  0.5304830000000  0.4228950000000 1.0
C      1  0.4572860000000  0.5096400000000  0.5259440000000 1.0
C      1  0.4707080000000  0.5260480000000  0.5072790000000 1.0
C      1  0.5722660000000  0.5032390000000  0.5547710000000 1.0
C      1  0.5859370000000  0.5423760000000  0.5572500000000 1.0
C      1  0.5275930000000  0.4327990000000  0.4355910000000 1.0
C      1  0.5359000000000  0.5715480000000  0.5588690000000 1.0
C      1  0.4191470000000  0.5401790000000  0.5069890000000 1.0
C      1  0.4285360000000  0.5102710000000  0.5805250000000 1.0
C      1  0.5010780000000  0.4291730000000  0.4509700000000 1.0
C      1  0.4935530000000  0.4229460000000  0.5431360000000 1.0
C      1  0.5423450000000  0.4212460000000  0.4594720000000 1.0
C      1  0.4983430000000  0.5293360000000  0.5078750000000 1.0
C      1  0.5927640000000  0.4749020000000  0.5214880000000 1.0
C      1  0.5997480000000  0.5259120000000  0.5146340000000 1.0
C      1  0.5482520000000  0.4244180000000  0.5379410000000 1.0
C      1  0.4352170000000  0.5068890000000  0.4729540000000 1.0
C      1  0.4273440000000  0.5214050000000  0.5301500000000 1.0
C      1  0.5105970000000  0.4366260000000  0.5023010000000 1.0
C      1  0.5168350000000  0.4704950000000  0.4043820000000 1.0
C      1  0.4258730000000  0.5446750000000  0.4564560000000 1.0
C      1  0.4821530000000  0.5246800000000  0.4657730000000 1.0
C      1  0.4947950000000  0.5728990000000  0.4465490000000 1.0
C      1  0.4471880000000  0.4417090000000  0.5503020000000 1.0
C      1  0.4285580000000  0.5663850000000  0.5167700000000 1.0
END
