TITL C-4164242-3624-377 50.9834275974792 125000 -24397.4349849868 0 0 161 (C1) n - 1
REM
REM in /home/nfs/bkarasulu/CARBON/AIRSS/Generating-Clusters/ReaxFF-fromJPCA2015/Units_Real/with-SteepDescent/Only-C1/SD-CG/Try1-3A/FIRE-CG
REM
REM
REM
REM
REM
REM ./C.cell (11c1c37f851c82e70ff6c80c92926a4b)
REM
REM compiler GCC version 9.2.1 20190827 (Red Hat 9.2.1-1)
REM options -cpp -mtune=generic -march=x86-64 -g -O0 -fpre-include=/usr/include/finclude/math-vector-fortran.h
REM seed -371064033 840790933 1955418382 -1028031941 2009232226 2059222605 409865889 -4188925 1319733238 1838077328 -564490244 -1679996185 -832805375 791991426 -1963551009 -589838232 -1645842733 -2085688358 -929494001 53912523 1046272909 -1232220054 206889038 498306896 1724281800 -1473874903 1673750765 1116824636 1578521395 -1952166657 -695899542 -492050709 -1629794107
REM
CELL 1.54180   50.00000   50.00000   50.00000   90.00000   90.00000   90.00000
LATT -1
SFAC C  
C      1  0.5854790000000  0.5162060000000  0.4422470000000 1.0
C      1  0.4896210000000  0.5426730000000  0.3979380000000 1.0
C      1  0.6085970000000  0.5091620000000  0.4893370000000 1.0
C      1  0.4188110000000  0.5656920000000  0.5278440000000 1.0
C      1  0.4541940000000  0.5042650000000  0.5094430000000 1.0
C      1  0.4922280000000  0.5548250000000  0.5150390000000 1.0
C      1  0.4595270000000  0.5170800000000  0.4639580000000 1.0
C      1  0.5856560000000  0.5525150000000  0.4760000000000 1.0
C      1  0.5699090000000  0.5207270000000  0.5748830000000 1.0
C      1  0.4621950000000  0.4731000000000  0.4780350000000 1.0
C      1  0.5099040000000  0.4791570000000  0.6001990000000 1.0
C      1  0.5618670000000  0.5109360000000  0.5053610000000 1.0
C      1  0.5879230000000  0.5578410000000  0.5493300000000 1.0
C      1  0.5711240000000  0.4502490000000  0.4332160000000 1.0
C      1  0.4816610000000  0.3916460000000  0.4863130000000 1.0
C      1  0.4937180000000  0.4852390000000  0.5378450000000 1.0
C      1  0.5787980000000  0.5545680000000  0.5041760000000 1.0
C      1  0.4474270000000  0.4986190000000  0.4812790000000 1.0
C      1  0.5305470000000  0.5346660000000  0.3989970000000 1.0
C      1  0.4574420000000  0.5630450000000  0.4386480000000 1.0
C      1  0.5286200000000  0.4740940000000  0.4947340000000 1.0
C      1  0.5439090000000  0.4639760000000  0.5398570000000 1.0
C      1  0.5334520000000  0.5707460000000  0.4225440000000 1.0
C      1  0.4862010000000  0.5974980000000  0.4757180000000 1.0
C      1  0.3825500000000  0.4873080000000  0.5131870000000 1.0
C      1  0.5471840000000  0.4420360000000  0.4482430000000 1.0
C      1  0.5434030000000  0.5356570000000  0.5740970000000 1.0
C      1  0.4580610000000  0.3974740000000  0.4978660000000 1.0
C      1  0.4642860000000  0.5124550000000  0.4367070000000 1.0
C      1  0.5295340000000  0.5232950000000  0.5977120000000 1.0
C      1  0.4153360000000  0.4685470000000  0.5706490000000 1.0
C      1  0.5255220000000  0.4028810000000  0.5082250000000 1.0
C      1  0.4776280000000  0.5740330000000  0.4595630000000 1.0
C      1  0.5779930000000  0.4810510000000  0.5569750000000 1.0
C      1  0.5704060000000  0.5760110000000  0.5652160000000 1.0
C      1  0.5008640000000  0.4123020000000  0.5610020000000 1.0
C      1  0.5969360000000  0.4938500000000  0.5123130000000 1.0
C      1  0.4520880000000  0.5411260000000  0.5457050000000 1.0
C      1  0.5079640000000  0.5283200000000  0.5225720000000 1.0
C      1  0.4464920000000  0.5548860000000  0.4958940000000 1.0
C      1  0.5663550000000  0.5315390000000  0.4264730000000 1.0
C      1  0.5042690000000  0.5626150000000  0.5849690000000 1.0
C      1  0.5330530000000  0.5230280000000  0.4677370000000 1.0
C      1  0.5226540000000  0.5484980000000  0.4770410000000 1.0
C      1  0.4569250000000  0.4104870000000  0.5387310000000 1.0
C      1  0.5505910000000  0.5170770000000  0.5297890000000 1.0
C      1  0.5451240000000  0.4873870000000  0.4028910000000 1.0
C      1  0.4007820000000  0.4601410000000  0.4705660000000 1.0
C      1  0.4924540000000  0.4833630000000  0.3955120000000 1.0
C      1  0.5130560000000  0.6031010000000  0.4651720000000 1.0
C      1  0.4842140000000  0.4601300000000  0.5418410000000 1.0
C      1  0.4238280000000  0.4465610000000  0.5516150000000 1.0
C      1  0.4900700000000  0.5122420000000  0.4006360000000 1.0
C      1  0.5267420000000  0.5223010000000  0.5443420000000 1.0
C      1  0.5881180000000  0.4882860000000  0.4324040000000 1.0
C      1  0.5311790000000  0.4473000000000  0.5768570000000 1.0
C      1  0.5066730000000  0.4718930000000  0.4486620000000 1.0
C      1  0.5667590000000  0.5696200000000  0.4602930000000 1.0
C      1  0.4286040000000  0.4601470000000  0.4323740000000 1.0
C      1  0.4081140000000  0.5326630000000  0.4897390000000 1.0
C      1  0.5495880000000  0.5856890000000  0.4756880000000 1.0
C      1  0.4613540000000  0.5952940000000  0.5200240000000 1.0
C      1  0.5530300000000  0.5074210000000  0.4797030000000 1.0
C      1  0.5291950000000  0.5887130000000  0.5400710000000 1.0
C      1  0.4324080000000  0.4692950000000  0.5947750000000 1.0
C      1  0.3941420000000  0.4821930000000  0.4891380000000 1.0
C      1  0.4820940000000  0.5304390000000  0.4743450000000 1.0
C      1  0.5626450000000  0.4934330000000  0.5794870000000 1.0
C      1  0.5201110000000  0.4732630000000  0.3968860000000 1.0
C      1  0.5893420000000  0.5282110000000  0.5540310000000 1.0
C      1  0.5313330000000  0.4542200000000  0.5155320000000 1.0
C      1  0.4258560000000  0.4345990000000  0.5038610000000 1.0
C      1  0.4725460000000  0.5534910000000  0.4173890000000 1.0
C      1  0.4596230000000  0.5194750000000  0.5666640000000 1.0
C      1  0.4067750000000  0.4742040000000  0.4453430000000 1.0
C      1  0.5947850000000  0.4626410000000  0.4462220000000 1.0
C      1  0.5149350000000  0.5969730000000  0.5155070000000 1.0
C      1  0.4914260000000  0.5118260000000  0.4293830000000 1.0
C      1  0.5040230000000  0.5610540000000  0.4568940000000 1.0
C      1  0.4122140000000  0.5053920000000  0.4782530000000 1.0
C      1  0.5059440000000  0.5389270000000  0.6032590000000 1.0
C      1  0.4848690000000  0.4617080000000  0.4642490000000 1.0
C      1  0.5953670000000  0.5267520000000  0.4678530000000 1.0
C      1  0.5031390000000  0.4277220000000  0.4203830000000 1.0
C      1  0.4457010000000  0.4762240000000  0.4146190000000 1.0
C      1  0.4115300000000  0.5359610000000  0.5196800000000 1.0
C      1  0.4472930000000  0.4934170000000  0.5588050000000 1.0
C      1  0.4393750000000  0.4097020000000  0.5139730000000 1.0
C      1  0.4618020000000  0.4259680000000  0.4420100000000 1.0
C      1  0.5171760000000  0.4299220000000  0.5147380000000 1.0
C      1  0.4478890000000  0.4311790000000  0.5569090000000 1.0
C      1  0.5294090000000  0.4729210000000  0.5628620000000 1.0
C      1  0.6008130000000  0.4609350000000  0.4748990000000 1.0
C      1  0.4811990000000  0.5206720000000  0.6087260000000 1.0
C      1  0.5459680000000  0.5659080000000  0.5783090000000 1.0
C      1  0.4705450000000  0.4492850000000  0.5668430000000 1.0
C      1  0.5722530000000  0.5313230000000  0.5184580000000 1.0
C      1  0.3738090000000  0.5001750000000  0.5385220000000 1.0
C      1  0.4873060000000  0.5986410000000  0.5055890000000 1.0
C      1  0.4927380000000  0.4356250000000  0.4743620000000 1.0
C      1  0.4596770000000  0.5836260000000  0.5463150000000 1.0
C      1  0.4371180000000  0.5806400000000  0.5107340000000 1.0
C      1  0.5504600000000  0.5168280000000  0.4049290000000 1.0
C      1  0.4851780000000  0.4022200000000  0.5368590000000 1.0
C      1  0.5102930000000  0.4132170000000  0.4451290000000 1.0
C      1  0.4373440000000  0.4380610000000  0.4500160000000 1.0
C      1  0.5808290000000  0.4692920000000  0.4974300000000 1.0
C      1  0.4426050000000  0.5304230000000  0.5187960000000 1.0
C      1  0.5307120000000  0.6008930000000  0.4893350000000 1.0
C      1  0.4250060000000  0.5492460000000  0.4737020000000 1.0
C      1  0.4427810000000  0.5055550000000  0.4184530000000 1.0
C      1  0.5759740000000  0.4446440000000  0.5157630000000 1.0
C      1  0.4941550000000  0.4357300000000  0.5014740000000 1.0
C      1  0.4715520000000  0.4654850000000  0.4073810000000 1.0
C      1  0.4077180000000  0.5032330000000  0.4485030000000 1.0
C      1  0.5361070000000  0.4171170000000  0.4583090000000 1.0
C      1  0.5063500000000  0.5106350000000  0.4718610000000 1.0
C      1  0.4180190000000  0.4962840000000  0.5586240000000 1.0
C      1  0.4328030000000  0.5470730000000  0.4461130000000 1.0
C      1  0.4975920000000  0.3925740000000  0.5115030000000 1.0
C      1  0.5588560000000  0.5874870000000  0.5404010000000 1.0
C      1  0.5923210000000  0.5008560000000  0.5400140000000 1.0
C      1  0.5713920000000  0.4560620000000  0.5429980000000 1.0
C      1  0.4017440000000  0.5124310000000  0.5409540000000 1.0
C      1  0.5359740000000  0.4946340000000  0.5953600000000 1.0
C      1  0.5158660000000  0.5839570000000  0.4422650000000 1.0
C      1  0.4595290000000  0.4773390000000  0.5827680000000 1.0
C      1  0.6134650000000  0.4853610000000  0.4753340000000 1.0
C      1  0.5673680000000  0.4745820000000  0.4163880000000 1.0
C      1  0.4766080000000  0.4485310000000  0.5165840000000 1.0
C      1  0.5547710000000  0.4791120000000  0.4834380000000 1.0
C      1  0.5098070000000  0.4982040000000  0.5562390000000 1.0
C      1  0.5227760000000  0.5794540000000  0.5680970000000 1.0
C      1  0.4912880000000  0.5454140000000  0.5656570000000 1.0
C      1  0.4206460000000  0.4397690000000  0.4754770000000 1.0
C      1  0.5172010000000  0.5573530000000  0.4006930000000 1.0
C      1  0.4771670000000  0.5585880000000  0.5433050000000 1.0
C      1  0.5180820000000  0.5483130000000  0.5052100000000 1.0
C      1  0.5293320000000  0.4195340000000  0.5630480000000 1.0
C      1  0.4748670000000  0.5490740000000  0.4933720000000 1.0
C      1  0.5570430000000  0.5578740000000  0.4341120000000 1.0
C      1  0.4914970000000  0.4323540000000  0.5812910000000 1.0
C      1  0.5220560000000  0.4480320000000  0.4115270000000 1.0
C      1  0.4232790000000  0.5219360000000  0.4328390000000 1.0
C      1  0.4889300000000  0.5169090000000  0.5678740000000 1.0
C      1  0.4560280000000  0.5289280000000  0.5985760000000 1.0
C      1  0.5447020000000  0.4083760000000  0.4859940000000 1.0
C      1  0.4835780000000  0.4112940000000  0.4605020000000 1.0
C      1  0.5091660000000  0.4994160000000  0.4462980000000 1.0
C      1  0.5095700000000  0.4498130000000  0.5962450000000 1.0
C      1  0.4890850000000  0.5015620000000  0.5145480000000 1.0
C      1  0.5067690000000  0.4915980000000  0.4933190000000 1.0
C      1  0.4357400000000  0.5669830000000  0.5508280000000 1.0
C      1  0.4430740000000  0.4799440000000  0.5246940000000 1.0
C      1  0.5271080000000  0.4570260000000  0.4369810000000 1.0
C      1  0.5605910000000  0.4256180000000  0.5019010000000 1.0
C      1  0.4758980000000  0.4383410000000  0.4198940000000 1.0
C      1  0.4837920000000  0.4916870000000  0.5993170000000 1.0
C      1  0.4586170000000  0.4645940000000  0.5043620000000 1.0
C      1  0.5813660000000  0.5741900000000  0.5253280000000 1.0
C      1  0.4246020000000  0.4557600000000  0.5239770000000 1.0
END
