TITL C-4164243-3780-263 38.9876722676653 125000 -18883.2872760596 0 0 126 (C1) n - 1
REM
REM in /home/nfs/bkarasulu/CARBON/AIRSS/Generating-Clusters/ReaxFF-fromJPCA2015/Units_Real/with-SteepDescent/Only-C1/SD-CG/Try1-3A/FIRE-CG
REM
REM
REM
REM
REM
REM ./C.cell (11c1c37f851c82e70ff6c80c92926a4b)
REM
REM compiler GCC version 9.2.1 20190827 (Red Hat 9.2.1-1)
REM options -cpp -mtune=generic -march=x86-64 -g -O0 -fpre-include=/usr/include/finclude/math-vector-fortran.h
REM seed -558897713 -563791408 1439092127 -19670494 469907304 1218189395 -1739041451 191296768 -1713982879 -687583698 -1433485255 1681250530 377276733 1944293371 409311998 969949881 -419886645 -173672471 927636587 1100926936 -2054486791 1616392513 822542233 -1182807335 -1769233517 -1882246507 -895697955 -1216287843 619333182 1667311042 -1104640533 -51270080 -1256178708
REM
CELL 1.54180   50.00000   50.00000   50.00000   90.00000   90.00000   90.00000
LATT -1
SFAC C  
C      1  0.4936080000000  0.4472670000000  0.5668840000000 1.0
C      1  0.4683880000000  0.4328370000000  0.4357350000000 1.0
C      1  0.5606870000000  0.5388160000000  0.4425160000000 1.0
C      1  0.4965470000000  0.5321000000000  0.5916980000000 1.0
C      1  0.4710020000000  0.5760980000000  0.5799530000000 1.0
C      1  0.4632780000000  0.5014590000000  0.5017550000000 1.0
C      1  0.5103960000000  0.5224410000000  0.4508420000000 1.0
C      1  0.4834180000000  0.5986010000000  0.4756900000000 1.0
C      1  0.5156330000000  0.5085300000000  0.5866900000000 1.0
C      1  0.5939650000000  0.4747190000000  0.4541940000000 1.0
C      1  0.4457020000000  0.4970290000000  0.4575930000000 1.0
C      1  0.4657030000000  0.4442120000000  0.5750560000000 1.0
C      1  0.4197350000000  0.5614270000000  0.4897360000000 1.0
C      1  0.4933560000000  0.4784520000000  0.4162700000000 1.0
C      1  0.5499450000000  0.5137120000000  0.5275530000000 1.0
C      1  0.4996560000000  0.4763680000000  0.4759690000000 1.0
C      1  0.5680240000000  0.4395760000000  0.4691670000000 1.0
C      1  0.5128540000000  0.4585870000000  0.5858530000000 1.0
C      1  0.4685290000000  0.5756500000000  0.4365310000000 1.0
C      1  0.5716920000000  0.4634920000000  0.4914110000000 1.0
C      1  0.4238110000000  0.4571960000000  0.4599930000000 1.0
C      1  0.5754530000000  0.4874260000000  0.5607160000000 1.0
C      1  0.4921000000000  0.5928700000000  0.5090330000000 1.0
C      1  0.3950290000000  0.4758990000000  0.5078220000000 1.0
C      1  0.5054120000000  0.4017070000000  0.4577940000000 1.0
C      1  0.5666760000000  0.4894240000000  0.4178190000000 1.0
C      1  0.3967830000000  0.5038030000000  0.4981170000000 1.0
C      1  0.5151090000000  0.5720930000000  0.4765680000000 1.0
C      1  0.4349580000000  0.5648360000000  0.5453130000000 1.0
C      1  0.5581710000000  0.4807650000000  0.5816590000000 1.0
C      1  0.5283930000000  0.4151520000000  0.5507910000000 1.0
C      1  0.5271270000000  0.4816000000000  0.4701440000000 1.0
C      1  0.5502520000000  0.5541450000000  0.4914980000000 1.0
C      1  0.5024810000000  0.4835400000000  0.5974070000000 1.0
C      1  0.4426910000000  0.4480630000000  0.4384860000000 1.0
C      1  0.4536600000000  0.4845830000000  0.4828940000000 1.0
C      1  0.4112740000000  0.5364980000000  0.4757390000000 1.0
C      1  0.4822290000000  0.5304420000000  0.4187940000000 1.0
C      1  0.5403190000000  0.4725490000000  0.4937980000000 1.0
C      1  0.5456710000000  0.4232330000000  0.4700500000000 1.0
C      1  0.4179000000000  0.5156360000000  0.5445200000000 1.0
C      1  0.5635340000000  0.4610900000000  0.4219230000000 1.0
C      1  0.5805570000000  0.5280490000000  0.5518660000000 1.0
C      1  0.5885870000000  0.5100410000000  0.4803520000000 1.0
C      1  0.4587660000000  0.4736090000000  0.5780370000000 1.0
C      1  0.5937930000000  0.5180310000000  0.5288050000000 1.0
C      1  0.4959600000000  0.5593100000000  0.5812460000000 1.0
C      1  0.4637770000000  0.5463010000000  0.4351000000000 1.0
C      1  0.4431730000000  0.5194820000000  0.5071940000000 1.0
C      1  0.4966280000000  0.5724640000000  0.4337720000000 1.0
C      1  0.4563190000000  0.5423430000000  0.5140680000000 1.0
C      1  0.4144310000000  0.4679700000000  0.5271990000000 1.0
C      1  0.5660300000000  0.5572590000000  0.4643990000000 1.0
C      1  0.4744600000000  0.4894910000000  0.5967220000000 1.0
C      1  0.5416420000000  0.5048770000000  0.4138090000000 1.0
C      1  0.5807470000000  0.5534080000000  0.4889620000000 1.0
C      1  0.4567660000000  0.4890940000000  0.5533100000000 1.0
C      1  0.4875540000000  0.5198800000000  0.4652120000000 1.0
C      1  0.4443510000000  0.5760360000000  0.4821480000000 1.0
C      1  0.4779090000000  0.4128690000000  0.4552110000000 1.0
C      1  0.5550500000000  0.4508960000000  0.5295380000000 1.0
C      1  0.5366510000000  0.5840380000000  0.4920450000000 1.0
C      1  0.4288460000000  0.4884060000000  0.5430040000000 1.0
C      1  0.4501810000000  0.4932460000000  0.4295350000000 1.0
C      1  0.5347160000000  0.5095570000000  0.4631400000000 1.0
C      1  0.4844790000000  0.5851060000000  0.5382270000000 1.0
C      1  0.4832180000000  0.4266170000000  0.4795250000000 1.0
C      1  0.4591690000000  0.5811420000000  0.5524230000000 1.0
C      1  0.5406690000000  0.4562630000000  0.5775860000000 1.0
C      1  0.5466150000000  0.5076300000000  0.5856860000000 1.0
C      1  0.5203190000000  0.5522230000000  0.5387360000000 1.0
C      1  0.4701430000000  0.5197240000000  0.5951810000000 1.0
C      1  0.5929370000000  0.4808780000000  0.4830470000000 1.0
C      1  0.4675830000000  0.5379790000000  0.4628540000000 1.0
C      1  0.4752440000000  0.5023520000000  0.4178420000000 1.0
C      1  0.5459380000000  0.4389210000000  0.5550620000000 1.0
C      1  0.4906460000000  0.4500080000000  0.4255750000000 1.0
C      1  0.5147810000000  0.4794530000000  0.5365440000000 1.0
C      1  0.4498420000000  0.5295170000000  0.5782370000000 1.0
C      1  0.5324270000000  0.4508010000000  0.5113400000000 1.0
C      1  0.5352120000000  0.4576750000000  0.4166580000000 1.0
C      1  0.4834020000000  0.4540050000000  0.4786220000000 1.0
C      1  0.5790030000000  0.4515610000000  0.4452790000000 1.0
C      1  0.5844530000000  0.4955960000000  0.4381670000000 1.0
C      1  0.4153910000000  0.5182480000000  0.5157680000000 1.0
C      1  0.4295540000000  0.5591630000000  0.5179260000000 1.0
C      1  0.5392150000000  0.5323120000000  0.4229870000000 1.0
C      1  0.5298480000000  0.4937250000000  0.5148460000000 1.0
C      1  0.4190250000000  0.4866470000000  0.4544290000000 1.0
C      1  0.4663590000000  0.5550320000000  0.4862220000000 1.0
C      1  0.5052920000000  0.4121010000000  0.4852290000000 1.0
C      1  0.5086760000000  0.5421660000000  0.4274640000000 1.0
C      1  0.5882040000000  0.4883870000000  0.5359450000000 1.0
C      1  0.5784910000000  0.4650940000000  0.5190650000000 1.0
C      1  0.4735180000000  0.4471480000000  0.5214990000000 1.0
C      1  0.4125460000000  0.4533490000000  0.4998740000000 1.0
C      1  0.5224010000000  0.6006200000000  0.5108730000000 1.0
C      1  0.4584980000000  0.4572180000000  0.4929240000000 1.0
C      1  0.5174460000000  0.4381880000000  0.4283750000000 1.0
C      1  0.4308180000000  0.5381050000000  0.5601810000000 1.0
C      1  0.5036680000000  0.5903330000000  0.4560520000000 1.0
C      1  0.4533530000000  0.4680070000000  0.4228340000000 1.0
C      1  0.5076000000000  0.5028570000000  0.5530000000000 1.0
C      1  0.4942970000000  0.4576710000000  0.5383380000000 1.0
C      1  0.5323060000000  0.5274300000000  0.5491690000000 1.0
C      1  0.5925120000000  0.5292290000000  0.5006070000000 1.0
C      1  0.5743750000000  0.5152460000000  0.4547950000000 1.0
C      1  0.4333460000000  0.4477180000000  0.4839070000000 1.0
C      1  0.5135180000000  0.5180640000000  0.5024410000000 1.0
C      1  0.5352570000000  0.5277650000000  0.4857420000000 1.0
C      1  0.4735020000000  0.4207150000000  0.5335380000000 1.0
C      1  0.5215070000000  0.4831120000000  0.4114670000000 1.0
C      1  0.4594880000000  0.5907510000000  0.4619570000000 1.0
C      1  0.5290640000000  0.4231730000000  0.4984370000000 1.0
C      1  0.4787410000000  0.5084600000000  0.5465050000000 1.0
C      1  0.5251170000000  0.4050820000000  0.5240110000000 1.0
C      1  0.4776330000000  0.5315960000000  0.5307840000000 1.0
C      1  0.5019300000000  0.5418770000000  0.5184300000000 1.0
C      1  0.5045840000000  0.5705030000000  0.5540500000000 1.0
C      1  0.5572350000000  0.5287570000000  0.5688270000000 1.0
C      1  0.4939930000000  0.5642100000000  0.4966050000000 1.0
C      1  0.4043630000000  0.5088920000000  0.4699090000000 1.0
C      1  0.5016050000000  0.4078400000000  0.5395650000000 1.0
C      1  0.5276970000000  0.4179860000000  0.4475410000000 1.0
C      1  0.4540710000000  0.4237260000000  0.5567480000000 1.0
C      1  0.4898310000000  0.5034630000000  0.4878940000000 1.0
END
