TITL C-4164232-771-242 34.5202202216862 125000 -9511.35544921893 0 0 66 (C1) n - 1
REM
REM in /home/nfs/bkarasulu/CARBON/AIRSS/Generating-Clusters/ReaxFF-fromJPCA2015/Units_Real/with-SteepDescent/Only-C1/SD-CG/Try1-3A/FIRE-CG
REM
REM
REM
REM
REM
REM ./C.cell (11c1c37f851c82e70ff6c80c92926a4b)
REM
REM compiler GCC version 9.2.1 20190827 (Red Hat 9.2.1-1)
REM options -cpp -mtune=generic -march=x86-64 -g -O0 -fpre-include=/usr/include/finclude/math-vector-fortran.h
REM seed -1161561005 1555562265 -1761393788 1647914904 -1003807692 -604666238 -174056623 -99214163 1493516346 -520263116 1913402799 1025320978 -345712847 -1867832324 1455084971 246697238 1027402779 2114208987 1523304901 78371270 1102486204 -1422043855 593510936 60918699 -1358288079 -598406435 1810087787 -675618841 1333833124 -1218706701 263233988 -1673903310 1846043104
REM
CELL 1.54180   50.00000   50.00000   50.00000   90.00000   90.00000   90.00000
LATT -1
SFAC C  
C      1  0.4584860000000  0.4928840000000  0.5641860000000 1.0
C      1  0.5039330000000  0.5269580000000  0.5329320000000 1.0
C      1  0.5536960000000  0.5150540000000  0.4585700000000 1.0
C      1  0.5434200000000  0.4507760000000  0.4910310000000 1.0
C      1  0.5256490000000  0.5255840000000  0.5691800000000 1.0
C      1  0.4343350000000  0.4638810000000  0.4823210000000 1.0
C      1  0.5068100000000  0.5590180000000  0.4250400000000 1.0
C      1  0.5073990000000  0.4735260000000  0.4619150000000 1.0
C      1  0.4742790000000  0.4974590000000  0.4239320000000 1.0
C      1  0.5677610000000  0.5368830000000  0.5381710000000 1.0
C      1  0.4966400000000  0.5004300000000  0.4647700000000 1.0
C      1  0.4352300000000  0.4761880000000  0.4552050000000 1.0
C      1  0.4860500000000  0.5592520000000  0.4676020000000 1.0
C      1  0.5145300000000  0.5680540000000  0.4719270000000 1.0
C      1  0.4584730000000  0.5518480000000  0.5411150000000 1.0
C      1  0.4858830000000  0.5459500000000  0.4402740000000 1.0
C      1  0.5193890000000  0.5689730000000  0.4440340000000 1.0
C      1  0.4525310000000  0.5205230000000  0.5435670000000 1.0
C      1  0.5188380000000  0.4349570000000  0.4893350000000 1.0
C      1  0.5331570000000  0.5567070000000  0.4911530000000 1.0
C      1  0.5529400000000  0.5222200000000  0.5603550000000 1.0
C      1  0.5549800000000  0.4676720000000  0.4729620000000 1.0
C      1  0.5444030000000  0.4670190000000  0.5188430000000 1.0
C      1  0.4481400000000  0.4982870000000  0.4397320000000 1.0
C      1  0.5558510000000  0.4945360000000  0.5191500000000 1.0
C      1  0.4722670000000  0.4406320000000  0.4521370000000 1.0
C      1  0.4735770000000  0.4367270000000  0.4943840000000 1.0
C      1  0.4443030000000  0.4492090000000  0.4585330000000 1.0
C      1  0.4633230000000  0.5646850000000  0.5151380000000 1.0
C      1  0.5503490000000  0.5317010000000  0.4869610000000 1.0
C      1  0.5315860000000  0.4316640000000  0.5354440000000 1.0
C      1  0.4899300000000  0.5100190000000  0.4917960000000 1.0
C      1  0.4468780000000  0.5067520000000  0.5176810000000 1.0
C      1  0.4812070000000  0.4292810000000  0.5209100000000 1.0
C      1  0.4721720000000  0.4925730000000  0.5079740000000 1.0
C      1  0.5527150000000  0.4490210000000  0.5428340000000 1.0
C      1  0.5602460000000  0.4964860000000  0.5483030000000 1.0
C      1  0.5393100000000  0.5113000000000  0.5033480000000 1.0
C      1  0.4302830000000  0.5208330000000  0.4981560000000 1.0
C      1  0.5403480000000  0.4995970000000  0.4385460000000 1.0
C      1  0.5634020000000  0.4875730000000  0.4557830000000 1.0
C      1  0.4947010000000  0.4764280000000  0.4184050000000 1.0
C      1  0.5201670000000  0.5645310000000  0.5176660000000 1.0
C      1  0.4931970000000  0.4808200000000  0.5219250000000 1.0
C      1  0.5215870000000  0.4750590000000  0.5639280000000 1.0
C      1  0.4596470000000  0.4680580000000  0.5512870000000 1.0
C      1  0.4410510000000  0.5249250000000  0.4499870000000 1.0
C      1  0.5196110000000  0.4782940000000  0.4359710000000 1.0
C      1  0.4503260000000  0.4513260000000  0.5026440000000 1.0
C      1  0.4891220000000  0.5161310000000  0.4405800000000 1.0
C      1  0.5503680000000  0.4719640000000  0.5614000000000 1.0
C      1  0.5148060000000  0.4695090000000  0.5348870000000 1.0
C      1  0.4815020000000  0.5482180000000  0.5588120000000 1.0
C      1  0.4797770000000  0.4568320000000  0.4308890000000 1.0
C      1  0.4969260000000  0.4464090000000  0.4726470000000 1.0
C      1  0.4903740000000  0.5668520000000  0.5189380000000 1.0
C      1  0.5111280000000  0.4257320000000  0.5163050000000 1.0
C      1  0.4846170000000  0.4908580000000  0.5747970000000 1.0
C      1  0.5127580000000  0.5161580000000  0.5089200000000 1.0
C      1  0.4642410000000  0.5555050000000  0.4859800000000 1.0
C      1  0.5740310000000  0.5309870000000  0.5101000000000 1.0
C      1  0.5113070000000  0.5463680000000  0.5537440000000 1.0
C      1  0.5114980000000  0.4998780000000  0.5769530000000 1.0
C      1  0.4593800000000  0.4469800000000  0.5328010000000 1.0
C      1  0.4414400000000  0.5387650000000  0.4763590000000 1.0
C      1  0.4817420000000  0.5207220000000  0.5488400000000 1.0
END
