TITL C-4164236-1577-253 0.275608552216623 125000 -21131.0505975282 0 0 142 (C1) n - 1
REM
REM in /home/nfs/bkarasulu/CARBON/AIRSS/Generating-Clusters/ReaxFF-fromJPCA2015/Units_Real/with-SteepDescent/Only-C1/SD-CG/Try1-3A/FIRE-CG
REM
REM
REM
REM
REM
REM ./C.cell (11c1c37f851c82e70ff6c80c92926a4b)
REM
REM compiler GCC version 9.2.1 20190827 (Red Hat 9.2.1-1)
REM options -cpp -mtune=generic -march=x86-64 -g -O0 -fpre-include=/usr/include/finclude/math-vector-fortran.h
REM seed -1347969750 1393546794 1431157168 368366802 -434398083 1802172121 -2130106222 1642849007 -1391999047 509209744 -1651768980 -351512347 1180110298 1556310510 1049169528 -58677343 2025701423 -1013759773 -1690067529 -1983766749 1134229047 48626238 -2034162573 -1163958377 -453002519 -1740637181 -927916152 -1854903413 54679343 970364706 138471459 1767297359 1900325696
REM
CELL 1.54180   50.00000   50.00000   50.00000   90.00000   90.00000   90.00000
LATT -1
SFAC C  
C      1  0.5413230000000  0.4438790000000  0.4096020000000 1.0
C      1  0.4411920000000  0.5096660000000  0.4936300000000 1.0
C      1  0.5652330000000  0.5498090000000  0.5574520000000 1.0
C      1  0.5805400000000  0.5449340000000  0.5034120000000 1.0
C      1  0.4980410000000  0.4234370000000  0.4918280000000 1.0
C      1  0.5064350000000  0.4404440000000  0.5775010000000 1.0
C      1  0.4221400000000  0.5648000000000  0.5534760000000 1.0
C      1  0.5950410000000  0.4987980000000  0.4880330000000 1.0
C      1  0.5537360000000  0.5824980000000  0.4787330000000 1.0
C      1  0.5338910000000  0.5439970000000  0.4688430000000 1.0
C      1  0.4111480000000  0.5659760000000  0.5263070000000 1.0
C      1  0.4573400000000  0.4457960000000  0.4774070000000 1.0
C      1  0.5042400000000  0.4486660000000  0.4439280000000 1.0
C      1  0.4700200000000  0.5055410000000  0.4933760000000 1.0
C      1  0.4662570000000  0.5295320000000  0.5397780000000 1.0
C      1  0.4380600000000  0.5697370000000  0.5311120000000 1.0
C      1  0.4670050000000  0.4440510000000  0.4157810000000 1.0
C      1  0.4712770000000  0.4705260000000  0.4607510000000 1.0
C      1  0.5022730000000  0.4963510000000  0.5444770000000 1.0
C      1  0.4639470000000  0.4002190000000  0.5116070000000 1.0
C      1  0.4895900000000  0.5848830000000  0.5578710000000 1.0
C      1  0.5461260000000  0.5616300000000  0.4317360000000 1.0
C      1  0.5538040000000  0.5035600000000  0.5842420000000 1.0
C      1  0.4422390000000  0.5655970000000  0.5746670000000 1.0
C      1  0.5060820000000  0.6007130000000  0.5208310000000 1.0
C      1  0.5117190000000  0.4686590000000  0.5844860000000 1.0
C      1  0.5149910000000  0.4644730000000  0.4659630000000 1.0
C      1  0.5201770000000  0.4203990000000  0.5603030000000 1.0
C      1  0.5111580000000  0.4053200000000  0.5365380000000 1.0
C      1  0.5874940000000  0.4536950000000  0.4988080000000 1.0
C      1  0.4954100000000  0.4211680000000  0.4459020000000 1.0
C      1  0.5152490000000  0.5104340000000  0.4402380000000 1.0
C      1  0.4447980000000  0.5143650000000  0.5796050000000 1.0
C      1  0.4739900000000  0.5535870000000  0.4976290000000 1.0
C      1  0.5009580000000  0.5490730000000  0.5933610000000 1.0
C      1  0.4263670000000  0.5131390000000  0.4697370000000 1.0
C      1  0.5387080000000  0.5241510000000  0.5335690000000 1.0
C      1  0.5454480000000  0.4132090000000  0.4508990000000 1.0
C      1  0.4764680000000  0.5330170000000  0.6000170000000 1.0
C      1  0.5830930000000  0.4724570000000  0.5203950000000 1.0
C      1  0.4131240000000  0.4839550000000  0.5266820000000 1.0
C      1  0.5751500000000  0.4586630000000  0.4554460000000 1.0
C      1  0.5509800000000  0.5323690000000  0.5782260000000 1.0
C      1  0.5122670000000  0.4501640000000  0.4917040000000 1.0
C      1  0.4719370000000  0.5159380000000  0.4431520000000 1.0
C      1  0.5014090000000  0.5875120000000  0.4590460000000 1.0
C      1  0.5447380000000  0.4485710000000  0.5329680000000 1.0
C      1  0.4685310000000  0.5056420000000  0.5949710000000 1.0
C      1  0.5327630000000  0.5721130000000  0.4592970000000 1.0
C      1  0.5164350000000  0.5412410000000  0.5463060000000 1.0
C      1  0.5358460000000  0.4965090000000  0.5453780000000 1.0
C      1  0.5821670000000  0.5245010000000  0.4834200000000 1.0
C      1  0.5032920000000  0.4815040000000  0.5169250000000 1.0
C      1  0.4828860000000  0.4809910000000  0.5586750000000 1.0
C      1  0.5460700000000  0.4266050000000  0.4269190000000 1.0
C      1  0.5546240000000  0.4805620000000  0.5214880000000 1.0
C      1  0.5979980000000  0.4948570000000  0.5157320000000 1.0
C      1  0.4931940000000  0.5521510000000  0.4202520000000 1.0
C      1  0.4776190000000  0.5976430000000  0.4801520000000 1.0
C      1  0.4472750000000  0.5547690000000  0.4651410000000 1.0
C      1  0.4407170000000  0.4026400000000  0.5270310000000 1.0
C      1  0.5077620000000  0.5135330000000  0.3955700000000 1.0
C      1  0.5161750000000  0.5347760000000  0.4912900000000 1.0
C      1  0.5784110000000  0.5675630000000  0.4837150000000 1.0
C      1  0.4240010000000  0.5096340000000  0.5196670000000 1.0
C      1  0.5592300000000  0.4562200000000  0.5581510000000 1.0
C      1  0.5478310000000  0.4842450000000  0.4168530000000 1.0
C      1  0.4621790000000  0.4982440000000  0.4178680000000 1.0
C      1  0.4958290000000  0.5305000000000  0.4392400000000 1.0
C      1  0.4804850000000  0.4634730000000  0.4344720000000 1.0
C      1  0.4484950000000  0.5367040000000  0.4441490000000 1.0
C      1  0.5152980000000  0.4001530000000  0.4872320000000 1.0
C      1  0.4433910000000  0.4392940000000  0.4504370000000 1.0
C      1  0.5894330000000  0.5618120000000  0.4556240000000 1.0
C      1  0.4608100000000  0.4540210000000  0.5851470000000 1.0
C      1  0.4659380000000  0.4244000000000  0.4375420000000 1.0
C      1  0.4167050000000  0.4552450000000  0.4979690000000 1.0
C      1  0.5014390000000  0.4711790000000  0.3921690000000 1.0
C      1  0.5299210000000  0.4044910000000  0.5127860000000 1.0
C      1  0.5591030000000  0.4791760000000  0.4431150000000 1.0
C      1  0.4584470000000  0.5516190000000  0.5223910000000 1.0
C      1  0.5305880000000  0.4890940000000  0.5738840000000 1.0
C      1  0.4292760000000  0.4652440000000  0.4501600000000 1.0
C      1  0.5716910000000  0.4780470000000  0.5727430000000 1.0
C      1  0.4816250000000  0.6063750000000  0.5064130000000 1.0
C      1  0.5313740000000  0.5110940000000  0.4160640000000 1.0
C      1  0.5375370000000  0.5430340000000  0.4118230000000 1.0
C      1  0.4513960000000  0.5890740000000  0.4866250000000 1.0
C      1  0.4562920000000  0.4794560000000  0.5473800000000 1.0
C      1  0.5232490000000  0.5413410000000  0.5760310000000 1.0
C      1  0.4849830000000  0.4955990000000  0.3989160000000 1.0
C      1  0.4135920000000  0.4730030000000  0.4748810000000 1.0
C      1  0.5911710000000  0.4716870000000  0.4765300000000 1.0
C      1  0.5583360000000  0.5280340000000  0.4630510000000 1.0
C      1  0.5111340000000  0.5425690000000  0.3991110000000 1.0
C      1  0.5513190000000  0.4234700000000  0.5147300000000 1.0
C      1  0.4849870000000  0.4467330000000  0.3912950000000 1.0
C      1  0.5039300000000  0.5721700000000  0.5355390000000 1.0
C      1  0.5722500000000  0.5356810000000  0.5316680000000 1.0
C      1  0.4740380000000  0.4971920000000  0.4664940000000 1.0
C      1  0.4654540000000  0.5835250000000  0.5746360000000 1.0
C      1  0.4817120000000  0.4777000000000  0.5870750000000 1.0
C      1  0.4487960000000  0.5418530000000  0.5902100000000 1.0
C      1  0.4781980000000  0.4829880000000  0.5068160000000 1.0
C      1  0.5698510000000  0.5464740000000  0.4398570000000 1.0
C      1  0.5927750000000  0.5131750000000  0.5369780000000 1.0
C      1  0.4382060000000  0.4870040000000  0.4299720000000 1.0
C      1  0.4102040000000  0.5514950000000  0.5011870000000 1.0
C      1  0.5207340000000  0.4924150000000  0.4614550000000 1.0
C      1  0.4920390000000  0.5799650000000  0.4327290000000 1.0
C      1  0.5418930000000  0.5955470000000  0.5015550000000 1.0
C      1  0.4027370000000  0.5233690000000  0.5016220000000 1.0
C      1  0.5539000000000  0.5724370000000  0.5463160000000 1.0
C      1  0.5445060000000  0.5890830000000  0.5290170000000 1.0
C      1  0.5172040000000  0.4055890000000  0.4585960000000 1.0
C      1  0.4227180000000  0.4434010000000  0.5510510000000 1.0
C      1  0.4813890000000  0.4024890000000  0.5362930000000 1.0
C      1  0.4463350000000  0.5103240000000  0.5500520000000 1.0
C      1  0.4357440000000  0.4166820000000  0.5506270000000 1.0
C      1  0.5320950000000  0.4673560000000  0.3991120000000 1.0
C      1  0.5849380000000  0.4985400000000  0.5591370000000 1.0
C      1  0.4916560000000  0.5759890000000  0.5858130000000 1.0
C      1  0.5152530000000  0.5877260000000  0.4960400000000 1.0
C      1  0.4698650000000  0.4206810000000  0.4907140000000 1.0
C      1  0.4590870000000  0.4680270000000  0.5189280000000 1.0
C      1  0.4085460000000  0.4570880000000  0.5273910000000 1.0
C      1  0.4444210000000  0.4502010000000  0.5020900000000 1.0
C      1  0.4314440000000  0.5679170000000  0.4840370000000 1.0
C      1  0.4655520000000  0.4136650000000  0.5580120000000 1.0
C      1  0.5482130000000  0.4961910000000  0.4673050000000 1.0
C      1  0.5327280000000  0.5174020000000  0.5070670000000 1.0
C      1  0.4863870000000  0.5292700000000  0.4882270000000 1.0
C      1  0.5181850000000  0.4575760000000  0.5190650000000 1.0
C      1  0.5637640000000  0.4320800000000  0.4645510000000 1.0
C      1  0.4772000000000  0.4319980000000  0.5777980000000 1.0
C      1  0.5457010000000  0.4950810000000  0.4976420000000 1.0
C      1  0.5018830000000  0.5626990000000  0.5056840000000 1.0
C      1  0.4939150000000  0.5236510000000  0.5431330000000 1.0
C      1  0.4309260000000  0.5134120000000  0.4405030000000 1.0
C      1  0.4026650000000  0.5007910000000  0.4805420000000 1.0
C      1  0.5694330000000  0.4307280000000  0.4933410000000 1.0
C      1  0.4400640000000  0.4601500000000  0.5663580000000 1.0
END
