TITL C-4164243-3780-491 69.1645886074992 125000 -23674.4594909135 0 0 160 (C1) n - 1
REM
REM in /home/nfs/bkarasulu/CARBON/AIRSS/Generating-Clusters/ReaxFF-fromJPCA2015/Units_Real/with-SteepDescent/Only-C1/SD-CG/Try1-3A/FIRE-CG
REM
REM
REM
REM
REM
REM ./C.cell (11c1c37f851c82e70ff6c80c92926a4b)
REM
REM compiler GCC version 9.2.1 20190827 (Red Hat 9.2.1-1)
REM options -cpp -mtune=generic -march=x86-64 -g -O0 -fpre-include=/usr/include/finclude/math-vector-fortran.h
REM seed -133732084 1525285131 -651248865 1156662683 1231195613 2120700404 -182988242 273726489 -899679341 1098039024 1551168885 1887270536 -435198273 1768893013 785949441 -1971865790 2008813807 -1554663179 1723416419 1022075946 -641965800 -140575661 -1943624379 1543844025 -434975771 223224420 314387887 378696736 1369385545 585216638 1694175299 922026412 -1387843757
REM
CELL 1.54180   50.00000   50.00000   50.00000   90.00000   90.00000   90.00000
LATT -1
SFAC C  
C      1  0.4970850000000  0.5378020000000  0.5963480000000 1.0
C      1  0.4489890000000  0.5545150000000  0.4399620000000 1.0
C      1  0.5911650000000  0.5406060000000  0.4971740000000 1.0
C      1  0.5594090000000  0.4627270000000  0.5184550000000 1.0
C      1  0.4219620000000  0.5219360000000  0.5708590000000 1.0
C      1  0.5069670000000  0.4043860000000  0.5613630000000 1.0
C      1  0.5816600000000  0.4449400000000  0.5255640000000 1.0
C      1  0.4408030000000  0.5844990000000  0.5100380000000 1.0
C      1  0.5461170000000  0.4426330000000  0.4113740000000 1.0
C      1  0.5060120000000  0.5617370000000  0.4723330000000 1.0
C      1  0.4504490000000  0.4720980000000  0.4060550000000 1.0
C      1  0.4305540000000  0.5642120000000  0.5546650000000 1.0
C      1  0.5333790000000  0.5555250000000  0.4769490000000 1.0
C      1  0.5196390000000  0.4964520000000  0.4781990000000 1.0
C      1  0.4178350000000  0.4866210000000  0.4443610000000 1.0
C      1  0.5581110000000  0.5932950000000  0.5026400000000 1.0
C      1  0.4980320000000  0.5095370000000  0.4637490000000 1.0
C      1  0.5139680000000  0.4515450000000  0.5283960000000 1.0
C      1  0.5688350000000  0.5447690000000  0.4459500000000 1.0
C      1  0.4424890000000  0.4575090000000  0.5481320000000 1.0
C      1  0.4060550000000  0.5344670000000  0.4587190000000 1.0
C      1  0.4699500000000  0.4680060000000  0.5434340000000 1.0
C      1  0.5570610000000  0.4903620000000  0.5279810000000 1.0
C      1  0.4808070000000  0.5418830000000  0.5541300000000 1.0
C      1  0.4820780000000  0.5882370000000  0.5225020000000 1.0
C      1  0.5667520000000  0.4186280000000  0.4835070000000 1.0
C      1  0.4566260000000  0.4457350000000  0.4055180000000 1.0
C      1  0.4736660000000  0.5209310000000  0.5996950000000 1.0
C      1  0.5638540000000  0.4823740000000  0.5752280000000 1.0
C      1  0.5187130000000  0.5216870000000  0.5786000000000 1.0
C      1  0.4353350000000  0.4715890000000  0.4991150000000 1.0
C      1  0.4420270000000  0.4256030000000  0.5143710000000 1.0
C      1  0.5431870000000  0.5207730000000  0.4047510000000 1.0
C      1  0.4455300000000  0.5556220000000  0.5789810000000 1.0
C      1  0.4355250000000  0.5619040000000  0.4895480000000 1.0
C      1  0.5533100000000  0.5426750000000  0.4215660000000 1.0
C      1  0.4665780000000  0.5399020000000  0.4225910000000 1.0
C      1  0.5629960000000  0.4667590000000  0.4103110000000 1.0
C      1  0.5461200000000  0.5218700000000  0.5902830000000 1.0
C      1  0.5442370000000  0.4888230000000  0.4636750000000 1.0
C      1  0.5559890000000  0.4967020000000  0.4159580000000 1.0
C      1  0.4658790000000  0.4774180000000  0.4518480000000 1.0
C      1  0.4884560000000  0.4597600000000  0.4530790000000 1.0
C      1  0.4407120000000  0.4689610000000  0.4368840000000 1.0
C      1  0.5293190000000  0.5834040000000  0.5625900000000 1.0
C      1  0.4384930000000  0.4385380000000  0.5699220000000 1.0
C      1  0.4916420000000  0.5652460000000  0.5908780000000 1.0
C      1  0.4093340000000  0.5444400000000  0.4982640000000 1.0
C      1  0.4825610000000  0.4872950000000  0.5636220000000 1.0
C      1  0.4925530000000  0.5035250000000  0.3905060000000 1.0
C      1  0.4019210000000  0.4812570000000  0.4680590000000 1.0
C      1  0.4922370000000  0.6005010000000  0.5603150000000 1.0
C      1  0.5136050000000  0.4949410000000  0.5064780000000 1.0
C      1  0.5334240000000  0.6027940000000  0.4903420000000 1.0
C      1  0.5146760000000  0.4763990000000  0.4145720000000 1.0
C      1  0.4610880000000  0.4057560000000  0.5258180000000 1.0
C      1  0.5103730000000  0.5171960000000  0.4391510000000 1.0
C      1  0.4685230000000  0.6014560000000  0.5449030000000 1.0
C      1  0.5223300000000  0.4632810000000  0.5603790000000 1.0
C      1  0.4641940000000  0.4972550000000  0.3980860000000 1.0
C      1  0.4478030000000  0.5729050000000  0.4615810000000 1.0
C      1  0.5979460000000  0.5021670000000  0.4573290000000 1.0
C      1  0.5972880000000  0.4759490000000  0.5333430000000 1.0
C      1  0.4330000000000  0.4858350000000  0.5514310000000 1.0
C      1  0.3951450000000  0.4903340000000  0.5358710000000 1.0
C      1  0.5081270000000  0.5883390000000  0.5808640000000 1.0
C      1  0.4487100000000  0.5166030000000  0.4734920000000 1.0
C      1  0.4890180000000  0.4374490000000  0.4331990000000 1.0
C      1  0.5125640000000  0.4924510000000  0.5602720000000 1.0
C      1  0.4982150000000  0.5378350000000  0.4207170000000 1.0
C      1  0.4917760000000  0.4054240000000  0.5380760000000 1.0
C      1  0.5530400000000  0.5674620000000  0.4573500000000 1.0
C      1  0.4551570000000  0.4491770000000  0.5027660000000 1.0
C      1  0.5576980000000  0.5666650000000  0.5224280000000 1.0
C      1  0.5121120000000  0.5677060000000  0.4228550000000 1.0
C      1  0.4754850000000  0.4375620000000  0.4847470000000 1.0
C      1  0.5113880000000  0.4428910000000  0.5800050000000 1.0
C      1  0.5493430000000  0.4596170000000  0.5713050000000 1.0
C      1  0.4849890000000  0.5477540000000  0.4871600000000 1.0
C      1  0.5186750000000  0.5330820000000  0.5117930000000 1.0
C      1  0.5446700000000  0.4930950000000  0.5935630000000 1.0
C      1  0.4651730000000  0.5955950000000  0.4991850000000 1.0
C      1  0.4420240000000  0.5852330000000  0.5386670000000 1.0
C      1  0.4509120000000  0.5170000000000  0.4148460000000 1.0
C      1  0.5251300000000  0.4097720000000  0.4842280000000 1.0
C      1  0.5527980000000  0.4316280000000  0.5670750000000 1.0
C      1  0.4372700000000  0.4367050000000  0.4425980000000 1.0
C      1  0.4843500000000  0.5592000000000  0.5319950000000 1.0
C      1  0.5392050000000  0.5502940000000  0.5042850000000 1.0
C      1  0.4978940000000  0.4548790000000  0.4799010000000 1.0
C      1  0.5778370000000  0.4963190000000  0.5521330000000 1.0
C      1  0.5510010000000  0.5711190000000  0.5514300000000 1.0
C      1  0.5577650000000  0.5389280000000  0.5670430000000 1.0
C      1  0.6040840000000  0.4832260000000  0.4792920000000 1.0
C      1  0.5631070000000  0.4249920000000  0.5416210000000 1.0
C      1  0.5292850000000  0.5381220000000  0.5576600000000 1.0
C      1  0.4076410000000  0.4964410000000  0.5608090000000 1.0
C      1  0.5864560000000  0.4934900000000  0.4327870000000 1.0
C      1  0.5156720000000  0.4848240000000  0.6046550000000 1.0
C      1  0.4089100000000  0.4619960000000  0.4924440000000 1.0
C      1  0.5818880000000  0.5267990000000  0.4677240000000 1.0
C      1  0.4292340000000  0.5314300000000  0.4497350000000 1.0
C      1  0.5272050000000  0.4402910000000  0.4825340000000 1.0
C      1  0.4199490000000  0.4299160000000  0.4934630000000 1.0
C      1  0.4286690000000  0.4312430000000  0.4678530000000 1.0
C      1  0.5769170000000  0.5265020000000  0.5478630000000 1.0
C      1  0.4620050000000  0.5067540000000  0.5137980000000 1.0
C      1  0.5716300000000  0.5025650000000  0.5042900000000 1.0
C      1  0.5103600000000  0.5913440000000  0.4741060000000 1.0
C      1  0.5902620000000  0.4576800000000  0.4775100000000 1.0
C      1  0.4752120000000  0.4812670000000  0.5186250000000 1.0
C      1  0.5265100000000  0.4992520000000  0.5327980000000 1.0
C      1  0.4488910000000  0.5092630000000  0.5404640000000 1.0
C      1  0.5020350000000  0.5856000000000  0.4332660000000 1.0
C      1  0.4446950000000  0.5284650000000  0.5882390000000 1.0
C      1  0.4728400000000  0.5622440000000  0.5702780000000 1.0
C      1  0.5664830000000  0.4614270000000  0.4595300000000 1.0
C      1  0.3875520000000  0.4996020000000  0.4848960000000 1.0
C      1  0.5391500000000  0.5677260000000  0.4274360000000 1.0
C      1  0.4978460000000  0.4543650000000  0.4109870000000 1.0
C      1  0.5491240000000  0.4016200000000  0.4991690000000 1.0
C      1  0.5231750000000  0.4546020000000  0.3980000000000 1.0
C      1  0.5017730000000  0.4587950000000  0.6024550000000 1.0
C      1  0.3895020000000  0.4831060000000  0.5092270000000 1.0
C      1  0.5981340000000  0.4919400000000  0.5068360000000 1.0
C      1  0.5057290000000  0.4022300000000  0.4635730000000 1.0
C      1  0.4706050000000  0.5014040000000  0.4636290000000 1.0
C      1  0.5123650000000  0.4165720000000  0.4395550000000 1.0
C      1  0.5270810000000  0.4185430000000  0.5763070000000 1.0
C      1  0.4907710000000  0.4986930000000  0.6077940000000 1.0
C      1  0.4198700000000  0.5382480000000  0.5459600000000 1.0
C      1  0.5387450000000  0.4267880000000  0.4351030000000 1.0
C      1  0.4757330000000  0.4656340000000  0.5896360000000 1.0
C      1  0.3907860000000  0.5293210000000  0.4808450000000 1.0
C      1  0.4943840000000  0.5437720000000  0.5117190000000 1.0
C      1  0.4906890000000  0.6007020000000  0.4539880000000 1.0
C      1  0.5292730000000  0.4939210000000  0.4338490000000 1.0
C      1  0.4362130000000  0.5021160000000  0.5003120000000 1.0
C      1  0.4195320000000  0.5269250000000  0.5186320000000 1.0
C      1  0.5604150000000  0.5086110000000  0.4786760000000 1.0
C      1  0.5519160000000  0.4357750000000  0.4614600000000 1.0
C      1  0.5858080000000  0.4360890000000  0.4962380000000 1.0
C      1  0.4568450000000  0.5401590000000  0.4896960000000 1.0
C      1  0.5868110000000  0.5667200000000  0.4897680000000 1.0
C      1  0.5134860000000  0.5225820000000  0.3974990000000 1.0
C      1  0.5292890000000  0.5263640000000  0.5336810000000 1.0
C      1  0.5427800000000  0.4110160000000  0.5264830000000 1.0
C      1  0.5142800000000  0.4214050000000  0.5260790000000 1.0
C      1  0.5804800000000  0.5431400000000  0.5242290000000 1.0
C      1  0.4662880000000  0.5932860000000  0.4693350000000 1.0
C      1  0.5352350000000  0.4528210000000  0.5081460000000 1.0
C      1  0.4712050000000  0.5147500000000  0.5572010000000 1.0
C      1  0.4794680000000  0.4094500000000  0.4770010000000 1.0
C      1  0.5809470000000  0.4655680000000  0.4326990000000 1.0
C      1  0.4716400000000  0.3993010000000  0.5018280000000 1.0
C      1  0.4596130000000  0.4274630000000  0.4262140000000 1.0
C      1  0.5705910000000  0.5857610000000  0.4773370000000 1.0
C      1  0.4983050000000  0.4712170000000  0.5069090000000 1.0
C      1  0.4256520000000  0.5116550000000  0.4309330000000 1.0
C      1  0.4562950000000  0.4468500000000  0.5850750000000 1.0
END
