TITL C-4164235-1454-254 41.2981906953832 125000 -28159.4460625297 0 0 189 (C1) n - 1
REM
REM in /home/nfs/bkarasulu/CARBON/AIRSS/Generating-Clusters/ReaxFF-fromJPCA2015/Units_Real/with-SteepDescent/Only-C1/SD-CG/Try1-3A/FIRE-CG
REM
REM
REM
REM
REM
REM ./C.cell (11c1c37f851c82e70ff6c80c92926a4b)
REM
REM compiler GCC version 9.2.1 20190827 (Red Hat 9.2.1-1)
REM options -cpp -mtune=generic -march=x86-64 -g -O0 -fpre-include=/usr/include/finclude/math-vector-fortran.h
REM seed -410838253 -930524398 -593475432 -1815786926 -55331570 -1914732097 -125755911 1306115085 1071753420 -1936441778 -2113193029 1493791326 1453170969 539645446 -1918368657 -560480387 397115202 134482453 1105655018 -1014337946 1455190938 65780384 1395217854 -1470142041 478434620 1748584737 -631903953 1290227665 1143640268 -267397364 1194861909 1126496412 -1264553609
REM
CELL 1.54180   50.00000   50.00000   50.00000   90.00000   90.00000   90.00000
LATT -1
SFAC C  
C      1  0.5119830000000  0.5879390000000  0.5639880000000 1.0
C      1  0.5197270000000  0.4942790000000  0.4414860000000 1.0
C      1  0.5764630000000  0.5010510000000  0.5123420000000 1.0
C      1  0.4881580000000  0.5481190000000  0.4456250000000 1.0
C      1  0.6007170000000  0.4658110000000  0.5300750000000 1.0
C      1  0.3738680000000  0.5044090000000  0.4926290000000 1.0
C      1  0.4066690000000  0.5595750000000  0.4965790000000 1.0
C      1  0.5460320000000  0.4337100000000  0.4899290000000 1.0
C      1  0.4675040000000  0.4517380000000  0.5500030000000 1.0
C      1  0.4318490000000  0.5133150000000  0.5096890000000 1.0
C      1  0.5406320000000  0.5797180000000  0.5576300000000 1.0
C      1  0.4932980000000  0.4545100000000  0.5985940000000 1.0
C      1  0.4215200000000  0.5503270000000  0.5454720000000 1.0
C      1  0.4201540000000  0.4505290000000  0.4339500000000 1.0
C      1  0.5319130000000  0.3977770000000  0.5293890000000 1.0
C      1  0.5603580000000  0.3969820000000  0.5361570000000 1.0
C      1  0.4739220000000  0.5582570000000  0.4930230000000 1.0
C      1  0.5637630000000  0.4787140000000  0.5581400000000 1.0
C      1  0.5048060000000  0.6006520000000  0.5140160000000 1.0
C      1  0.4615320000000  0.4722250000000  0.4082610000000 1.0
C      1  0.4238400000000  0.5336960000000  0.4597260000000 1.0
C      1  0.5442370000000  0.5293260000000  0.5568460000000 1.0
C      1  0.4881210000000  0.5923070000000  0.4350540000000 1.0
C      1  0.5027180000000  0.5084810000000  0.6133490000000 1.0
C      1  0.5064910000000  0.4338360000000  0.5787060000000 1.0
C      1  0.5466420000000  0.4382890000000  0.4221890000000 1.0
C      1  0.5705070000000  0.5639670000000  0.5310600000000 1.0
C      1  0.4706440000000  0.5156080000000  0.4434310000000 1.0
C      1  0.4124800000000  0.4221540000000  0.5030610000000 1.0
C      1  0.5759960000000  0.4078300000000  0.5595760000000 1.0
C      1  0.4459610000000  0.4131710000000  0.5566640000000 1.0
C      1  0.5034410000000  0.4199270000000  0.4482550000000 1.0
C      1  0.6081540000000  0.5647090000000  0.4687580000000 1.0
C      1  0.4870210000000  0.5702910000000  0.5173870000000 1.0
C      1  0.5853740000000  0.4661310000000  0.4710690000000 1.0
C      1  0.5125530000000  0.4756160000000  0.4150350000000 1.0
C      1  0.5025900000000  0.6068300000000  0.5441170000000 1.0
C      1  0.4906080000000  0.4819810000000  0.5110890000000 1.0
C      1  0.4880000000000  0.5266530000000  0.3956650000000 1.0
C      1  0.3929940000000  0.4632100000000  0.5130010000000 1.0
C      1  0.5071380000000  0.4798080000000  0.6057510000000 1.0
C      1  0.5542750000000  0.5505620000000  0.4146620000000 1.0
C      1  0.5018750000000  0.5451310000000  0.5535300000000 1.0
C      1  0.4595080000000  0.4343180000000  0.5723420000000 1.0
C      1  0.5599020000000  0.5476360000000  0.5083840000000 1.0
C      1  0.4800270000000  0.5672270000000  0.4666940000000 1.0
C      1  0.4815430000000  0.3917120000000  0.5233920000000 1.0
C      1  0.4563020000000  0.5284910000000  0.5146350000000 1.0
C      1  0.5303520000000  0.4803480000000  0.4850730000000 1.0
C      1  0.4914840000000  0.5657340000000  0.5719380000000 1.0
C      1  0.5877830000000  0.4964540000000  0.4565110000000 1.0
C      1  0.5890640000000  0.4221550000000  0.4725020000000 1.0
C      1  0.4922330000000  0.5129460000000  0.4778610000000 1.0
C      1  0.4084690000000  0.4410850000000  0.5432510000000 1.0
C      1  0.5830390000000  0.5747270000000  0.4573600000000 1.0
C      1  0.4174410000000  0.5582940000000  0.4708940000000 1.0
C      1  0.6065800000000  0.5300120000000  0.5240440000000 1.0
C      1  0.4282260000000  0.4844760000000  0.5546020000000 1.0
C      1  0.4364680000000  0.4074250000000  0.5014690000000 1.0
C      1  0.5545530000000  0.5701250000000  0.4920840000000 1.0
C      1  0.5842270000000  0.5188240000000  0.5716000000000 1.0
C      1  0.5648630000000  0.4099530000000  0.4763770000000 1.0
C      1  0.4703420000000  0.5691070000000  0.5435360000000 1.0
C      1  0.5181230000000  0.5345830000000  0.6052490000000 1.0
C      1  0.4199400000000  0.5053270000000  0.4301450000000 1.0
C      1  0.4634030000000  0.5005050000000  0.4181390000000 1.0
C      1  0.5073670000000  0.5324210000000  0.4624380000000 1.0
C      1  0.4748630000000  0.5008960000000  0.5609680000000 1.0
C      1  0.4619480000000  0.5275500000000  0.5625720000000 1.0
C      1  0.4146300000000  0.4981730000000  0.5780800000000 1.0
C      1  0.4867700000000  0.3931480000000  0.4963370000000 1.0
C      1  0.4919970000000  0.4328770000000  0.3981450000000 1.0
C      1  0.6058590000000  0.4432550000000  0.4697650000000 1.0
C      1  0.4779350000000  0.5222650000000  0.6088300000000 1.0
C      1  0.4446040000000  0.5417060000000  0.5802050000000 1.0
C      1  0.4423610000000  0.4506890000000  0.4141710000000 1.0
C      1  0.4655810000000  0.4511760000000  0.5973870000000 1.0
C      1  0.4574530000000  0.6023660000000  0.5004960000000 1.0
C      1  0.4805690000000  0.4672520000000  0.4649280000000 1.0
C      1  0.4357780000000  0.5795160000000  0.4421710000000 1.0
C      1  0.5120730000000  0.4640710000000  0.5176790000000 1.0
C      1  0.5433930000000  0.4009460000000  0.4584220000000 1.0
C      1  0.5068570000000  0.4374770000000  0.5264450000000 1.0
C      1  0.4182040000000  0.4492560000000  0.5183510000000 1.0
C      1  0.4079130000000  0.5333490000000  0.5091190000000 1.0
C      1  0.5319660000000  0.5788510000000  0.4495600000000 1.0
C      1  0.4355600000000  0.5556660000000  0.4259310000000 1.0
C      1  0.3837760000000  0.5185020000000  0.5171280000000 1.0
C      1  0.5326040000000  0.4184380000000  0.4380500000000 1.0
C      1  0.5490430000000  0.4829640000000  0.3954860000000 1.0
C      1  0.4654100000000  0.4764310000000  0.4946140000000 1.0
C      1  0.4014220000000  0.5180420000000  0.4487650000000 1.0
C      1  0.5630600000000  0.5221500000000  0.4123370000000 1.0
C      1  0.5459190000000  0.5410970000000  0.5958490000000 1.0
C      1  0.4831870000000  0.6078010000000  0.4915160000000 1.0
C      1  0.6109670000000  0.5370650000000  0.4697310000000 1.0
C      1  0.4722020000000  0.4366340000000  0.5249990000000 1.0
C      1  0.5262900000000  0.4164400000000  0.5076150000000 1.0
C      1  0.4218710000000  0.4264410000000  0.5593880000000 1.0
C      1  0.4239670000000  0.4778760000000  0.5956200000000 1.0
C      1  0.5815940000000  0.4164380000000  0.5308990000000 1.0
C      1  0.4933760000000  0.5462860000000  0.5970110000000 1.0
C      1  0.5164700000000  0.5301840000000  0.3951780000000 1.0
C      1  0.5208490000000  0.5436520000000  0.4850200000000 1.0
C      1  0.5355040000000  0.5998810000000  0.5106550000000 1.0
C      1  0.5801810000000  0.5015680000000  0.4277940000000 1.0
C      1  0.4687870000000  0.5310370000000  0.4900350000000 1.0
C      1  0.3967660000000  0.4600950000000  0.4843760000000 1.0
C      1  0.5531430000000  0.4926490000000  0.5285760000000 1.0
C      1  0.5609510000000  0.5122730000000  0.4675740000000 1.0
C      1  0.4187850000000  0.4286310000000  0.4548260000000 1.0
C      1  0.4330870000000  0.5816260000000  0.4734500000000 1.0
C      1  0.5205990000000  0.4437160000000  0.5548220000000 1.0
C      1  0.4533020000000  0.4388010000000  0.4775210000000 1.0
C      1  0.5833870000000  0.4437870000000  0.5205500000000 1.0
C      1  0.4534110000000  0.4508610000000  0.5048370000000 1.0
C      1  0.5732030000000  0.4783620000000  0.4124010000000 1.0
C      1  0.5167190000000  0.5227530000000  0.5635740000000 1.0
C      1  0.5247560000000  0.3969050000000  0.4808790000000 1.0
C      1  0.5199090000000  0.5294930000000  0.5111920000000 1.0
C      1  0.5309920000000  0.5674140000000  0.4774310000000 1.0
C      1  0.5078450000000  0.5016130000000  0.4980240000000 1.0
C      1  0.3797540000000  0.4890940000000  0.5167010000000 1.0
C      1  0.4136050000000  0.4816320000000  0.4715990000000 1.0
C      1  0.5020620000000  0.4096210000000  0.5656640000000 1.0
C      1  0.5336540000000  0.4591760000000  0.4045930000000 1.0
C      1  0.4313490000000  0.5190080000000  0.5934310000000 1.0
C      1  0.5231140000000  0.4847440000000  0.5817800000000 1.0
C      1  0.5071670000000  0.5670620000000  0.4307110000000 1.0
C      1  0.5365760000000  0.6076940000000  0.4596450000000 1.0
C      1  0.4872720000000  0.5953150000000  0.4647820000000 1.0
C      1  0.5519700000000  0.4919080000000  0.5821930000000 1.0
C      1  0.4254400000000  0.4786260000000  0.4425830000000 1.0
C      1  0.5260750000000  0.4519770000000  0.4766430000000 1.0
C      1  0.4893340000000  0.4954730000000  0.4550260000000 1.0
C      1  0.5979610000000  0.5580690000000  0.5200490000000 1.0
C      1  0.5729590000000  0.4510990000000  0.4239680000000 1.0
C      1  0.4327040000000  0.5659600000000  0.5667690000000 1.0
C      1  0.4605210000000  0.5221640000000  0.3981150000000 1.0
C      1  0.4542090000000  0.5441450000000  0.5386840000000 1.0
C      1  0.4408950000000  0.4954060000000  0.4857490000000 1.0
C      1  0.5404360000000  0.5190110000000  0.5307110000000 1.0
C      1  0.4563910000000  0.4081770000000  0.5271230000000 1.0
C      1  0.5030110000000  0.4465160000000  0.4635380000000 1.0
C      1  0.4012330000000  0.4328660000000  0.4770630000000 1.0
C      1  0.4393920000000  0.4138560000000  0.4723390000000 1.0
C      1  0.4839910000000  0.4210710000000  0.4236440000000 1.0
C      1  0.4072030000000  0.5259090000000  0.5489930000000 1.0
C      1  0.4458550000000  0.5845630000000  0.5479940000000 1.0
C      1  0.5485810000000  0.6087300000000  0.4861230000000 1.0
C      1  0.4535610000000  0.5054560000000  0.6057280000000 1.0
C      1  0.5658110000000  0.4541690000000  0.4988410000000 1.0
C      1  0.4488320000000  0.5179490000000  0.4665310000000 1.0
C      1  0.5682390000000  0.5231450000000  0.4962100000000 1.0
C      1  0.4182850000000  0.5032440000000  0.5354340000000 1.0
C      1  0.5268050000000  0.5229260000000  0.4411470000000 1.0
C      1  0.5513990000000  0.5329620000000  0.4511790000000 1.0
C      1  0.5933680000000  0.4834680000000  0.5519590000000 1.0
C      1  0.6013130000000  0.4867940000000  0.5092840000000 1.0
C      1  0.5761480000000  0.5866370000000  0.4826250000000 1.0
C      1  0.4347720000000  0.5300090000000  0.4148880000000 1.0
C      1  0.4386840000000  0.5953270000000  0.5203350000000 1.0
C      1  0.5485810000000  0.4505280000000  0.5619920000000 1.0
C      1  0.5643990000000  0.4294760000000  0.5710160000000 1.0
C      1  0.5413740000000  0.5112750000000  0.3971980000000 1.0
C      1  0.4979360000000  0.3961940000000  0.4713570000000 1.0
C      1  0.5601450000000  0.5605500000000  0.4434140000000 1.0
C      1  0.4496880000000  0.4748870000000  0.6067660000000 1.0
C      1  0.5500480000000  0.5549550000000  0.5706480000000 1.0
C      1  0.6154400000000  0.5118780000000  0.5029420000000 1.0
C      1  0.5041800000000  0.4968880000000  0.5624140000000 1.0
C      1  0.5519430000000  0.5871580000000  0.5320640000000 1.0
C      1  0.4564600000000  0.4546950000000  0.4538750000000 1.0
C      1  0.5430360000000  0.4720130000000  0.5096270000000 1.0
C      1  0.4588820000000  0.4341470000000  0.4316000000000 1.0
C      1  0.6108150000000  0.5113060000000  0.4720220000000 1.0
C      1  0.5037930000000  0.5486660000000  0.5268110000000 1.0
C      1  0.4607690000000  0.5871480000000  0.4323410000000 1.0
C      1  0.3897720000000  0.5004770000000  0.4688660000000 1.0
C      1  0.5930960000000  0.4537210000000  0.4450980000000 1.0
C      1  0.5255060000000  0.5535380000000  0.4097130000000 1.0
C      1  0.5052970000000  0.3931930000000  0.5428900000000 1.0
C      1  0.4888160000000  0.4633880000000  0.4035240000000 1.0
C      1  0.6000070000000  0.5128140000000  0.5496600000000 1.0
C      1  0.5640730000000  0.5174150000000  0.5911910000000 1.0
C      1  0.5412180000000  0.4914010000000  0.4621880000000 1.0
C      1  0.5999350000000  0.5743500000000  0.4956360000000 1.0
C      1  0.4576850000000  0.4793410000000  0.5526770000000 1.0
C      1  0.4197620000000  0.5862170000000  0.4993380000000 1.0
END
