TITL C-4164240-4114-740 81.0076205226999 125000 -28333.1356083807 0 0 190 (C1) n - 1
REM
REM in /home/nfs/bkarasulu/CARBON/AIRSS/Generating-Clusters/ReaxFF-fromJPCA2015/Units_Real/with-SteepDescent/Only-C1/SD-CG/Try1-3A/FIRE-CG
REM
REM
REM
REM
REM
REM ./C.cell (11c1c37f851c82e70ff6c80c92926a4b)
REM
REM compiler GCC version 9.2.1 20190827 (Red Hat 9.2.1-1)
REM options -cpp -mtune=generic -march=x86-64 -g -O0 -fpre-include=/usr/include/finclude/math-vector-fortran.h
REM seed 623912657 1194908882 1824164782 -200063155 -1332534926 -194469424 -670838337 836585918 -1426991557 1325986130 -2065027996 -1068902023 -537713505 1857937908 339062675 1058138749 213128895 -590394557 495741082 -1471677634 -1425195759 1713281211 1342019178 -617341130 1337150121 -932923438 -2007531268 -477137244 -195399645 102384713 1110385190 -1342276345 1903714573
REM
CELL 1.54180   50.00000   50.00000   50.00000   90.00000   90.00000   90.00000
LATT -1
SFAC C  
C      1  0.4949040000000  0.4685320000000  0.4301600000000 1.0
C      1  0.4169640000000  0.4931070000000  0.5805710000000 1.0
C      1  0.5057770000000  0.4003810000000  0.4356200000000 1.0
C      1  0.5940860000000  0.4886500000000  0.4548470000000 1.0
C      1  0.4283300000000  0.5662020000000  0.5521940000000 1.0
C      1  0.4356280000000  0.4718610000000  0.5729190000000 1.0
C      1  0.5339900000000  0.4890330000000  0.4965660000000 1.0
C      1  0.3943920000000  0.4958010000000  0.4384140000000 1.0
C      1  0.4601880000000  0.4414850000000  0.5891690000000 1.0
C      1  0.5900820000000  0.4696090000000  0.5463970000000 1.0
C      1  0.5195180000000  0.4440840000000  0.3995540000000 1.0
C      1  0.5918360000000  0.4890880000000  0.4236810000000 1.0
C      1  0.4467510000000  0.4528710000000  0.5070230000000 1.0
C      1  0.5124710000000  0.3987120000000  0.4827380000000 1.0
C      1  0.4276310000000  0.4738940000000  0.5100800000000 1.0
C      1  0.4906830000000  0.4445040000000  0.4127030000000 1.0
C      1  0.4661100000000  0.5938290000000  0.5318290000000 1.0
C      1  0.6088810000000  0.5227890000000  0.5335790000000 1.0
C      1  0.4722000000000  0.4347420000000  0.5619930000000 1.0
C      1  0.4763390000000  0.4931370000000  0.4810290000000 1.0
C      1  0.5480720000000  0.4702860000000  0.4398080000000 1.0
C      1  0.5022250000000  0.4754290000000  0.5651040000000 1.0
C      1  0.4063990000000  0.4440210000000  0.5347840000000 1.0
C      1  0.4126970000000  0.5466310000000  0.5488100000000 1.0
C      1  0.5203880000000  0.5992260000000  0.4245750000000 1.0
C      1  0.4715200000000  0.4012190000000  0.4762170000000 1.0
C      1  0.5643180000000  0.4821800000000  0.4595890000000 1.0
C      1  0.5610740000000  0.4372510000000  0.5672020000000 1.0
C      1  0.5066670000000  0.6111650000000  0.4709680000000 1.0
C      1  0.4813010000000  0.5673810000000  0.5021840000000 1.0
C      1  0.4465520000000  0.5232240000000  0.3997480000000 1.0
C      1  0.4892880000000  0.5088150000000  0.5202810000000 1.0
C      1  0.4377610000000  0.5042820000000  0.5982630000000 1.0
C      1  0.4504600000000  0.4214680000000  0.5210530000000 1.0
C      1  0.5089530000000  0.5678110000000  0.4570230000000 1.0
C      1  0.5851340000000  0.4301410000000  0.5542270000000 1.0
C      1  0.5354680000000  0.6090150000000  0.4815420000000 1.0
C      1  0.5623810000000  0.4467640000000  0.4288170000000 1.0
C      1  0.4386130000000  0.4357220000000  0.4302200000000 1.0
C      1  0.5805660000000  0.4844540000000  0.5007750000000 1.0
C      1  0.4353900000000  0.5489100000000  0.4096140000000 1.0
C      1  0.4994730000000  0.5575840000000  0.4067560000000 1.0
C      1  0.4531730000000  0.5055010000000  0.4700250000000 1.0
C      1  0.5021060000000  0.4185380000000  0.5966190000000 1.0
C      1  0.4204230000000  0.4834220000000  0.4439830000000 1.0
C      1  0.5930740000000  0.5580120000000  0.4975610000000 1.0
C      1  0.5595810000000  0.4101510000000  0.5089350000000 1.0
C      1  0.5119330000000  0.4882010000000  0.3894000000000 1.0
C      1  0.4687350000000  0.3970220000000  0.5279090000000 1.0
C      1  0.4732850000000  0.4626270000000  0.6037700000000 1.0
C      1  0.4638590000000  0.4901620000000  0.6076620000000 1.0
C      1  0.4365580000000  0.5585780000000  0.4616230000000 1.0
C      1  0.4373680000000  0.5321200000000  0.5093140000000 1.0
C      1  0.5564370000000  0.5907170000000  0.4735980000000 1.0
C      1  0.5882250000000  0.4408100000000  0.4776640000000 1.0
C      1  0.6045700000000  0.4650600000000  0.4742670000000 1.0
C      1  0.5226060000000  0.5395820000000  0.5436970000000 1.0
C      1  0.5318690000000  0.6173810000000  0.5089380000000 1.0
C      1  0.4401070000000  0.5313870000000  0.5874930000000 1.0
C      1  0.4956440000000  0.3961460000000  0.5199260000000 1.0
C      1  0.5716480000000  0.5063020000000  0.5173160000000 1.0
C      1  0.5227120000000  0.5984010000000  0.5503460000000 1.0
C      1  0.4676510000000  0.5102180000000  0.4442840000000 1.0
C      1  0.4499860000000  0.5247720000000  0.5604850000000 1.0
C      1  0.4804710000000  0.5327940000000  0.5341940000000 1.0
C      1  0.5011950000000  0.5028250000000  0.5711810000000 1.0
C      1  0.5380950000000  0.5354310000000  0.4754240000000 1.0
C      1  0.5808860000000  0.4314750000000  0.5052650000000 1.0
C      1  0.4312920000000  0.4440120000000  0.5819900000000 1.0
C      1  0.5604300000000  0.5791550000000  0.4474290000000 1.0
C      1  0.4485740000000  0.5622710000000  0.4330590000000 1.0
C      1  0.5048960000000  0.5943730000000  0.4470670000000 1.0
C      1  0.4925500000000  0.5139870000000  0.4920700000000 1.0
C      1  0.5209660000000  0.4756940000000  0.5176850000000 1.0
C      1  0.4835070000000  0.5104120000000  0.6145300000000 1.0
C      1  0.5296850000000  0.4680890000000  0.3866500000000 1.0
C      1  0.5899010000000  0.4444890000000  0.5296850000000 1.0
C      1  0.4670640000000  0.5728190000000  0.5786510000000 1.0
C      1  0.4632730000000  0.5911510000000  0.5016390000000 1.0
C      1  0.5734290000000  0.4309510000000  0.4542220000000 1.0
C      1  0.5423260000000  0.4959180000000  0.6061370000000 1.0
C      1  0.4815300000000  0.4652420000000  0.5490590000000 1.0
C      1  0.5345360000000  0.4433910000000  0.5538880000000 1.0
C      1  0.3827390000000  0.4791610000000  0.4579560000000 1.0
C      1  0.4957030000000  0.5982960000000  0.5332190000000 1.0
C      1  0.4973180000000  0.4134920000000  0.5643830000000 1.0
C      1  0.5402530000000  0.4114180000000  0.4842840000000 1.0
C      1  0.5337540000000  0.4097780000000  0.4335770000000 1.0
C      1  0.5656450000000  0.5069800000000  0.3873900000000 1.0
C      1  0.5806090000000  0.5572810000000  0.4455500000000 1.0
C      1  0.5233530000000  0.5806440000000  0.5713270000000 1.0
C      1  0.5079360000000  0.5295380000000  0.4076400000000 1.0
C      1  0.5213460000000  0.5769700000000  0.4074940000000 1.0
C      1  0.4760210000000  0.5594250000000  0.4250230000000 1.0
C      1  0.5994600000000  0.5173360000000  0.4669060000000 1.0
C      1  0.5245040000000  0.5132850000000  0.5545610000000 1.0
C      1  0.4952880000000  0.4817690000000  0.5266540000000 1.0
C      1  0.6144650000000  0.5021650000000  0.5149370000000 1.0
C      1  0.5608480000000  0.5099160000000  0.5911640000000 1.0
C      1  0.4857610000000  0.6120670000000  0.4909390000000 1.0
C      1  0.4334850000000  0.4831930000000  0.4696390000000 1.0
C      1  0.4250970000000  0.4737530000000  0.4211560000000 1.0
C      1  0.5978300000000  0.5497250000000  0.5244400000000 1.0
C      1  0.5204270000000  0.5019900000000  0.4513880000000 1.0
C      1  0.4470510000000  0.4255990000000  0.5490090000000 1.0
C      1  0.4129970000000  0.5354510000000  0.4204290000000 1.0
C      1  0.5934760000000  0.5096250000000  0.5557870000000 1.0
C      1  0.3973870000000  0.5485700000000  0.4884240000000 1.0
C      1  0.5227950000000  0.5104460000000  0.4785930000000 1.0
C      1  0.5198200000000  0.5333810000000  0.6124420000000 1.0
C      1  0.4013060000000  0.5229230000000  0.5415110000000 1.0
C      1  0.4066620000000  0.4967880000000  0.5529890000000 1.0
C      1  0.4557380000000  0.4115170000000  0.4286380000000 1.0
C      1  0.5251670000000  0.5530440000000  0.5190410000000 1.0
C      1  0.4070920000000  0.5463350000000  0.4610670000000 1.0
C      1  0.4112970000000  0.5752820000000  0.4941360000000 1.0
C      1  0.5034270000000  0.5718700000000  0.5158920000000 1.0
C      1  0.5463760000000  0.5654150000000  0.5817890000000 1.0
C      1  0.4582950000000  0.5523390000000  0.5977310000000 1.0
C      1  0.4766810000000  0.5428260000000  0.4872020000000 1.0
C      1  0.5839360000000  0.4532610000000  0.5685940000000 1.0
C      1  0.5211010000000  0.5241420000000  0.4337770000000 1.0
C      1  0.5480060000000  0.5000220000000  0.5530110000000 1.0
C      1  0.5373410000000  0.4436220000000  0.4963760000000 1.0
C      1  0.5728520000000  0.4942100000000  0.5445100000000 1.0
C      1  0.5686890000000  0.5755470000000  0.4977600000000 1.0
C      1  0.5692290000000  0.5533930000000  0.5674140000000 1.0
C      1  0.4525740000000  0.5820910000000  0.5545730000000 1.0
C      1  0.4486950000000  0.5350590000000  0.4830300000000 1.0
C      1  0.5579030000000  0.4765760000000  0.4861830000000 1.0
C      1  0.4957570000000  0.5654230000000  0.5760840000000 1.0
C      1  0.4298820000000  0.4113590000000  0.5027000000000 1.0
C      1  0.5584870000000  0.5266690000000  0.5098980000000 1.0
C      1  0.4431180000000  0.4086070000000  0.4764930000000 1.0
C      1  0.4589630000000  0.4806720000000  0.5578220000000 1.0
C      1  0.5184400000000  0.4571760000000  0.5754030000000 1.0
C      1  0.4297880000000  0.4310620000000  0.4628250000000 1.0
C      1  0.3993440000000  0.5091420000000  0.4960130000000 1.0
C      1  0.4381890000000  0.5800450000000  0.4834390000000 1.0
C      1  0.4945350000000  0.3919430000000  0.4613350000000 1.0
C      1  0.4900010000000  0.3929300000000  0.5472050000000 1.0
C      1  0.5394610000000  0.4303830000000  0.4146520000000 1.0
C      1  0.5345270000000  0.5543370000000  0.6055520000000 1.0
C      1  0.4862440000000  0.5517390000000  0.4631640000000 1.0
C      1  0.3995250000000  0.4833060000000  0.4954520000000 1.0
C      1  0.5795290000000  0.5646920000000  0.5424050000000 1.0
C      1  0.3964720000000  0.5274870000000  0.4407220000000 1.0
C      1  0.5035880000000  0.5560300000000  0.6090260000000 1.0
C      1  0.4964610000000  0.5443840000000  0.5542590000000 1.0
C      1  0.5241430000000  0.4149830000000  0.5503870000000 1.0
C      1  0.4949880000000  0.4453540000000  0.4867540000000 1.0
C      1  0.5014090000000  0.4471100000000  0.5973630000000 1.0
C      1  0.3875290000000  0.4609950000000  0.4789350000000 1.0
C      1  0.4112210000000  0.4728670000000  0.5352210000000 1.0
C      1  0.4457500000000  0.4733390000000  0.4054070000000 1.0
C      1  0.5524500000000  0.4122280000000  0.4566870000000 1.0
C      1  0.5408580000000  0.4093500000000  0.5299440000000 1.0
C      1  0.4050160000000  0.4363120000000  0.4804710000000 1.0
C      1  0.5776100000000  0.4677330000000  0.4110230000000 1.0
C      1  0.5190880000000  0.4532280000000  0.4755830000000 1.0
C      1  0.5322080000000  0.4520010000000  0.5230910000000 1.0
C      1  0.5782680000000  0.5262980000000  0.5747510000000 1.0
C      1  0.4769930000000  0.4902330000000  0.4261360000000 1.0
C      1  0.5664230000000  0.5852040000000  0.5263280000000 1.0
C      1  0.5457420000000  0.5476460000000  0.4997560000000 1.0
C      1  0.4755800000000  0.4649050000000  0.4800740000000 1.0
C      1  0.4914390000000  0.4136630000000  0.4958230000000 1.0
C      1  0.4557690000000  0.4499440000000  0.4114740000000 1.0
C      1  0.4087590000000  0.5283520000000  0.5101390000000 1.0
C      1  0.4075810000000  0.4288990000000  0.5082510000000 1.0
C      1  0.5816250000000  0.5374110000000  0.4276820000000 1.0
C      1  0.4709470000000  0.5052510000000  0.5634570000000 1.0
C      1  0.5115850000000  0.5078690000000  0.6029710000000 1.0
C      1  0.4946990000000  0.5077390000000  0.3920730000000 1.0
C      1  0.5593910000000  0.4790180000000  0.3904670000000 1.0
C      1  0.4203760000000  0.4316740000000  0.5576970000000 1.0
C      1  0.5026200000000  0.6203890000000  0.5122090000000 1.0
C      1  0.5843830000000  0.5145270000000  0.4116070000000 1.0
C      1  0.5446270000000  0.5853000000000  0.4235070000000 1.0
C      1  0.4799550000000  0.5355600000000  0.4418750000000 1.0
C      1  0.4516200000000  0.5377530000000  0.5338900000000 1.0
C      1  0.4616630000000  0.4989360000000  0.3962620000000 1.0
C      1  0.5448720000000  0.6038620000000  0.5319870000000 1.0
C      1  0.5278080000000  0.5466500000000  0.4513340000000 1.0
C      1  0.4854200000000  0.4164100000000  0.4233850000000 1.0
C      1  0.4792470000000  0.5388900000000  0.6127010000000 1.0
C      1  0.5957720000000  0.5440070000000  0.4707220000000 1.0
C      1  0.6102460000000  0.4782880000000  0.4997340000000 1.0
C      1  0.4464510000000  0.4571090000000  0.4772060000000 1.0
C      1  0.5202090000000  0.4729320000000  0.4483850000000 1.0
END
