TITL C-4164242-3624-368 30.1602482734761 125000 -28278.2199899118 0 0 189 (C1) n - 1
REM
REM in /home/nfs/bkarasulu/CARBON/AIRSS/Generating-Clusters/ReaxFF-fromJPCA2015/Units_Real/with-SteepDescent/Only-C1/SD-CG/Try1-3A/FIRE-CG
REM
REM
REM
REM
REM
REM ./C.cell (11c1c37f851c82e70ff6c80c92926a4b)
REM
REM compiler GCC version 9.2.1 20190827 (Red Hat 9.2.1-1)
REM options -cpp -mtune=generic -march=x86-64 -g -O0 -fpre-include=/usr/include/finclude/math-vector-fortran.h
REM seed 1708089693 -13416606 826146319 -615891387 -89254939 -435585667 -1190621870 -1777791665 2045467957 758054785 -1818669534 -1456865885 1735897925 125079535 1239030868 1040518016 -390736764 1486774277 2119818697 2065016671 -932922986 1118685210 1095092506 -849108462 78838933 -1339513817 754328602 2055925132 -573659807 664657656 -1046479731 573308293 -2116850081
REM
CELL 1.54180   50.00000   50.00000   50.00000   90.00000   90.00000   90.00000
LATT -1
SFAC C  
C      1  0.5277130000000  0.4926840000000  0.5759650000000 1.0
C      1  0.4759320000000  0.4501170000000  0.3895460000000 1.0
C      1  0.4134620000000  0.4213340000000  0.4659580000000 1.0
C      1  0.4920630000000  0.5949170000000  0.5449580000000 1.0
C      1  0.4762700000000  0.4417080000000  0.5680230000000 1.0
C      1  0.5011340000000  0.5832010000000  0.4255860000000 1.0
C      1  0.6033300000000  0.5404410000000  0.4790080000000 1.0
C      1  0.4919850000000  0.5105410000000  0.3915770000000 1.0
C      1  0.5284350000000  0.5375660000000  0.4520250000000 1.0
C      1  0.4129100000000  0.5379570000000  0.5737330000000 1.0
C      1  0.4574650000000  0.5707250000000  0.4428550000000 1.0
C      1  0.5054050000000  0.5972890000000  0.4533730000000 1.0
C      1  0.4355170000000  0.4559040000000  0.5914260000000 1.0
C      1  0.4382240000000  0.4070990000000  0.4647910000000 1.0
C      1  0.4934780000000  0.4784530000000  0.4529340000000 1.0
C      1  0.5339430000000  0.4758640000000  0.4274240000000 1.0
C      1  0.5427410000000  0.3964640000000  0.4919140000000 1.0
C      1  0.5371330000000  0.5503760000000  0.5884880000000 1.0
C      1  0.4847830000000  0.3875360000000  0.5397040000000 1.0
C      1  0.4994670000000  0.4255100000000  0.4271370000000 1.0
C      1  0.5477860000000  0.5862890000000  0.5489440000000 1.0
C      1  0.5049520000000  0.4011790000000  0.5239670000000 1.0
C      1  0.5242650000000  0.5724790000000  0.4125640000000 1.0
C      1  0.4549980000000  0.5873520000000  0.4680130000000 1.0
C      1  0.5134580000000  0.5068540000000  0.6006090000000 1.0
C      1  0.4468290000000  0.4069430000000  0.5679850000000 1.0
C      1  0.5578680000000  0.4884200000000  0.4881800000000 1.0
C      1  0.5438410000000  0.5377160000000  0.3891070000000 1.0
C      1  0.5353390000000  0.4042190000000  0.4641140000000 1.0
C      1  0.4463020000000  0.5273100000000  0.4046870000000 1.0
C      1  0.4871860000000  0.4933000000000  0.4752540000000 1.0
C      1  0.4899340000000  0.4927380000000  0.6111730000000 1.0
C      1  0.5639830000000  0.5360280000000  0.4950450000000 1.0
C      1  0.4422400000000  0.4969290000000  0.5228330000000 1.0
C      1  0.5107450000000  0.4773410000000  0.5485550000000 1.0
C      1  0.5624640000000  0.5346960000000  0.5912220000000 1.0
C      1  0.5630120000000  0.5188450000000  0.4267850000000 1.0
C      1  0.5068570000000  0.4362910000000  0.4867550000000 1.0
C      1  0.4701250000000  0.4904510000000  0.5226580000000 1.0
C      1  0.5028510000000  0.3727850000000  0.5239570000000 1.0
C      1  0.5564930000000  0.4587870000000  0.5159650000000 1.0
C      1  0.4767750000000  0.3843810000000  0.4801590000000 1.0
C      1  0.5537690000000  0.4276010000000  0.4599650000000 1.0
C      1  0.4543610000000  0.5331400000000  0.5060060000000 1.0
C      1  0.5748910000000  0.5776920000000  0.5417740000000 1.0
C      1  0.4574600000000  0.3966370000000  0.5417890000000 1.0
C      1  0.5126560000000  0.5222030000000  0.4334220000000 1.0
C      1  0.5738950000000  0.5517190000000  0.4711700000000 1.0
C      1  0.4600560000000  0.5304100000000  0.5986290000000 1.0
C      1  0.6114110000000  0.4610910000000  0.4524170000000 1.0
C      1  0.4089870000000  0.4295890000000  0.4934650000000 1.0
C      1  0.6004400000000  0.5056070000000  0.5175370000000 1.0
C      1  0.4544590000000  0.4486180000000  0.4080580000000 1.0
C      1  0.4224210000000  0.5553020000000  0.5248460000000 1.0
C      1  0.5752840000000  0.5933840000000  0.4947020000000 1.0
C      1  0.5564200000000  0.5462600000000  0.4422560000000 1.0
C      1  0.4764140000000  0.6089690000000  0.4638500000000 1.0
C      1  0.5655590000000  0.4678010000000  0.4708060000000 1.0
C      1  0.4566430000000  0.5418790000000  0.4426290000000 1.0
C      1  0.5217710000000  0.4242470000000  0.5428780000000 1.0
C      1  0.4244530000000  0.4178870000000  0.5571770000000 1.0
C      1  0.4414080000000  0.4995590000000  0.4067360000000 1.0
C      1  0.4416830000000  0.4847290000000  0.5950590000000 1.0
C      1  0.4098210000000  0.5355180000000  0.4784170000000 1.0
C      1  0.4305690000000  0.4285630000000  0.5133650000000 1.0
C      1  0.4694300000000  0.4310600000000  0.4255800000000 1.0
C      1  0.4779170000000  0.5690010000000  0.4816430000000 1.0
C      1  0.5643110000000  0.4384160000000  0.4312490000000 1.0
C      1  0.4383790000000  0.5863350000000  0.5510910000000 1.0
C      1  0.4309220000000  0.5356310000000  0.4299460000000 1.0
C      1  0.4001490000000  0.4983060000000  0.4423890000000 1.0
C      1  0.3847580000000  0.5203350000000  0.4848200000000 1.0
C      1  0.5188080000000  0.5251430000000  0.5218800000000 1.0
C      1  0.5241410000000  0.5228270000000  0.4765640000000 1.0
C      1  0.4508800000000  0.5704800000000  0.5735340000000 1.0
C      1  0.5450150000000  0.4352400000000  0.5280760000000 1.0
C      1  0.5921820000000  0.4668950000000  0.5501320000000 1.0
C      1  0.5744580000000  0.4244500000000  0.4826780000000 1.0
C      1  0.5254220000000  0.3820190000000  0.5099860000000 1.0
C      1  0.5353060000000  0.6037080000000  0.4666260000000 1.0
C      1  0.5292850000000  0.5191540000000  0.5613660000000 1.0
C      1  0.4029900000000  0.4863020000000  0.5781590000000 1.0
C      1  0.5141500000000  0.4826840000000  0.5017510000000 1.0
C      1  0.4824280000000  0.5199580000000  0.4388380000000 1.0
C      1  0.5131200000000  0.5355350000000  0.5988930000000 1.0
C      1  0.4126880000000  0.5345980000000  0.5444560000000 1.0
C      1  0.4755200000000  0.5171560000000  0.4679810000000 1.0
C      1  0.4293790000000  0.5099920000000  0.5461900000000 1.0
C      1  0.5515420000000  0.4845580000000  0.5285980000000 1.0
C      1  0.5480690000000  0.6040780000000  0.4922060000000 1.0
C      1  0.5014500000000  0.4458130000000  0.5864090000000 1.0
C      1  0.5733210000000  0.4763480000000  0.4444590000000 1.0
C      1  0.4347390000000  0.5825130000000  0.4954550000000 1.0
C      1  0.5035980000000  0.5731310000000  0.4696340000000 1.0
C      1  0.4630980000000  0.4597680000000  0.5490060000000 1.0
C      1  0.6068010000000  0.5308130000000  0.5300400000000 1.0
C      1  0.6066040000000  0.4678970000000  0.4990160000000 1.0
C      1  0.5184710000000  0.5619520000000  0.4902630000000 1.0
C      1  0.4012820000000  0.5119460000000  0.5774620000000 1.0
C      1  0.4161980000000  0.5617370000000  0.4967770000000 1.0
C      1  0.4842850000000  0.4080120000000  0.4636090000000 1.0
C      1  0.5993190000000  0.5356980000000  0.5588790000000 1.0
C      1  0.4701810000000  0.5784350000000  0.5273330000000 1.0
C      1  0.5675250000000  0.4089760000000  0.5049850000000 1.0
C      1  0.4712650000000  0.5455860000000  0.4019950000000 1.0
C      1  0.4893680000000  0.4861660000000  0.4028570000000 1.0
C      1  0.4588050000000  0.4273000000000  0.4538830000000 1.0
C      1  0.5346350000000  0.5048790000000  0.4251360000000 1.0
C      1  0.5790790000000  0.4527950000000  0.4926680000000 1.0
C      1  0.5537110000000  0.4777110000000  0.5798080000000 1.0
C      1  0.4968600000000  0.4398520000000  0.5145730000000 1.0
C      1  0.4487510000000  0.3927800000000  0.4883300000000 1.0
C      1  0.5073530000000  0.5354830000000  0.4965760000000 1.0
C      1  0.3820040000000  0.4924490000000  0.4929200000000 1.0
C      1  0.5855750000000  0.5200340000000  0.5798110000000 1.0
C      1  0.4012120000000  0.4744850000000  0.5029670000000 1.0
C      1  0.4346370000000  0.4727920000000  0.4132770000000 1.0
C      1  0.5028900000000  0.5815490000000  0.5680490000000 1.0
C      1  0.5190430000000  0.4647690000000  0.4507640000000 1.0
C      1  0.4394300000000  0.5463440000000  0.5851080000000 1.0
C      1  0.4122020000000  0.4426690000000  0.5530300000000 1.0
C      1  0.4973840000000  0.4577450000000  0.3932360000000 1.0
C      1  0.5081190000000  0.6116040000000  0.5284690000000 1.0
C      1  0.4668160000000  0.4849700000000  0.5627670000000 1.0
C      1  0.4135980000000  0.4731250000000  0.4337500000000 1.0
C      1  0.5550820000000  0.5920000000000  0.4491460000000 1.0
C      1  0.5543310000000  0.5296290000000  0.5474160000000 1.0
C      1  0.5487890000000  0.5717850000000  0.4288700000000 1.0
C      1  0.4096570000000  0.4588370000000  0.5777370000000 1.0
C      1  0.5753940000000  0.5820360000000  0.4683400000000 1.0
C      1  0.4520660000000  0.5524100000000  0.5271150000000 1.0
C      1  0.4437200000000  0.5001770000000  0.5702870000000 1.0
C      1  0.5892860000000  0.4536880000000  0.4333080000000 1.0
C      1  0.5877700000000  0.5756060000000  0.5152190000000 1.0
C      1  0.4941180000000  0.5378380000000  0.3861790000000 1.0
C      1  0.5306900000000  0.4961350000000  0.4827700000000 1.0
C      1  0.4970770000000  0.4684630000000  0.5999350000000 1.0
C      1  0.6126680000000  0.4811340000000  0.4737930000000 1.0
C      1  0.5700980000000  0.4216310000000  0.5325790000000 1.0
C      1  0.4611580000000  0.5024660000000  0.6078060000000 1.0
C      1  0.5211380000000  0.5523650000000  0.3904920000000 1.0
C      1  0.5278550000000  0.4450790000000  0.4695340000000 1.0
C      1  0.4345090000000  0.4519560000000  0.5327400000000 1.0
C      1  0.5053560000000  0.5229850000000  0.5472650000000 1.0
C      1  0.4143160000000  0.4524100000000  0.4568140000000 1.0
C      1  0.5788370000000  0.4898650000000  0.5677180000000 1.0
C      1  0.5830310000000  0.5042060000000  0.4434390000000 1.0
C      1  0.4426330000000  0.5932820000000  0.5229580000000 1.0
C      1  0.4442740000000  0.4552640000000  0.4586730000000 1.0
C      1  0.3973030000000  0.4546510000000  0.4846490000000 1.0
C      1  0.5154980000000  0.4407600000000  0.4088130000000 1.0
C      1  0.4852850000000  0.5455000000000  0.5966500000000 1.0
C      1  0.4774050000000  0.5386640000000  0.4886140000000 1.0
C      1  0.3798960000000  0.5007260000000  0.4641660000000 1.0
C      1  0.4466130000000  0.5046890000000  0.4687640000000 1.0
C      1  0.4813910000000  0.5844420000000  0.5039020000000 1.0
C      1  0.4527680000000  0.4328600000000  0.5836460000000 1.0
C      1  0.4843770000000  0.4521290000000  0.4938790000000 1.0
C      1  0.5428880000000  0.4502640000000  0.4151970000000 1.0
C      1  0.4339980000000  0.5201520000000  0.4892290000000 1.0
C      1  0.5988090000000  0.5095320000000  0.4678300000000 1.0
C      1  0.5295130000000  0.4098040000000  0.5710870000000 1.0
C      1  0.5670940000000  0.5239950000000  0.3936340000000 1.0
C      1  0.4812150000000  0.6311590000000  0.4818010000000 1.0
C      1  0.5237300000000  0.4911660000000  0.5259740000000 1.0
C      1  0.4446490000000  0.4039840000000  0.5159240000000 1.0
C      1  0.4521090000000  0.4818300000000  0.4523800000000 1.0
C      1  0.5772610000000  0.4429840000000  0.5532120000000 1.0
C      1  0.4771440000000  0.4913050000000  0.4330180000000 1.0
C      1  0.4756310000000  0.5706100000000  0.4188430000000 1.0
C      1  0.5314300000000  0.5691630000000  0.5138370000000 1.0
C      1  0.6058810000000  0.4781430000000  0.5263260000000 1.0
C      1  0.5309350000000  0.4354100000000  0.5834190000000 1.0
C      1  0.4910190000000  0.6115350000000  0.5046600000000 1.0
C      1  0.5062630000000  0.4491490000000  0.5403190000000 1.0
C      1  0.5560450000000  0.4502920000000  0.5741330000000 1.0
C      1  0.4104450000000  0.5249140000000  0.4469340000000 1.0
C      1  0.5460300000000  0.5426680000000  0.5184340000000 1.0
C      1  0.4855860000000  0.4805720000000  0.4991290000000 1.0
C      1  0.4252700000000  0.4748390000000  0.5170040000000 1.0
C      1  0.4871640000000  0.4965720000000  0.5462080000000 1.0
C      1  0.5353180000000  0.5979950000000  0.5228750000000 1.0
C      1  0.5094690000000  0.4093230000000  0.4500470000000 1.0
C      1  0.4798130000000  0.5688360000000  0.5810840000000 1.0
C      1  0.5785680000000  0.5099780000000  0.4946410000000 1.0
C      1  0.5657760000000  0.5028280000000  0.5440990000000 1.0
C      1  0.5315390000000  0.5734090000000  0.5696700000000 1.0
C      1  0.6030380000000  0.5513090000000  0.5089850000000 1.0
C      1  0.5765980000000  0.5531990000000  0.5570090000000 1.0
END
