TITL C-4164233-775-141 -0.326528952504686 125000 -6566.9925851286 0 0 46 (C1) n - 1
REM
REM in /home/nfs/bkarasulu/CARBON/AIRSS/Generating-Clusters/ReaxFF-fromJPCA2015/Units_Real/with-SteepDescent/Only-C1/SD-CG/Try1-3A/FIRE-CG
REM
REM
REM
REM
REM
REM ./C.cell (11c1c37f851c82e70ff6c80c92926a4b)
REM
REM compiler GCC version 9.2.1 20190827 (Red Hat 9.2.1-1)
REM options -cpp -mtune=generic -march=x86-64 -g -O0 -fpre-include=/usr/include/finclude/math-vector-fortran.h
REM seed 180771744 70322528 -1107399028 1096565674 -966726930 288302139 1960485612 426374383 2025296454 682306848 182347524 866904731 -234478945 -2072370244 492360240 -951683331 -887130132 -2124142856 922609224 1178588985 -1728080300 1160906843 1642816127 -754489047 856967671 -64582502 1521486103 1055151511 -1346325294 2077651705 977365966 1287172788 -1260764587
REM
CELL 1.54180   50.00000   50.00000   50.00000   90.00000   90.00000   90.00000
LATT -1
SFAC C  
C      1  0.5092990000000  0.4577740000000  0.4862990000000 1.0
C      1  0.5401720000000  0.5115570000000  0.4563390000000 1.0
C      1  0.5484590000000  0.4583830000000  0.5091220000000 1.0
C      1  0.5001250000000  0.4360020000000  0.5180800000000 1.0
C      1  0.4687990000000  0.4627590000000  0.5398890000000 1.0
C      1  0.4640580000000  0.5349190000000  0.4765050000000 1.0
C      1  0.4453880000000  0.5231970000000  0.4581930000000 1.0
C      1  0.4893650000000  0.5175870000000  0.5599350000000 1.0
C      1  0.5215710000000  0.4439300000000  0.5036320000000 1.0
C      1  0.4366180000000  0.4680260000000  0.4931190000000 1.0
C      1  0.4640590000000  0.5078390000000  0.5532810000000 1.0
C      1  0.4931220000000  0.4646150000000  0.5554270000000 1.0
C      1  0.5647230000000  0.5332550000000  0.5366400000000 1.0
C      1  0.4792800000000  0.4946670000000  0.4434790000000 1.0
C      1  0.5069630000000  0.4917290000000  0.5607310000000 1.0
C      1  0.5446640000000  0.4943050000000  0.4804040000000 1.0
C      1  0.5643410000000  0.5324460000000  0.5086230000000 1.0
C      1  0.4569990000000  0.4475890000000  0.4906920000000 1.0
C      1  0.4404940000000  0.4993150000000  0.4983180000000 1.0
C      1  0.4975930000000  0.5577900000000  0.5195950000000 1.0
C      1  0.4967140000000  0.5159090000000  0.4338630000000 1.0
C      1  0.4943370000000  0.5019880000000  0.4998170000000 1.0
C      1  0.5317890000000  0.5396900000000  0.4572780000000 1.0
C      1  0.5314520000000  0.4893750000000  0.5467570000000 1.0
C      1  0.5026810000000  0.5347090000000  0.5381040000000 1.0
C      1  0.5070630000000  0.5106280000000  0.5234600000000 1.0
C      1  0.4733800000000  0.4476090000000  0.5158440000000 1.0
C      1  0.5025060000000  0.4795250000000  0.4528320000000 1.0
C      1  0.5039100000000  0.5621590000000  0.4913350000000 1.0
C      1  0.5038520000000  0.5406480000000  0.4483630000000 1.0
C      1  0.4488890000000  0.4923730000000  0.4513180000000 1.0
C      1  0.4682060000000  0.5134450000000  0.4955620000000 1.0
C      1  0.5206410000000  0.4990100000000  0.4388930000000 1.0
C      1  0.5651190000000  0.5357780000000  0.5608620000000 1.0
C      1  0.5110740000000  0.4822880000000  0.4802550000000 1.0
C      1  0.5505230000000  0.4837720000000  0.5265250000000 1.0
C      1  0.5499860000000  0.5491410000000  0.4932030000000 1.0
C      1  0.5550870000000  0.5050110000000  0.5066550000000 1.0
C      1  0.4327040000000  0.5048840000000  0.4715530000000 1.0
C      1  0.5065780000000  0.4454290000000  0.5406860000000 1.0
C      1  0.4476830000000  0.4637370000000  0.4681630000000 1.0
C      1  0.4485980000000  0.4861260000000  0.5464850000000 1.0
C      1  0.4874780000000  0.5517930000000  0.4694980000000 1.0
C      1  0.4313020000000  0.5035020000000  0.5304340000000 1.0
C      1  0.5331900000000  0.5581960000000  0.4803320000000 1.0
C      1  0.5591660000000  0.4655890000000  0.4836210000000 1.0
END
