TITL C-4164239-2837-433 4.95256786824316 125000 -12583.8830271983 0 0 85 (C1) n - 1
REM
REM in /home/nfs/bkarasulu/CARBON/AIRSS/Generating-Clusters/ReaxFF-fromJPCA2015/Units_Real/with-SteepDescent/Only-C1/SD-CG/Try1-3A/FIRE-CG
REM
REM
REM
REM
REM
REM ./C.cell (11c1c37f851c82e70ff6c80c92926a4b)
REM
REM compiler GCC version 9.2.1 20190827 (Red Hat 9.2.1-1)
REM options -cpp -mtune=generic -march=x86-64 -g -O0 -fpre-include=/usr/include/finclude/math-vector-fortran.h
REM seed -576847914 1493892837 2060322018 189806007 -862094337 -86341334 -1541629974 -1412896742 1308600240 1177832239 354052386 -1570918380 -1660750318 -769395526 -1788332994 -2010033816 553224739 -1689406431 919510449 -783388651 1710463055 -1712724062 1821359629 1510923117 1307352461 20740309 -496327062 102476896 868540299 1197261395 1927468932 10977300 -1765844721
REM
CELL 1.54180   50.00000   50.00000   50.00000   90.00000   90.00000   90.00000
LATT -1
SFAC C  
C      1  0.4473640000000  0.5217420000000  0.5682180000000 1.0
C      1  0.5513200000000  0.4607980000000  0.4503980000000 1.0
C      1  0.5441510000000  0.4871040000000  0.5337810000000 1.0
C      1  0.5343780000000  0.4534930000000  0.4710530000000 1.0
C      1  0.5360640000000  0.5207320000000  0.5011180000000 1.0
C      1  0.4532850000000  0.4496420000000  0.4978550000000 1.0
C      1  0.5143720000000  0.4444050000000  0.4262300000000 1.0
C      1  0.5849090000000  0.4759330000000  0.5027180000000 1.0
C      1  0.5100900000000  0.5612950000000  0.4534710000000 1.0
C      1  0.5549460000000  0.5362500000000  0.4574020000000 1.0
C      1  0.4756160000000  0.4904940000000  0.4522650000000 1.0
C      1  0.5201030000000  0.4755670000000  0.5175750000000 1.0
C      1  0.5171810000000  0.4117540000000  0.4866660000000 1.0
C      1  0.5832710000000  0.4514860000000  0.4852530000000 1.0
C      1  0.5355080000000  0.4899900000000  0.5641510000000 1.0
C      1  0.4376000000000  0.5137590000000  0.4448930000000 1.0
C      1  0.4407370000000  0.5402170000000  0.4503400000000 1.0
C      1  0.5272750000000  0.4747160000000  0.4889730000000 1.0
C      1  0.5453620000000  0.5571400000000  0.5409440000000 1.0
C      1  0.5397840000000  0.4284820000000  0.4815610000000 1.0
C      1  0.4145940000000  0.4742810000000  0.5072480000000 1.0
C      1  0.5335630000000  0.5743460000000  0.5184130000000 1.0
C      1  0.4964490000000  0.5231750000000  0.5550860000000 1.0
C      1  0.4719690000000  0.4726870000000  0.5787790000000 1.0
C      1  0.5346560000000  0.5007300000000  0.4794890000000 1.0
C      1  0.4617040000000  0.5692000000000  0.5552200000000 1.0
C      1  0.4594250000000  0.5486830000000  0.5738400000000 1.0
C      1  0.5262980000000  0.5631030000000  0.4914000000000 1.0
C      1  0.4453200000000  0.4872050000000  0.4425740000000 1.0
C      1  0.5400970000000  0.5005990000000  0.4261540000000 1.0
C      1  0.4825960000000  0.5935810000000  0.5120630000000 1.0
C      1  0.4307750000000  0.5253370000000  0.5138100000000 1.0
C      1  0.5787710000000  0.5248320000000  0.4732510000000 1.0
C      1  0.5057430000000  0.4882070000000  0.4090090000000 1.0
C      1  0.4469810000000  0.5132130000000  0.5379710000000 1.0
C      1  0.4824500000000  0.5189300000000  0.4604010000000 1.0
C      1  0.4316600000000  0.5522420000000  0.5003800000000 1.0
C      1  0.4898890000000  0.5221690000000  0.4884060000000 1.0
C      1  0.4776600000000  0.4723070000000  0.5005710000000 1.0
C      1  0.4233460000000  0.4645530000000  0.5317720000000 1.0
C      1  0.5672620000000  0.4692690000000  0.5254470000000 1.0
C      1  0.5957150000000  0.5410770000000  0.4845740000000 1.0
C      1  0.4810130000000  0.5022380000000  0.5079140000000 1.0
C      1  0.4589590000000  0.4983790000000  0.5781640000000 1.0
C      1  0.5125780000000  0.5381430000000  0.4989630000000 1.0
C      1  0.4907930000000  0.4180560000000  0.4808720000000 1.0
C      1  0.5646620000000  0.4321740000000  0.4965570000000 1.0
C      1  0.5241500000000  0.5162130000000  0.5620570000000 1.0
C      1  0.5369090000000  0.5588430000000  0.4627190000000 1.0
C      1  0.5343140000000  0.5701240000000  0.5655590000000 1.0
C      1  0.5405200000000  0.5114250000000  0.4518730000000 1.0
C      1  0.4473500000000  0.4460750000000  0.4695410000000 1.0
C      1  0.4315470000000  0.4687820000000  0.4610050000000 1.0
C      1  0.5339840000000  0.4840800000000  0.4105820000000 1.0
C      1  0.4956990000000  0.4625010000000  0.5275540000000 1.0
C      1  0.4780260000000  0.5146970000000  0.5339170000000 1.0
C      1  0.5064460000000  0.4333690000000  0.5292650000000 1.0
C      1  0.4715750000000  0.5437420000000  0.4494750000000 1.0
C      1  0.4993980000000  0.4662000000000  0.5888900000000 1.0
C      1  0.4231840000000  0.5382720000000  0.4746270000000 1.0
C      1  0.5399710000000  0.4593410000000  0.4235970000000 1.0
C      1  0.5191080000000  0.4742630000000  0.5800640000000 1.0
C      1  0.4990680000000  0.4148210000000  0.5074700000000 1.0
C      1  0.4886020000000  0.5441440000000  0.5744600000000 1.0
C      1  0.4726660000000  0.5817090000000  0.4846260000000 1.0
C      1  0.5502530000000  0.5183240000000  0.5261520000000 1.0
C      1  0.5083220000000  0.5861600000000  0.5215070000000 1.0
C      1  0.5451760000000  0.5308460000000  0.5489510000000 1.0
C      1  0.5601400000000  0.4410600000000  0.5245690000000 1.0
C      1  0.4784030000000  0.4395060000000  0.4632080000000 1.0
C      1  0.5818240000000  0.4926940000000  0.4785240000000 1.0
C      1  0.5772020000000  0.4692490000000  0.4616670000000 1.0
C      1  0.4712460000000  0.4699360000000  0.5497010000000 1.0
C      1  0.4355430000000  0.4388800000000  0.5191920000000 1.0
C      1  0.4953090000000  0.4382170000000  0.4363900000000 1.0
C      1  0.4699260000000  0.5836150000000  0.5359190000000 1.0
C      1  0.4806140000000  0.4881580000000  0.4184650000000 1.0
C      1  0.5094200000000  0.5651520000000  0.5804140000000 1.0
C      1  0.4151020000000  0.4834900000000  0.4813160000000 1.0
C      1  0.4204050000000  0.5126470000000  0.4900240000000 1.0
C      1  0.4831200000000  0.4685230000000  0.4719440000000 1.0
C      1  0.4838470000000  0.5690730000000  0.4580250000000 1.0
C      1  0.4458340000000  0.4814320000000  0.5417870000000 1.0
C      1  0.4531260000000  0.5690870000000  0.4945450000000 1.0
C      1  0.5344270000000  0.4316370000000  0.5372260000000 1.0
END
