TITL C-4164246-3563-133 6.07665268786016 125000 -2816.47911176971 0 0 21 (C1) n - 1
REM
REM in /home/nfs/bkarasulu/CARBON/AIRSS/Generating-Clusters/ReaxFF-fromJPCA2015/Units_Real/with-SteepDescent/Only-C1/SD-CG/Try1-3A/FIRE-CG
REM
REM
REM
REM
REM
REM ./C.cell (11c1c37f851c82e70ff6c80c92926a4b)
REM
REM compiler GCC version 9.2.1 20190827 (Red Hat 9.2.1-1)
REM options -cpp -mtune=generic -march=x86-64 -g -O0 -fpre-include=/usr/include/finclude/math-vector-fortran.h
REM seed -26036902 422526130 -2019751604 -112170463 242091078 -658184737 -630757272 -270301385 -153209757 -2124162731 1039071809 -328313327 152062453 390770123 749613722 1420893589 -2114938514 -1580966679 -351965092 -743516051 -61964007 353425179 1562006217 -1238709182 414384547 -1241584487 1510051012 1516685465 -1666452249 271344300 2129926546 -1672436498 -421978276
REM
CELL 1.54180   50.00000   50.00000   50.00000   90.00000   90.00000   90.00000
LATT -1
SFAC C  
C      1  0.5398230000000  0.4779350000000  0.5456890000000 1.0
C      1  0.4211580000000  0.5045300000000  0.4754990000000 1.0
C      1  0.5485740000000  0.5193390000000  0.5011530000000 1.0
C      1  0.5229750000000  0.5329890000000  0.4592500000000 1.0
C      1  0.5570780000000  0.5103800000000  0.5253830000000 1.0
C      1  0.4365740000000  0.4528970000000  0.4735600000000 1.0
C      1  0.5290770000000  0.4580100000000  0.5226430000000 1.0
C      1  0.5392840000000  0.5262910000000  0.4806380000000 1.0
C      1  0.4683180000000  0.4927300000000  0.4891210000000 1.0
C      1  0.4665040000000  0.5497840000000  0.5304190000000 1.0
C      1  0.4832600000000  0.4672460000000  0.4933040000000 1.0
C      1  0.5346580000000  0.5067150000000  0.5475480000000 1.0
C      1  0.5070240000000  0.4624560000000  0.5085210000000 1.0
C      1  0.4613370000000  0.4518040000000  0.4838910000000 1.0
C      1  0.4681900000000  0.5438140000000  0.5054970000000 1.0
C      1  0.4920770000000  0.5361560000000  0.4696900000000 1.0
C      1  0.5648400000000  0.4808850000000  0.5288700000000 1.0
C      1  0.4816350000000  0.5605810000000  0.4796200000000 1.0
C      1  0.5579440000000  0.4590940000000  0.5101400000000 1.0
C      1  0.4798140000000  0.5191810000000  0.4909250000000 1.0
C      1  0.4398580000000  0.4871840000000  0.4786400000000 1.0
END
