TITL C-4164242-3624-656 47.655350742577 125000 -23045.1028108583 0 0 157 (C1) n - 1
REM
REM in /home/nfs/bkarasulu/CARBON/AIRSS/Generating-Clusters/ReaxFF-fromJPCA2015/Units_Real/with-SteepDescent/Only-C1/SD-CG/Try1-3A/FIRE-CG
REM
REM
REM
REM
REM
REM ./C.cell (11c1c37f851c82e70ff6c80c92926a4b)
REM
REM compiler GCC version 9.2.1 20190827 (Red Hat 9.2.1-1)
REM options -cpp -mtune=generic -march=x86-64 -g -O0 -fpre-include=/usr/include/finclude/math-vector-fortran.h
REM seed 488558428 -368308475 -87734620 71930529 774556462 330261953 -1282012018 -792630162 234477557 380001414 588345350 -1073920479 -1415398485 -1368713669 -764825908 698793296 530750090 -736234240 -1597767993 884866641 924679065 -1465910783 -367331503 1023656917 598541102 -1207379954 -1263570501 -232565691 -1090232932 1401252012 889063544 -2015440315 1526683697
REM
CELL 1.54180   50.00000   50.00000   50.00000   90.00000   90.00000   90.00000
LATT -1
SFAC C  
C      1  0.5337100000000  0.4831930000000  0.5396060000000 1.0
C      1  0.4920240000000  0.4714560000000  0.5195410000000 1.0
C      1  0.4900950000000  0.6065550000000  0.4411100000000 1.0
C      1  0.4870220000000  0.5118540000000  0.5151790000000 1.0
C      1  0.6002510000000  0.5641670000000  0.4932890000000 1.0
C      1  0.5894850000000  0.4677200000000  0.5119240000000 1.0
C      1  0.4346960000000  0.4332040000000  0.4984010000000 1.0
C      1  0.5096930000000  0.4609310000000  0.5861920000000 1.0
C      1  0.5585500000000  0.4258950000000  0.4938060000000 1.0
C      1  0.5115600000000  0.4047330000000  0.5216990000000 1.0
C      1  0.5253110000000  0.5457640000000  0.5884040000000 1.0
C      1  0.5138820000000  0.5005560000000  0.4553560000000 1.0
C      1  0.5164250000000  0.5881940000000  0.5455560000000 1.0
C      1  0.5572440000000  0.5461350000000  0.5028630000000 1.0
C      1  0.5706510000000  0.4307270000000  0.5328430000000 1.0
C      1  0.4128590000000  0.5133970000000  0.5690060000000 1.0
C      1  0.5892820000000  0.5151330000000  0.5277260000000 1.0
C      1  0.4569260000000  0.5035680000000  0.5926960000000 1.0
C      1  0.4942720000000  0.4517250000000  0.5404570000000 1.0
C      1  0.5321700000000  0.5367870000000  0.5002600000000 1.0
C      1  0.5449400000000  0.4126340000000  0.4722420000000 1.0
C      1  0.4951800000000  0.5630580000000  0.4942830000000 1.0
C      1  0.4193800000000  0.4957270000000  0.4290140000000 1.0
C      1  0.5603300000000  0.5128570000000  0.5879460000000 1.0
C      1  0.4612310000000  0.4767990000000  0.5054010000000 1.0
C      1  0.5230360000000  0.4975120000000  0.5977680000000 1.0
C      1  0.5614040000000  0.5172150000000  0.4137340000000 1.0
C      1  0.4672750000000  0.5087270000000  0.4342720000000 1.0
C      1  0.4824340000000  0.5039070000000  0.5435540000000 1.0
C      1  0.4494760000000  0.5794630000000  0.4693190000000 1.0
C      1  0.4406430000000  0.5694530000000  0.5355360000000 1.0
C      1  0.4231120000000  0.5664690000000  0.4672500000000 1.0
C      1  0.5585940000000  0.4896840000000  0.5530920000000 1.0
C      1  0.4062730000000  0.5447260000000  0.4623140000000 1.0
C      1  0.5921750000000  0.4989040000000  0.4581780000000 1.0
C      1  0.4178920000000  0.5169730000000  0.4521800000000 1.0
C      1  0.4564310000000  0.5526800000000  0.4477430000000 1.0
C      1  0.4799380000000  0.5646040000000  0.5760190000000 1.0
C      1  0.4124810000000  0.4696460000000  0.4731500000000 1.0
C      1  0.5129330000000  0.5036140000000  0.5109670000000 1.0
C      1  0.5212290000000  0.4187970000000  0.5620100000000 1.0
C      1  0.4576900000000  0.4214340000000  0.4380360000000 1.0
C      1  0.4624320000000  0.5908200000000  0.5407150000000 1.0
C      1  0.5575960000000  0.5700330000000  0.4686220000000 1.0
C      1  0.6093040000000  0.5449790000000  0.4772050000000 1.0
C      1  0.4698150000000  0.4063840000000  0.5351170000000 1.0
C      1  0.4711610000000  0.3974330000000  0.5063950000000 1.0
C      1  0.4771920000000  0.4727260000000  0.4625380000000 1.0
C      1  0.4578130000000  0.4480660000000  0.4986170000000 1.0
C      1  0.5812790000000  0.5794070000000  0.5085260000000 1.0
C      1  0.4594800000000  0.5309000000000  0.5419450000000 1.0
C      1  0.3940500000000  0.5112820000000  0.4959560000000 1.0
C      1  0.4049480000000  0.5240650000000  0.5427770000000 1.0
C      1  0.5153190000000  0.4668380000000  0.4961010000000 1.0
C      1  0.4409130000000  0.5194510000000  0.5232070000000 1.0
C      1  0.4440760000000  0.4370050000000  0.5648320000000 1.0
C      1  0.5872190000000  0.4933010000000  0.5469070000000 1.0
C      1  0.4283660000000  0.5328370000000  0.5854390000000 1.0
C      1  0.5698160000000  0.4719050000000  0.4202140000000 1.0
C      1  0.5171810000000  0.5913430000000  0.4378610000000 1.0
C      1  0.5662550000000  0.5350900000000  0.5687080000000 1.0
C      1  0.4625500000000  0.5538850000000  0.5238070000000 1.0
C      1  0.4735400000000  0.5174460000000  0.4898530000000 1.0
C      1  0.4750190000000  0.5586270000000  0.4262920000000 1.0
C      1  0.5414110000000  0.5739200000000  0.5489580000000 1.0
C      1  0.5840410000000  0.4962320000000  0.5058500000000 1.0
C      1  0.5301940000000  0.5757970000000  0.4576220000000 1.0
C      1  0.5574980000000  0.4548070000000  0.5763840000000 1.0
C      1  0.4912800000000  0.5586010000000  0.5228910000000 1.0
C      1  0.4652340000000  0.4080080000000  0.4613140000000 1.0
C      1  0.5056460000000  0.5398100000000  0.3914030000000 1.0
C      1  0.5314200000000  0.5973850000000  0.4993730000000 1.0
C      1  0.4615020000000  0.4835730000000  0.5467060000000 1.0
C      1  0.5775910000000  0.4465830000000  0.5561840000000 1.0
C      1  0.4443700000000  0.4913460000000  0.5255150000000 1.0
C      1  0.5065070000000  0.5429880000000  0.5420440000000 1.0
C      1  0.5276970000000  0.4528910000000  0.4462470000000 1.0
C      1  0.5431980000000  0.5344340000000  0.4279970000000 1.0
C      1  0.4056270000000  0.4974360000000  0.4730090000000 1.0
C      1  0.4525520000000  0.4612290000000  0.4428930000000 1.0
C      1  0.4872810000000  0.4912730000000  0.3898560000000 1.0
C      1  0.4607770000000  0.5856730000000  0.4991070000000 1.0
C      1  0.4930580000000  0.4076630000000  0.5590690000000 1.0
C      1  0.4916800000000  0.4469670000000  0.4155040000000 1.0
C      1  0.4166710000000  0.5517690000000  0.5357140000000 1.0
C      1  0.5491800000000  0.4617280000000  0.4653350000000 1.0
C      1  0.5146090000000  0.5812360000000  0.4824900000000 1.0
C      1  0.5564810000000  0.4911500000000  0.4029670000000 1.0
C      1  0.5326430000000  0.4729240000000  0.4015420000000 1.0
C      1  0.5346030000000  0.5457500000000  0.4015700000000 1.0
C      1  0.5008300000000  0.5436250000000  0.5720930000000 1.0
C      1  0.5590000000000  0.5879150000000  0.4918200000000 1.0
C      1  0.4485110000000  0.5256630000000  0.4494740000000 1.0
C      1  0.5496810000000  0.4876630000000  0.4767490000000 1.0
C      1  0.5226260000000  0.4933360000000  0.4838380000000 1.0
C      1  0.5245500000000  0.5254480000000  0.5267850000000 1.0
C      1  0.5190840000000  0.5364780000000  0.4740590000000 1.0
C      1  0.5446490000000  0.4563610000000  0.4217200000000 1.0
C      1  0.4130560000000  0.4646330000000  0.5490770000000 1.0
C      1  0.4421140000000  0.4807010000000  0.5875510000000 1.0
C      1  0.5719000000000  0.5064140000000  0.4795730000000 1.0
C      1  0.5114120000000  0.4967590000000  0.5534370000000 1.0
C      1  0.5694070000000  0.5442700000000  0.4769020000000 1.0
C      1  0.4222470000000  0.4365150000000  0.5498160000000 1.0
C      1  0.4985340000000  0.4537850000000  0.4760090000000 1.0
C      1  0.5100260000000  0.4880390000000  0.5805280000000 1.0
C      1  0.5357850000000  0.5217470000000  0.6020890000000 1.0
C      1  0.4690220000000  0.5274020000000  0.5902350000000 1.0
C      1  0.5881240000000  0.4735890000000  0.4426620000000 1.0
C      1  0.4644720000000  0.6012600000000  0.4511510000000 1.0
C      1  0.5464270000000  0.5574500000000  0.5719270000000 1.0
C      1  0.4242530000000  0.5408290000000  0.5097740000000 1.0
C      1  0.4955040000000  0.4127190000000  0.4550090000000 1.0
C      1  0.4010990000000  0.5393730000000  0.4906150000000 1.0
C      1  0.5435420000000  0.4355460000000  0.5218360000000 1.0
C      1  0.5265610000000  0.5251190000000  0.4486560000000 1.0
C      1  0.4349120000000  0.5032830000000  0.4064940000000 1.0
C      1  0.6073260000000  0.5217580000000  0.4636190000000 1.0
C      1  0.4655260000000  0.5114190000000  0.4039190000000 1.0
C      1  0.4187660000000  0.4841300000000  0.5707780000000 1.0
C      1  0.4841240000000  0.4195080000000  0.5833370000000 1.0
C      1  0.5545230000000  0.5295720000000  0.3894790000000 1.0
C      1  0.4623020000000  0.4439770000000  0.4211440000000 1.0
C      1  0.4932200000000  0.4283120000000  0.5208850000000 1.0
C      1  0.5111480000000  0.5993840000000  0.5200610000000 1.0
C      1  0.4516200000000  0.4089170000000  0.4883070000000 1.0
C      1  0.5001680000000  0.3941510000000  0.4976160000000 1.0
C      1  0.3994650000000  0.5019580000000  0.5228460000000 1.0
C      1  0.4862990000000  0.5852630000000  0.5570290000000 1.0
C      1  0.4656980000000  0.4911290000000  0.4817150000000 1.0
C      1  0.5629440000000  0.4839020000000  0.5811970000000 1.0
C      1  0.5145300000000  0.4035070000000  0.4736200000000 1.0
C      1  0.4065390000000  0.4729460000000  0.5223230000000 1.0
C      1  0.4553970000000  0.5455480000000  0.5717610000000 1.0
C      1  0.5309470000000  0.4428570000000  0.5769720000000 1.0
C      1  0.5934650000000  0.4657500000000  0.5406830000000 1.0
C      1  0.5771330000000  0.5378580000000  0.5423920000000 1.0
C      1  0.5344550000000  0.4119570000000  0.5371230000000 1.0
C      1  0.5807900000000  0.4398290000000  0.5066090000000 1.0
C      1  0.4783770000000  0.5985880000000  0.5167100000000 1.0
C      1  0.4150290000000  0.4555040000000  0.4986880000000 1.0
C      1  0.4945280000000  0.5772640000000  0.4382670000000 1.0
C      1  0.4873720000000  0.4504300000000  0.5714050000000 1.0
C      1  0.4594030000000  0.4620980000000  0.5688200000000 1.0
C      1  0.4446770000000  0.4174780000000  0.5460630000000 1.0
C      1  0.4841890000000  0.4373200000000  0.4936380000000 1.0
C      1  0.5029030000000  0.5129670000000  0.3847520000000 1.0
C      1  0.5646260000000  0.4227660000000  0.4519960000000 1.0
C      1  0.5654050000000  0.5626500000000  0.5290700000000 1.0
C      1  0.4798790000000  0.5409490000000  0.4043620000000 1.0
C      1  0.5033760000000  0.4690780000000  0.4001230000000 1.0
C      1  0.4901740000000  0.5393340000000  0.4784050000000 1.0
C      1  0.4888410000000  0.4928330000000  0.4456770000000 1.0
C      1  0.5325420000000  0.4629780000000  0.5191720000000 1.0
C      1  0.4254120000000  0.4707460000000  0.4459790000000 1.0
C      1  0.5752500000000  0.4510830000000  0.4568280000000 1.0
C      1  0.5060420000000  0.4348060000000  0.4376520000000 1.0
END
