TITL C-4164244-2836-374 16.2733483265281 125000 -18114.5563199893 0 0 122 (C1) n - 1
REM
REM in /home/nfs/bkarasulu/CARBON/AIRSS/Generating-Clusters/ReaxFF-fromJPCA2015/Units_Real/with-SteepDescent/Only-C1/SD-CG/Try1-3A/FIRE-CG
REM
REM
REM
REM
REM
REM ./C.cell (11c1c37f851c82e70ff6c80c92926a4b)
REM
REM compiler GCC version 9.2.1 20190827 (Red Hat 9.2.1-1)
REM options -cpp -mtune=generic -march=x86-64 -g -O0 -fpre-include=/usr/include/finclude/math-vector-fortran.h
REM seed -1301512511 -2060680182 1592034881 -819862940 -1798486366 -316458505 -1839219719 1195699776 -961382176 -830677832 -2013622358 786660 133733770 626022303 110366878 -1226446796 928775831 -1010200717 358305881 -1032031015 -1741924393 542177799 -1049871283 -1967624110 1553666376 1629432722 -624892711 1509965720 -780898343 -1978472557 384745150 773011734 -1514409004
REM
CELL 1.54180   50.00000   50.00000   50.00000   90.00000   90.00000   90.00000
LATT -1
SFAC C  
C      1  0.4686010000000  0.5215460000000  0.4781890000000 1.0
C      1  0.4892430000000  0.4932370000000  0.4733370000000 1.0
C      1  0.5741580000000  0.4857750000000  0.5300150000000 1.0
C      1  0.4631490000000  0.4548340000000  0.4341860000000 1.0
C      1  0.5299670000000  0.5407000000000  0.4706590000000 1.0
C      1  0.4935550000000  0.5147320000000  0.5161630000000 1.0
C      1  0.4698730000000  0.5302860000000  0.5774750000000 1.0
C      1  0.5365070000000  0.5510940000000  0.4432110000000 1.0
C      1  0.5877930000000  0.4947430000000  0.4720330000000 1.0
C      1  0.5280010000000  0.5817300000000  0.5301530000000 1.0
C      1  0.4139580000000  0.5132020000000  0.4649870000000 1.0
C      1  0.4646700000000  0.4482310000000  0.4631460000000 1.0
C      1  0.4428530000000  0.5769350000000  0.5155140000000 1.0
C      1  0.5528690000000  0.5929400000000  0.4836500000000 1.0
C      1  0.4856280000000  0.4981730000000  0.4075450000000 1.0
C      1  0.4571270000000  0.5002590000000  0.4157520000000 1.0
C      1  0.5301390000000  0.4724860000000  0.4770750000000 1.0
C      1  0.4990410000000  0.4813150000000  0.4476080000000 1.0
C      1  0.4676470000000  0.4152330000000  0.5014130000000 1.0
C      1  0.4789230000000  0.4355090000000  0.5588100000000 1.0
C      1  0.4950820000000  0.4551500000000  0.5714340000000 1.0
C      1  0.5122020000000  0.5660480000000  0.4374210000000 1.0
C      1  0.4111730000000  0.4718150000000  0.5381040000000 1.0
C      1  0.5436420000000  0.5389420000000  0.4952610000000 1.0
C      1  0.5018210000000  0.4265560000000  0.4329300000000 1.0
C      1  0.4526500000000  0.5280040000000  0.4256550000000 1.0
C      1  0.5838110000000  0.5082720000000  0.5472950000000 1.0
C      1  0.5359700000000  0.5710090000000  0.5559450000000 1.0
C      1  0.4220470000000  0.5207450000000  0.5367600000000 1.0
C      1  0.4730870000000  0.4691830000000  0.4815750000000 1.0
C      1  0.5696440000000  0.4510680000000  0.4940910000000 1.0
C      1  0.4984440000000  0.5215170000000  0.4197850000000 1.0
C      1  0.5007750000000  0.4820870000000  0.5193430000000 1.0
C      1  0.5518680000000  0.5319750000000  0.4254610000000 1.0
C      1  0.4512590000000  0.5548300000000  0.5394570000000 1.0
C      1  0.4967570000000  0.4185040000000  0.5426180000000 1.0
C      1  0.5903670000000  0.4733370000000  0.4914030000000 1.0
C      1  0.5300790000000  0.5943730000000  0.4727090000000 1.0
C      1  0.4031200000000  0.5005370000000  0.5347120000000 1.0
C      1  0.5195500000000  0.4956310000000  0.4829380000000 1.0
C      1  0.5464710000000  0.4941020000000  0.5250890000000 1.0
C      1  0.5223550000000  0.4550100000000  0.5563100000000 1.0
C      1  0.4874270000000  0.4836000000000  0.5431160000000 1.0
C      1  0.5908380000000  0.5430420000000  0.5002710000000 1.0
C      1  0.5721450000000  0.5783070000000  0.4929500000000 1.0
C      1  0.3899420000000  0.5159920000000  0.4872730000000 1.0
C      1  0.4127430000000  0.4511330000000  0.4860460000000 1.0
C      1  0.5341600000000  0.4844940000000  0.4144960000000 1.0
C      1  0.5562600000000  0.5725770000000  0.5352950000000 1.0
C      1  0.5948360000000  0.4928510000000  0.5117510000000 1.0
C      1  0.4442180000000  0.4757330000000  0.4268790000000 1.0
C      1  0.5280690000000  0.4732860000000  0.5247920000000 1.0
C      1  0.5015090000000  0.5057140000000  0.5560900000000 1.0
C      1  0.4924250000000  0.4116950000000  0.4566300000000 1.0
C      1  0.5194680000000  0.4139130000000  0.4999880000000 1.0
C      1  0.4271520000000  0.5176180000000  0.5632950000000 1.0
C      1  0.4261810000000  0.4887910000000  0.4650460000000 1.0
C      1  0.4621080000000  0.5531370000000  0.4373510000000 1.0
C      1  0.4864020000000  0.4791170000000  0.5866050000000 1.0
C      1  0.5421880000000  0.4645770000000  0.5763700000000 1.0
C      1  0.4656690000000  0.5186540000000  0.5089810000000 1.0
C      1  0.5398810000000  0.4215960000000  0.5211950000000 1.0
C      1  0.5696600000000  0.4662370000000  0.5668880000000 1.0
C      1  0.5002210000000  0.5673940000000  0.4849270000000 1.0
C      1  0.3785500000000  0.5388570000000  0.4919130000000 1.0
C      1  0.4320980000000  0.4661580000000  0.5573470000000 1.0
C      1  0.3905430000000  0.4941790000000  0.5087280000000 1.0
C      1  0.4478230000000  0.5827720000000  0.4870550000000 1.0
C      1  0.5076120000000  0.4992140000000  0.5852440000000 1.0
C      1  0.4643110000000  0.4706390000000  0.5326320000000 1.0
C      1  0.4032180000000  0.4681030000000  0.5091470000000 1.0
C      1  0.4361080000000  0.5272770000000  0.4699530000000 1.0
C      1  0.5780840000000  0.5540740000000  0.5258920000000 1.0
C      1  0.5673400000000  0.5312990000000  0.5398150000000 1.0
C      1  0.4438120000000  0.5313460000000  0.5231860000000 1.0
C      1  0.5434490000000  0.5113320000000  0.4053790000000 1.0
C      1  0.5656870000000  0.4360050000000  0.5213420000000 1.0
C      1  0.4457770000000  0.5397110000000  0.5661470000000 1.0
C      1  0.4645090000000  0.5934320000000  0.5110180000000 1.0
C      1  0.5207630000000  0.5502570000000  0.5721860000000 1.0
C      1  0.5374930000000  0.5297050000000  0.5814020000000 1.0
C      1  0.5347440000000  0.4886340000000  0.5911800000000 1.0
C      1  0.5265280000000  0.4339250000000  0.4484950000000 1.0
C      1  0.5560260000000  0.5092090000000  0.5883910000000 1.0
C      1  0.5079090000000  0.5841670000000  0.4601860000000 1.0
C      1  0.5312390000000  0.5123770000000  0.4616640000000 1.0
C      1  0.4529670000000  0.4451110000000  0.5455790000000 1.0
C      1  0.4906140000000  0.5481570000000  0.5671540000000 1.0
C      1  0.4692480000000  0.4208800000000  0.4724470000000 1.0
C      1  0.5123880000000  0.5234870000000  0.5356230000000 1.0
C      1  0.4306650000000  0.4369100000000  0.5008510000000 1.0
C      1  0.5743850000000  0.4918480000000  0.4452480000000 1.0
C      1  0.5676260000000  0.5511180000000  0.4841310000000 1.0
C      1  0.5151080000000  0.5033160000000  0.4362780000000 1.0
C      1  0.5574850000000  0.4451710000000  0.4423730000000 1.0
C      1  0.4399280000000  0.4912120000000  0.5709040000000 1.0
C      1  0.5760310000000  0.4950630000000  0.5715080000000 1.0
C      1  0.5750320000000  0.4545330000000  0.5408450000000 1.0
C      1  0.5382270000000  0.4635480000000  0.4996070000000 1.0
C      1  0.5612870000000  0.5170900000000  0.4486930000000 1.0
C      1  0.5417130000000  0.5231890000000  0.5234990000000 1.0
C      1  0.4797780000000  0.5624720000000  0.5447730000000 1.0
C      1  0.5059810000000  0.5724340000000  0.5151310000000 1.0
C      1  0.4469620000000  0.4270430000000  0.5190030000000 1.0
C      1  0.4797250000000  0.4644730000000  0.5090980000000 1.0
C      1  0.4846340000000  0.5449280000000  0.4812710000000 1.0
C      1  0.5575030000000  0.4720840000000  0.4317870000000 1.0
C      1  0.4481850000000  0.5684140000000  0.4607830000000 1.0
C      1  0.4212360000000  0.4609380000000  0.4585030000000 1.0
C      1  0.4301260000000  0.5498360000000  0.4694750000000 1.0
C      1  0.4874550000000  0.5848050000000  0.5284650000000 1.0
C      1  0.4190130000000  0.4819920000000  0.4399030000000 1.0
C      1  0.5943640000000  0.5147510000000  0.4935720000000 1.0
C      1  0.5175940000000  0.4135500000000  0.4708900000000 1.0
C      1  0.5160750000000  0.4604220000000  0.4571470000000 1.0
C      1  0.4940140000000  0.4115400000000  0.5142310000000 1.0
C      1  0.4653870000000  0.4992590000000  0.5815240000000 1.0
C      1  0.5243820000000  0.4269990000000  0.5449260000000 1.0
C      1  0.5707990000000  0.4371340000000  0.4661490000000 1.0
C      1  0.4888100000000  0.4500820000000  0.4199220000000 1.0
C      1  0.4901610000000  0.5485920000000  0.4285830000000 1.0
C      1  0.5021120000000  0.4738340000000  0.4083750000000 1.0
END
