TITL C-4164240-4114-453 189.287286180233 125000 -25969.386060777 0 0 176 (C1) n - 1
REM
REM in /home/nfs/bkarasulu/CARBON/AIRSS/Generating-Clusters/ReaxFF-fromJPCA2015/Units_Real/with-SteepDescent/Only-C1/SD-CG/Try1-3A/FIRE-CG
REM
REM
REM
REM
REM
REM ./C.cell (11c1c37f851c82e70ff6c80c92926a4b)
REM
REM compiler GCC version 9.2.1 20190827 (Red Hat 9.2.1-1)
REM options -cpp -mtune=generic -march=x86-64 -g -O0 -fpre-include=/usr/include/finclude/math-vector-fortran.h
REM seed -412367360 929991442 909975782 -655477321 487489039 1842511952 -1853684161 1115879610 154796946 1794213166 2109663478 764386698 393886851 1686767992 -1136783962 1666974883 504006040 -1458419155 -645323341 593786812 1493701523 -790926724 908293156 1913781081 -276869423 1162503865 381380978 -1445099512 -1467997471 -124390640 -182848632 -1455622473 1741993127
REM
CELL 1.54180   50.00000   50.00000   50.00000   90.00000   90.00000   90.00000
LATT -1
SFAC C  
C      1  0.4113680000000  0.5282090000000  0.5274510000000 1.0
C      1  0.4390000000000  0.5569890000000  0.4857530000000 1.0
C      1  0.5324230000000  0.5642360000000  0.4047940000000 1.0
C      1  0.5553440000000  0.5727610000000  0.5503430000000 1.0
C      1  0.4354430000000  0.4306070000000  0.5379760000000 1.0
C      1  0.5316050000000  0.5539980000000  0.5534530000000 1.0
C      1  0.5618020000000  0.4459160000000  0.5807690000000 1.0
C      1  0.5807770000000  0.5583670000000  0.5500090000000 1.0
C      1  0.4753560000000  0.5215510000000  0.4071360000000 1.0
C      1  0.5584520000000  0.5914350000000  0.4879080000000 1.0
C      1  0.4282220000000  0.4560020000000  0.4981780000000 1.0
C      1  0.4179110000000  0.5232670000000  0.4209450000000 1.0
C      1  0.4641120000000  0.5527800000000  0.5323810000000 1.0
C      1  0.5462970000000  0.5851520000000  0.4375240000000 1.0
C      1  0.5062710000000  0.4648260000000  0.5557610000000 1.0
C      1  0.4694010000000  0.4963390000000  0.3924150000000 1.0
C      1  0.4402460000000  0.5783400000000  0.5646880000000 1.0
C      1  0.3902510000000  0.5426240000000  0.4838590000000 1.0
C      1  0.4957540000000  0.5904380000000  0.4286290000000 1.0
C      1  0.5779480000000  0.5383790000000  0.4531020000000 1.0
C      1  0.5151690000000  0.5997580000000  0.4746380000000 1.0
C      1  0.5181100000000  0.4268950000000  0.4104840000000 1.0
C      1  0.4412620000000  0.5144070000000  0.5886100000000 1.0
C      1  0.5971670000000  0.4524940000000  0.4806070000000 1.0
C      1  0.5278360000000  0.5202870000000  0.4682320000000 1.0
C      1  0.4805870000000  0.4493950000000  0.5970490000000 1.0
C      1  0.4921630000000  0.5062230000000  0.6010440000000 1.0
C      1  0.4092270000000  0.4676720000000  0.4786220000000 1.0
C      1  0.4629100000000  0.4793990000000  0.5625140000000 1.0
C      1  0.5425530000000  0.5015340000000  0.5480360000000 1.0
C      1  0.3984680000000  0.4923720000000  0.4900070000000 1.0
C      1  0.5476580000000  0.4238300000000  0.4399710000000 1.0
C      1  0.5618960000000  0.5288820000000  0.5882720000000 1.0
C      1  0.4682480000000  0.4072300000000  0.4413350000000 1.0
C      1  0.4945010000000  0.5356650000000  0.6069430000000 1.0
C      1  0.5111110000000  0.4570920000000  0.4731100000000 1.0
C      1  0.4006910000000  0.5496130000000  0.5092800000000 1.0
C      1  0.4696360000000  0.4831350000000  0.5333550000000 1.0
C      1  0.5188060000000  0.4944250000000  0.4133440000000 1.0
C      1  0.4772820000000  0.5312840000000  0.4838590000000 1.0
C      1  0.4131080000000  0.5112700000000  0.5764610000000 1.0
C      1  0.4258220000000  0.3996860000000  0.4909170000000 1.0
C      1  0.5599740000000  0.4916910000000  0.4187810000000 1.0
C      1  0.4242060000000  0.5552610000000  0.5727830000000 1.0
C      1  0.5638890000000  0.4270990000000  0.5582500000000 1.0
C      1  0.5239790000000  0.5877070000000  0.4185880000000 1.0
C      1  0.5280060000000  0.5223680000000  0.5598040000000 1.0
C      1  0.5305740000000  0.5205410000000  0.4982110000000 1.0
C      1  0.5839860000000  0.4393430000000  0.5404700000000 1.0
C      1  0.5065390000000  0.4200760000000  0.5682460000000 1.0
C      1  0.4023260000000  0.4995590000000  0.5181140000000 1.0
C      1  0.4501430000000  0.5622160000000  0.5875600000000 1.0
C      1  0.4862740000000  0.5061830000000  0.4723120000000 1.0
C      1  0.4371840000000  0.5404730000000  0.4064660000000 1.0
C      1  0.5314190000000  0.4172650000000  0.4950520000000 1.0
C      1  0.4989520000000  0.5760680000000  0.5831810000000 1.0
C      1  0.5894550000000  0.5201400000000  0.5262090000000 1.0
C      1  0.5717600000000  0.4674670000000  0.4265530000000 1.0
C      1  0.5399790000000  0.4556910000000  0.5984130000000 1.0
C      1  0.5183260000000  0.4101670000000  0.4313810000000 1.0
C      1  0.4411380000000  0.4128690000000  0.5152140000000 1.0
C      1  0.5099910000000  0.4997890000000  0.4597880000000 1.0
C      1  0.4425010000000  0.4875890000000  0.4945060000000 1.0
C      1  0.4114130000000  0.5333240000000  0.5585490000000 1.0
C      1  0.5170310000000  0.4742390000000  0.3923820000000 1.0
C      1  0.4921530000000  0.5977520000000  0.4571490000000 1.0
C      1  0.4949150000000  0.4819310000000  0.5181550000000 1.0
C      1  0.5466480000000  0.4086650000000  0.5427000000000 1.0
C      1  0.5913150000000  0.4957080000000  0.4530850000000 1.0
C      1  0.5183170000000  0.6089980000000  0.5465100000000 1.0
C      1  0.4718910000000  0.4838220000000  0.4605040000000 1.0
C      1  0.5988190000000  0.5408760000000  0.4730600000000 1.0
C      1  0.4561250000000  0.5079910000000  0.5636380000000 1.0
C      1  0.4543850000000  0.5024350000000  0.4470450000000 1.0
C      1  0.4382240000000  0.4613100000000  0.5792330000000 1.0
C      1  0.5022940000000  0.5542970000000  0.4483210000000 1.0
C      1  0.5864420000000  0.4243500000000  0.4782980000000 1.0
C      1  0.5727560000000  0.4735090000000  0.5786870000000 1.0
C      1  0.3936360000000  0.5160200000000  0.4716980000000 1.0
C      1  0.4550480000000  0.5785090000000  0.5397100000000 1.0
C      1  0.4039230000000  0.4849040000000  0.5663580000000 1.0
C      1  0.5318400000000  0.4489620000000  0.3994810000000 1.0
C      1  0.6064690000000  0.4973550000000  0.4974020000000 1.0
C      1  0.5436910000000  0.5118010000000  0.4114160000000 1.0
C      1  0.5720250000000  0.4142320000000  0.4550150000000 1.0
C      1  0.4774280000000  0.4287010000000  0.4825800000000 1.0
C      1  0.5156370000000  0.5950850000000  0.5052720000000 1.0
C      1  0.5282960000000  0.5437620000000  0.4516920000000 1.0
C      1  0.5887990000000  0.5555820000000  0.4969020000000 1.0
C      1  0.6032010000000  0.4687300000000  0.5036750000000 1.0
C      1  0.4913770000000  0.5501460000000  0.5236770000000 1.0
C      1  0.5679410000000  0.5119960000000  0.4592660000000 1.0
C      1  0.5447670000000  0.5130730000000  0.6019480000000 1.0
C      1  0.4527440000000  0.4325460000000  0.4980860000000 1.0
C      1  0.5542730000000  0.4458700000000  0.4182160000000 1.0
C      1  0.5345350000000  0.4410780000000  0.4669280000000 1.0
C      1  0.4463700000000  0.5700260000000  0.4624380000000 1.0
C      1  0.4910430000000  0.4566130000000  0.4364320000000 1.0
C      1  0.5417920000000  0.5970840000000  0.4638220000000 1.0
C      1  0.4504730000000  0.4266030000000  0.4463110000000 1.0
C      1  0.4120660000000  0.4632280000000  0.5825380000000 1.0
C      1  0.5497130000000  0.4842360000000  0.5941360000000 1.0
C      1  0.5191390000000  0.4020120000000  0.5485500000000 1.0
C      1  0.4881330000000  0.4734400000000  0.3901050000000 1.0
C      1  0.5555640000000  0.5554490000000  0.4381710000000 1.0
C      1  0.5792710000000  0.5350100000000  0.5679640000000 1.0
C      1  0.4514190000000  0.6176430000000  0.5098090000000 1.0
C      1  0.4182710000000  0.4968120000000  0.4070670000000 1.0
C      1  0.4480810000000  0.4580670000000  0.4109720000000 1.0
C      1  0.5195520000000  0.4354260000000  0.5894660000000 1.0
C      1  0.5470670000000  0.4777520000000  0.4931420000000 1.0
C      1  0.4727770000000  0.4447160000000  0.4570900000000 1.0
C      1  0.4650640000000  0.5481970000000  0.3998840000000 1.0
C      1  0.4589740000000  0.4311650000000  0.5560290000000 1.0
C      1  0.5113250000000  0.5047930000000  0.5165830000000 1.0
C      1  0.4204380000000  0.4540020000000  0.5267470000000 1.0
C      1  0.4437770000000  0.4837500000000  0.3976700000000 1.0
C      1  0.5202020000000  0.4382870000000  0.5104860000000 1.0
C      1  0.5493790000000  0.4034350000000  0.5135520000000 1.0
C      1  0.4723400000000  0.5812410000000  0.4710930000000 1.0
C      1  0.5481440000000  0.5424710000000  0.4107060000000 1.0
C      1  0.4647100000000  0.5261370000000  0.4345120000000 1.0
C      1  0.5928740000000  0.5491160000000  0.5249500000000 1.0
C      1  0.5234980000000  0.5364620000000  0.6013900000000 1.0
C      1  0.4831980000000  0.5158620000000  0.5570110000000 1.0
C      1  0.4556130000000  0.4377340000000  0.5839480000000 1.0
C      1  0.5875340000000  0.4827350000000  0.5550750000000 1.0
C      1  0.5828740000000  0.4668770000000  0.4573920000000 1.0
C      1  0.4513620000000  0.4999500000000  0.5193560000000 1.0
C      1  0.4511500000000  0.5349630000000  0.4956230000000 1.0
C      1  0.5390290000000  0.4599830000000  0.5173830000000 1.0
C      1  0.5590930000000  0.5048500000000  0.4900370000000 1.0
C      1  0.5670870000000  0.4427410000000  0.5172500000000 1.0
C      1  0.5975550000000  0.4650790000000  0.5340010000000 1.0
C      1  0.5824360000000  0.5064430000000  0.5056060000000 1.0
C      1  0.5731850000000  0.4174310000000  0.5044350000000 1.0
C      1  0.4111830000000  0.4818010000000  0.4292710000000 1.0
C      1  0.4351480000000  0.4053120000000  0.4643140000000 1.0
C      1  0.4808500000000  0.5650600000000  0.4241650000000 1.0
C      1  0.4673610000000  0.6044730000000  0.5255350000000 1.0
C      1  0.5043520000000  0.5108280000000  0.5731370000000 1.0
C      1  0.4330020000000  0.4462540000000  0.4327770000000 1.0
C      1  0.5527680000000  0.4642280000000  0.4692920000000 1.0
C      1  0.4919170000000  0.4032530000000  0.4762550000000 1.0
C      1  0.4951440000000  0.4281720000000  0.5204640000000 1.0
C      1  0.4894680000000  0.4719280000000  0.5784990000000 1.0
C      1  0.6082090000000  0.5123550000000  0.4712050000000 1.0
C      1  0.4921380000000  0.4666320000000  0.4929690000000 1.0
C      1  0.4889170000000  0.4374300000000  0.5488710000000 1.0
C      1  0.4073690000000  0.4780550000000  0.5365160000000 1.0
C      1  0.4780600000000  0.5568150000000  0.5930220000000 1.0
C      1  0.4983450000000  0.6092800000000  0.5252020000000 1.0
C      1  0.4150330000000  0.5192140000000  0.4519930000000 1.0
C      1  0.5293070000000  0.4762410000000  0.5431680000000 1.0
C      1  0.5123780000000  0.3958560000000  0.4966200000000 1.0
C      1  0.4946370000000  0.5218770000000  0.5308500000000 1.0
C      1  0.5235960000000  0.5584750000000  0.5819300000000 1.0
C      1  0.5369790000000  0.5492290000000  0.5059050000000 1.0
C      1  0.5449890000000  0.6027600000000  0.5110020000000 1.0
C      1  0.5602230000000  0.5626520000000  0.4938880000000 1.0
C      1  0.4583990000000  0.5539700000000  0.4402170000000 1.0
C      1  0.4125850000000  0.5627230000000  0.4851820000000 1.0
C      1  0.4129780000000  0.4622160000000  0.4487450000000 1.0
C      1  0.5748100000000  0.5094090000000  0.5495290000000 1.0
C      1  0.4947560000000  0.4000820000000  0.4470810000000 1.0
C      1  0.5177770000000  0.5637380000000  0.5220290000000 1.0
C      1  0.4637420000000  0.5082240000000  0.6039290000000 1.0
C      1  0.5028660000000  0.4000650000000  0.5239680000000 1.0
C      1  0.4772890000000  0.4553400000000  0.4105060000000 1.0
C      1  0.5015110000000  0.5949190000000  0.5628870000000 1.0
C      1  0.5470120000000  0.5983740000000  0.5392630000000 1.0
C      1  0.4882690000000  0.5567820000000  0.4737620000000 1.0
C      1  0.4651460000000  0.4731010000000  0.4846430000000 1.0
C      1  0.4450430000000  0.5285700000000  0.5224040000000 1.0
C      1  0.4337520000000  0.5047090000000  0.4662000000000 1.0
C      1  0.5099610000000  0.4798850000000  0.4377870000000 1.0
END
