TITL C-4164240-4114-731 6.20991013826384 125000 -27079.59811802 0 0 181 (C1) n - 1
REM
REM in /home/nfs/bkarasulu/CARBON/AIRSS/Generating-Clusters/ReaxFF-fromJPCA2015/Units_Real/with-SteepDescent/Only-C1/SD-CG/Try1-3A/FIRE-CG
REM
REM
REM
REM
REM
REM ./C.cell (11c1c37f851c82e70ff6c80c92926a4b)
REM
REM compiler GCC version 9.2.1 20190827 (Red Hat 9.2.1-1)
REM options -cpp -mtune=generic -march=x86-64 -g -O0 -fpre-include=/usr/include/finclude/math-vector-fortran.h
REM seed 1898743821 302768241 -1166896849 -1998084909 1163347915 -967611572 914547078 -1165444630 1907094256 80628614 -1612062236 1908584476 196372291 1474332477 1327388631 -816549110 1037256685 2059358642 401511132 874328438 1347202733 1696825617 -694486379 -406820970 -1270082408 -1861760683 2004200009 -1702006302 -1029265961 -2076351748 -1643016268 120398623 -101525322
REM
CELL 1.54180   50.00000   50.00000   50.00000   90.00000   90.00000   90.00000
LATT -1
SFAC C  
C      1  0.5428570000000  0.4182720000000  0.5502040000000 1.0
C      1  0.5545800000000  0.4532670000000  0.4202300000000 1.0
C      1  0.4754990000000  0.5445570000000  0.4555960000000 1.0
C      1  0.4206860000000  0.5598970000000  0.5694420000000 1.0
C      1  0.5526620000000  0.5023630000000  0.4354150000000 1.0
C      1  0.5059000000000  0.5065070000000  0.5126130000000 1.0
C      1  0.4314130000000  0.5122620000000  0.5812220000000 1.0
C      1  0.3839340000000  0.4603170000000  0.4739560000000 1.0
C      1  0.5860920000000  0.4850820000000  0.4509760000000 1.0
C      1  0.5385310000000  0.4095280000000  0.4380660000000 1.0
C      1  0.4840780000000  0.5522890000000  0.5966680000000 1.0
C      1  0.5909410000000  0.5675510000000  0.5027910000000 1.0
C      1  0.5255250000000  0.4886310000000  0.6119530000000 1.0
C      1  0.4729640000000  0.4686180000000  0.4780890000000 1.0
C      1  0.5008600000000  0.4100330000000  0.5120800000000 1.0
C      1  0.5457920000000  0.4856680000000  0.5363950000000 1.0
C      1  0.5496670000000  0.5944720000000  0.4790570000000 1.0
C      1  0.5116110000000  0.4143110000000  0.4260870000000 1.0
C      1  0.5804400000000  0.4379690000000  0.5539620000000 1.0
C      1  0.4806030000000  0.5279030000000  0.4305430000000 1.0
C      1  0.5391130000000  0.4157600000000  0.4663110000000 1.0
C      1  0.4782270000000  0.4826130000000  0.4195920000000 1.0
C      1  0.4995160000000  0.5025190000000  0.5682040000000 1.0
C      1  0.4208990000000  0.4874280000000  0.4219140000000 1.0
C      1  0.3913630000000  0.5333550000000  0.4952560000000 1.0
C      1  0.5900330000000  0.5223650000000  0.4211550000000 1.0
C      1  0.4047060000000  0.5399330000000  0.5213960000000 1.0
C      1  0.4430840000000  0.5357510000000  0.3999820000000 1.0
C      1  0.5005500000000  0.4769750000000  0.5572050000000 1.0
C      1  0.4597430000000  0.5601070000000  0.5818250000000 1.0
C      1  0.5581770000000  0.5836180000000  0.4543660000000 1.0
C      1  0.4167350000000  0.5008320000000  0.5593440000000 1.0
C      1  0.5790670000000  0.4980080000000  0.5003260000000 1.0
C      1  0.4624960000000  0.4621210000000  0.4050870000000 1.0
C      1  0.4529550000000  0.4695190000000  0.5783760000000 1.0
C      1  0.5853840000000  0.4440800000000  0.4759390000000 1.0
C      1  0.4070390000000  0.5154270000000  0.5356610000000 1.0
C      1  0.4512100000000  0.5540620000000  0.4618820000000 1.0
C      1  0.5110310000000  0.5614480000000  0.5900060000000 1.0
C      1  0.4532440000000  0.4938660000000  0.5913600000000 1.0
C      1  0.5108560000000  0.6083970000000  0.5104620000000 1.0
C      1  0.5566080000000  0.4349760000000  0.5731210000000 1.0
C      1  0.5028210000000  0.5488250000000  0.4729710000000 1.0
C      1  0.4975360000000  0.5036540000000  0.4679240000000 1.0
C      1  0.5273590000000  0.5390660000000  0.5983130000000 1.0
C      1  0.4284670000000  0.5777480000000  0.5498060000000 1.0
C      1  0.4955960000000  0.5548460000000  0.5374330000000 1.0
C      1  0.4269120000000  0.4487570000000  0.5116710000000 1.0
C      1  0.5126470000000  0.5585000000000  0.5149690000000 1.0
C      1  0.5171870000000  0.4812240000000  0.4766990000000 1.0
C      1  0.5492520000000  0.4900720000000  0.5951030000000 1.0
C      1  0.5405170000000  0.6036070000000  0.5044820000000 1.0
C      1  0.4292900000000  0.4185920000000  0.5172850000000 1.0
C      1  0.5031770000000  0.6035650000000  0.5382270000000 1.0
C      1  0.4402150000000  0.6082080000000  0.4922920000000 1.0
C      1  0.5533560000000  0.4736900000000  0.4425370000000 1.0
C      1  0.5395190000000  0.5090280000000  0.3951720000000 1.0
C      1  0.4953300000000  0.4750180000000  0.5015440000000 1.0
C      1  0.4091680000000  0.4675030000000  0.5261610000000 1.0
C      1  0.4531910000000  0.4277150000000  0.5581370000000 1.0
C      1  0.4056100000000  0.5399960000000  0.4708420000000 1.0
C      1  0.5507840000000  0.5909460000000  0.5290070000000 1.0
C      1  0.5381690000000  0.5762880000000  0.4321220000000 1.0
C      1  0.4727180000000  0.5479900000000  0.4016990000000 1.0
C      1  0.5297200000000  0.4209820000000  0.5734450000000 1.0
C      1  0.5652440000000  0.4501210000000  0.4969270000000 1.0
C      1  0.5659860000000  0.5139390000000  0.5876830000000 1.0
C      1  0.5211380000000  0.4385780000000  0.4674790000000 1.0
C      1  0.5761110000000  0.5727890000000  0.5265610000000 1.0
C      1  0.5046070000000  0.5117660000000  0.4385360000000 1.0
C      1  0.5264370000000  0.5366610000000  0.3955490000000 1.0
C      1  0.5190850000000  0.5650190000000  0.5612510000000 1.0
C      1  0.4653370000000  0.5089440000000  0.5453110000000 1.0
C      1  0.4757050000000  0.5728750000000  0.5226390000000 1.0
C      1  0.5763040000000  0.5442300000000  0.5335940000000 1.0
C      1  0.4666790000000  0.4464830000000  0.4637230000000 1.0
C      1  0.5017350000000  0.4227370000000  0.4829960000000 1.0
C      1  0.5075240000000  0.4838130000000  0.4273530000000 1.0
C      1  0.5317960000000  0.5082620000000  0.5266320000000 1.0
C      1  0.5376400000000  0.5415340000000  0.5590670000000 1.0
C      1  0.5593040000000  0.5117010000000  0.4845610000000 1.0
C      1  0.5037050000000  0.4256620000000  0.5632530000000 1.0
C      1  0.5815150000000  0.4274210000000  0.4518710000000 1.0
C      1  0.5282960000000  0.5906990000000  0.5470960000000 1.0
C      1  0.4880140000000  0.4076660000000  0.4408360000000 1.0
C      1  0.4344040000000  0.4397260000000  0.4364040000000 1.0
C      1  0.5308650000000  0.5267960000000  0.4402710000000 1.0
C      1  0.5464000000000  0.4336780000000  0.5072760000000 1.0
C      1  0.4279060000000  0.4419070000000  0.5627590000000 1.0
C      1  0.5203890000000  0.5210890000000  0.5747100000000 1.0
C      1  0.4333800000000  0.4079970000000  0.4920780000000 1.0
C      1  0.4833380000000  0.5247160000000  0.5289760000000 1.0
C      1  0.4754650000000  0.5936790000000  0.5430990000000 1.0
C      1  0.5242690000000  0.4848200000000  0.4020870000000 1.0
C      1  0.4555190000000  0.5818130000000  0.5620950000000 1.0
C      1  0.5371460000000  0.3866940000000  0.5398520000000 1.0
C      1  0.4913720000000  0.3994440000000  0.4685360000000 1.0
C      1  0.5657980000000  0.5081230000000  0.4099810000000 1.0
C      1  0.4603430000000  0.4228520000000  0.4489390000000 1.0
C      1  0.4704070000000  0.4972730000000  0.4743720000000 1.0
C      1  0.5056460000000  0.5807160000000  0.4711950000000 1.0
C      1  0.3834690000000  0.5052810000000  0.4910360000000 1.0
C      1  0.5847090000000  0.5092370000000  0.5652760000000 1.0
C      1  0.6181970000000  0.5125840000000  0.4947710000000 1.0
C      1  0.4833200000000  0.5236030000000  0.6018130000000 1.0
C      1  0.4205780000000  0.5853800000000  0.4942250000000 1.0
C      1  0.4805270000000  0.4363430000000  0.5774490000000 1.0
C      1  0.5972460000000  0.5121800000000  0.4484850000000 1.0
C      1  0.5982550000000  0.5559750000000  0.4774950000000 1.0
C      1  0.4843830000000  0.4452790000000  0.4032870000000 1.0
C      1  0.6095000000000  0.4855090000000  0.5379940000000 1.0
C      1  0.5542450000000  0.5404180000000  0.5869510000000 1.0
C      1  0.4549870000000  0.4905870000000  0.5265030000000 1.0
C      1  0.5324340000000  0.4567780000000  0.4022430000000 1.0
C      1  0.4253590000000  0.5020430000000  0.4895940000000 1.0
C      1  0.5926380000000  0.4660970000000  0.5507040000000 1.0
C      1  0.5495600000000  0.5414130000000  0.4797990000000 1.0
C      1  0.5716100000000  0.5602420000000  0.4660320000000 1.0
C      1  0.5714610000000  0.4858000000000  0.5539750000000 1.0
C      1  0.4348240000000  0.4620890000000  0.4179810000000 1.0
C      1  0.4186820000000  0.5144950000000  0.4638010000000 1.0
C      1  0.6004520000000  0.4690700000000  0.4694050000000 1.0
C      1  0.4237040000000  0.5636250000000  0.4661230000000 1.0
C      1  0.4313410000000  0.4538310000000  0.5874860000000 1.0
C      1  0.4102870000000  0.4484820000000  0.4825110000000 1.0
C      1  0.6082270000000  0.5278470000000  0.4727350000000 1.0
C      1  0.4839460000000  0.4557270000000  0.5197050000000 1.0
C      1  0.4939730000000  0.6011840000000  0.4874690000000 1.0
C      1  0.5819990000000  0.4208760000000  0.5326940000000 1.0
C      1  0.4247960000000  0.5713670000000  0.4346830000000 1.0
C      1  0.5459400000000  0.5329260000000  0.5313100000000 1.0
C      1  0.5490210000000  0.4060130000000  0.4968650000000 1.0
C      1  0.4351710000000  0.5413770000000  0.5844380000000 1.0
C      1  0.4153380000000  0.4705610000000  0.5530520000000 1.0
C      1  0.4616020000000  0.5311580000000  0.5103550000000 1.0
C      1  0.5024450000000  0.4325970000000  0.5334110000000 1.0
C      1  0.4233690000000  0.5645910000000  0.5218350000000 1.0
C      1  0.4485380000000  0.5899270000000  0.4300600000000 1.0
C      1  0.4525910000000  0.5067230000000  0.4974980000000 1.0
C      1  0.4705910000000  0.5781200000000  0.4122410000000 1.0
C      1  0.5129940000000  0.5882900000000  0.4431350000000 1.0
C      1  0.4792680000000  0.4822040000000  0.6093640000000 1.0
C      1  0.4712080000000  0.5098880000000  0.5748420000000 1.0
C      1  0.4994000000000  0.5223770000000  0.4884510000000 1.0
C      1  0.4555570000000  0.4622910000000  0.5215600000000 1.0
C      1  0.5103760000000  0.4355960000000  0.4045380000000 1.0
C      1  0.5968160000000  0.5263470000000  0.5436740000000 1.0
C      1  0.4532740000000  0.4115730000000  0.5337330000000 1.0
C      1  0.4642830000000  0.5058770000000  0.4238910000000 1.0
C      1  0.5361820000000  0.5504460000000  0.4198550000000 1.0
C      1  0.5282480000000  0.4668120000000  0.5510820000000 1.0
C      1  0.5793680000000  0.4044110000000  0.5112850000000 1.0
C      1  0.4907540000000  0.4572690000000  0.6013770000000 1.0
C      1  0.4660080000000  0.6116010000000  0.4775380000000 1.0
C      1  0.6054510000000  0.4865580000000  0.4929520000000 1.0
C      1  0.4697740000000  0.3895890000000  0.4880410000000 1.0
C      1  0.4569340000000  0.6014000000000  0.4541160000000 1.0
C      1  0.5309900000000  0.4395900000000  0.5322300000000 1.0
C      1  0.4487930000000  0.4005960000000  0.4707610000000 1.0
C      1  0.5237500000000  0.4657980000000  0.4535640000000 1.0
C      1  0.4518910000000  0.5568900000000  0.5152270000000 1.0
C      1  0.4050370000000  0.4964710000000  0.4447910000000 1.0
C      1  0.3842120000000  0.4895840000000  0.4656110000000 1.0
C      1  0.5280510000000  0.5407540000000  0.4632700000000 1.0
C      1  0.4909550000000  0.5832830000000  0.4271020000000 1.0
C      1  0.4731940000000  0.3991830000000  0.5155780000000 1.0
C      1  0.4981750000000  0.5406410000000  0.3882410000000 1.0
C      1  0.5415690000000  0.4903330000000  0.4870710000000 1.0
C      1  0.5192910000000  0.4613390000000  0.6032000000000 1.0
C      1  0.4759180000000  0.4615200000000  0.5625590000000 1.0
C      1  0.4291330000000  0.5498700000000  0.4178860000000 1.0
C      1  0.4984060000000  0.5029200000000  0.6154120000000 1.0
C      1  0.6156640000000  0.5108160000000  0.5258260000000 1.0
C      1  0.4044960000000  0.4953450000000  0.5113390000000 1.0
C      1  0.4200850000000  0.4446980000000  0.4588850000000 1.0
C      1  0.5592290000000  0.4772190000000  0.5057420000000 1.0
C      1  0.5279780000000  0.3921050000000  0.5140270000000 1.0
C      1  0.5620390000000  0.4261000000000  0.4294830000000 1.0
C      1  0.5412840000000  0.4638830000000  0.5812190000000 1.0
C      1  0.5359940000000  0.5505270000000  0.5077610000000 1.0
C      1  0.4386360000000  0.5099840000000  0.4129960000000 1.0
END
