TITL C-4164241-3639-317 13.3375554432728 125000 -13203.99586502 0 0 91 (C1) n - 1
REM
REM in /home/nfs/bkarasulu/CARBON/AIRSS/Generating-Clusters/ReaxFF-fromJPCA2015/Units_Real/with-SteepDescent/Only-C1/SD-CG/Try1-3A/FIRE-CG
REM
REM
REM
REM
REM
REM ./C.cell (11c1c37f851c82e70ff6c80c92926a4b)
REM
REM compiler GCC version 9.2.1 20190827 (Red Hat 9.2.1-1)
REM options -cpp -mtune=generic -march=x86-64 -g -O0 -fpre-include=/usr/include/finclude/math-vector-fortran.h
REM seed 202248156 1925622673 1595485949 -2133759347 -2065466290 -1664018245 -247982567 -100227862 -42472850 795671506 192953483 -700949860 1324249406 -500497392 663158767 -1420258482 2003444967 665042245 2009358121 1467253313 -1647057481 1850106295 -1735465165 1340454604 1939104718 -930837334 -1665930252 -1581084945 457967107 737371996 2107525609 -1080700888 -2094452075
REM
CELL 1.54180   50.00000   50.00000   50.00000   90.00000   90.00000   90.00000
LATT -1
SFAC C  
C      1  0.4348280000000  0.5559890000000  0.5048740000000 1.0
C      1  0.5542500000000  0.5040000000000  0.5574780000000 1.0
C      1  0.5072860000000  0.4940870000000  0.5295460000000 1.0
C      1  0.4889820000000  0.5691190000000  0.4577610000000 1.0
C      1  0.5234030000000  0.5698450000000  0.5195750000000 1.0
C      1  0.4304740000000  0.4661140000000  0.4971050000000 1.0
C      1  0.5123530000000  0.4480160000000  0.5705130000000 1.0
C      1  0.5247150000000  0.5353370000000  0.4336860000000 1.0
C      1  0.5622450000000  0.4671290000000  0.5183550000000 1.0
C      1  0.4894350000000  0.4513070000000  0.5570460000000 1.0
C      1  0.4994830000000  0.4946090000000  0.4989060000000 1.0
C      1  0.4904630000000  0.4701400000000  0.5359430000000 1.0
C      1  0.5457890000000  0.5603290000000  0.4720270000000 1.0
C      1  0.5393610000000  0.5187310000000  0.5708450000000 1.0
C      1  0.5065780000000  0.5341550000000  0.4999040000000 1.0
C      1  0.5355590000000  0.4828420000000  0.5461440000000 1.0
C      1  0.5590050000000  0.4928160000000  0.5059990000000 1.0
C      1  0.4235010000000  0.5117130000000  0.5039780000000 1.0
C      1  0.4597630000000  0.5709470000000  0.5071010000000 1.0
C      1  0.4583660000000  0.4644220000000  0.4296090000000 1.0
C      1  0.4752520000000  0.5517980000000  0.4390030000000 1.0
C      1  0.5827060000000  0.5111360000000  0.5072060000000 1.0
C      1  0.5303500000000  0.4341530000000  0.5195130000000 1.0
C      1  0.5117330000000  0.5985450000000  0.4768780000000 1.0
C      1  0.4789450000000  0.4758850000000  0.4924960000000 1.0
C      1  0.5245100000000  0.4817360000000  0.4538180000000 1.0
C      1  0.4689030000000  0.4627220000000  0.5695650000000 1.0
C      1  0.4527380000000  0.4827520000000  0.4901570000000 1.0
C      1  0.5084680000000  0.4205800000000  0.5330400000000 1.0
C      1  0.4174270000000  0.5292370000000  0.4611840000000 1.0
C      1  0.4221280000000  0.5529120000000  0.4776930000000 1.0
C      1  0.4901880000000  0.4565010000000  0.5106220000000 1.0
C      1  0.4743520000000  0.5596790000000  0.5298580000000 1.0
C      1  0.4488340000000  0.5013020000000  0.5627060000000 1.0
C      1  0.5785740000000  0.5308180000000  0.5263300000000 1.0
C      1  0.4320780000000  0.4776820000000  0.5543660000000 1.0
C      1  0.5878490000000  0.5210750000000  0.4791540000000 1.0
C      1  0.4537660000000  0.4359870000000  0.4792400000000 1.0
C      1  0.4462170000000  0.4517030000000  0.4540210000000 1.0
C      1  0.5233040000000  0.4737130000000  0.5705200000000 1.0
C      1  0.5860800000000  0.4985020000000  0.4593390000000 1.0
C      1  0.4407430000000  0.5085190000000  0.4546470000000 1.0
C      1  0.4775190000000  0.5266720000000  0.4193820000000 1.0
C      1  0.5054750000000  0.5636010000000  0.4968090000000 1.0
C      1  0.5671250000000  0.5145210000000  0.4439430000000 1.0
C      1  0.4559070000000  0.5304410000000  0.4368720000000 1.0
C      1  0.4798980000000  0.4249100000000  0.5182950000000 1.0
C      1  0.5208440000000  0.4277610000000  0.5568590000000 1.0
C      1  0.4789630000000  0.4230840000000  0.4876140000000 1.0
C      1  0.4389770000000  0.5268450000000  0.5505450000000 1.0
C      1  0.5144360000000  0.5243240000000  0.5802570000000 1.0
C      1  0.5029880000000  0.5230090000000  0.5390790000000 1.0
C      1  0.5696490000000  0.5367910000000  0.4622720000000 1.0
C      1  0.5059810000000  0.5518660000000  0.5682950000000 1.0
C      1  0.4448390000000  0.5082320000000  0.4834970000000 1.0
C      1  0.5338610000000  0.5245680000000  0.5083480000000 1.0
C      1  0.4058070000000  0.4805590000000  0.5399040000000 1.0
C      1  0.5549170000000  0.5436010000000  0.5178620000000 1.0
C      1  0.5041120000000  0.4629130000000  0.4439300000000 1.0
C      1  0.4477610000000  0.4528550000000  0.5514260000000 1.0
C      1  0.5719360000000  0.5155300000000  0.5469490000000 1.0
C      1  0.4800070000000  0.5759460000000  0.4855900000000 1.0
C      1  0.5433670000000  0.4937220000000  0.4325020000000 1.0
C      1  0.4291960000000  0.5331920000000  0.5222430000000 1.0
C      1  0.4579890000000  0.5418780000000  0.5636430000000 1.0
C      1  0.5274960000000  0.5385510000000  0.4636810000000 1.0
C      1  0.5468110000000  0.5661560000000  0.5015420000000 1.0
C      1  0.5435150000000  0.4567820000000  0.5380710000000 1.0
C      1  0.5143840000000  0.4356860000000  0.4479810000000 1.0
C      1  0.4933130000000  0.5024110000000  0.4169720000000 1.0
C      1  0.5178860000000  0.4962270000000  0.4771110000000 1.0
C      1  0.5177600000000  0.5492560000000  0.5420080000000 1.0
C      1  0.4383860000000  0.4388760000000  0.5042000000000 1.0
C      1  0.5504980000000  0.4646840000000  0.4247400000000 1.0
C      1  0.4531890000000  0.4347900000000  0.5289920000000 1.0
C      1  0.5217500000000  0.5108720000000  0.4182110000000 1.0
C      1  0.5055700000000  0.4267410000000  0.4750680000000 1.0
C      1  0.4745920000000  0.4917880000000  0.5739600000000 1.0
C      1  0.5030330000000  0.4975310000000  0.5772850000000 1.0
C      1  0.5191730000000  0.5779620000000  0.4592260000000 1.0
C      1  0.4850530000000  0.5339630000000  0.5197950000000 1.0
C      1  0.5770700000000  0.4708060000000  0.4659620000000 1.0
C      1  0.5677300000000  0.4528460000000  0.4447400000000 1.0
C      1  0.4781960000000  0.5605540000000  0.5602950000000 1.0
C      1  0.5150720000000  0.4437670000000  0.4965100000000 1.0
C      1  0.4854760000000  0.4753870000000  0.4254910000000 1.0
C      1  0.5415430000000  0.4396860000000  0.4375260000000 1.0
C      1  0.5380800000000  0.5165880000000  0.4809040000000 1.0
C      1  0.4124560000000  0.4853410000000  0.5110780000000 1.0
C      1  0.5610120000000  0.4692770000000  0.4897790000000 1.0
C      1  0.4384200000000  0.4780670000000  0.4450040000000 1.0
END
