TITL C-4164234-2335-277 63.7302116725303 125000 -26218.152789773 0 0 178 (C1) n - 1
REM
REM in /home/nfs/bkarasulu/CARBON/AIRSS/Generating-Clusters/ReaxFF-fromJPCA2015/Units_Real/with-SteepDescent/Only-C1/SD-CG/Try1-3A/FIRE-CG
REM
REM
REM
REM
REM
REM ./C.cell (11c1c37f851c82e70ff6c80c92926a4b)
REM
REM compiler GCC version 9.2.1 20190827 (Red Hat 9.2.1-1)
REM options -cpp -mtune=generic -march=x86-64 -g -O0 -fpre-include=/usr/include/finclude/math-vector-fortran.h
REM seed -854404615 1865764697 -1240803610 -966440864 -2115290964 -1367347096 1362228947 108935648 1524115619 1123334176 1264357908 1981368348 -482268632 1766832898 1452011287 -931438426 938078399 -377401122 857705312 563917097 -2085604717 -377433890 -334336555 1270695955 -999853316 -1229682244 940336936 948013724 776315807 -2130933147 -585721901 -388784512 828982152
REM
CELL 1.54180   50.00000   50.00000   50.00000   90.00000   90.00000   90.00000
LATT -1
SFAC C  
C      1  0.5368990000000  0.4484820000000  0.4067450000000 1.0
C      1  0.5117180000000  0.5697100000000  0.5475020000000 1.0
C      1  0.4134200000000  0.5469080000000  0.4591840000000 1.0
C      1  0.4195200000000  0.5790000000000  0.4562710000000 1.0
C      1  0.5488280000000  0.5499670000000  0.5789700000000 1.0
C      1  0.5491810000000  0.5623680000000  0.5143510000000 1.0
C      1  0.5530700000000  0.5819740000000  0.4536280000000 1.0
C      1  0.4590180000000  0.5121200000000  0.5743020000000 1.0
C      1  0.5248230000000  0.5020040000000  0.6207340000000 1.0
C      1  0.5613820000000  0.6022420000000  0.4942940000000 1.0
C      1  0.4645630000000  0.4318900000000  0.4891130000000 1.0
C      1  0.5947550000000  0.5261710000000  0.5474560000000 1.0
C      1  0.4922570000000  0.5146990000000  0.4097290000000 1.0
C      1  0.4123790000000  0.5282420000000  0.5361390000000 1.0
C      1  0.4119530000000  0.4830540000000  0.4324670000000 1.0
C      1  0.4164580000000  0.4210460000000  0.4954870000000 1.0
C      1  0.4944530000000  0.4501360000000  0.4532100000000 1.0
C      1  0.4219230000000  0.5300260000000  0.5636850000000 1.0
C      1  0.5731940000000  0.4733250000000  0.4228950000000 1.0
C      1  0.4889370000000  0.5433590000000  0.4571640000000 1.0
C      1  0.5697440000000  0.4291040000000  0.4615180000000 1.0
C      1  0.5980230000000  0.5168510000000  0.5713140000000 1.0
C      1  0.5827290000000  0.5277320000000  0.4340060000000 1.0
C      1  0.5627410000000  0.4284860000000  0.4909210000000 1.0
C      1  0.5475780000000  0.5213400000000  0.4666310000000 1.0
C      1  0.4890900000000  0.4143820000000  0.5653720000000 1.0
C      1  0.5534290000000  0.5332480000000  0.5157390000000 1.0
C      1  0.4455610000000  0.5326890000000  0.4672670000000 1.0
C      1  0.5355090000000  0.6105740000000  0.5067490000000 1.0
C      1  0.5863120000000  0.5505410000000  0.4829900000000 1.0
C      1  0.5617270000000  0.4324950000000  0.5465820000000 1.0
C      1  0.5332200000000  0.5118910000000  0.5161980000000 1.0
C      1  0.5163500000000  0.4051180000000  0.5564420000000 1.0
C      1  0.3972300000000  0.4826760000000  0.5117350000000 1.0
C      1  0.4804850000000  0.5260110000000  0.4359560000000 1.0
C      1  0.4980750000000  0.4807850000000  0.4971260000000 1.0
C      1  0.5343110000000  0.4993810000000  0.4006590000000 1.0
C      1  0.5442110000000  0.4648850000000  0.4785720000000 1.0
C      1  0.5825770000000  0.5332060000000  0.5273990000000 1.0
C      1  0.3933140000000  0.5104840000000  0.5222460000000 1.0
C      1  0.4691210000000  0.5696920000000  0.4971840000000 1.0
C      1  0.4887290000000  0.3938040000000  0.4655510000000 1.0
C      1  0.4739900000000  0.4513210000000  0.4740710000000 1.0
C      1  0.5266420000000  0.3905780000000  0.5066910000000 1.0
C      1  0.5480770000000  0.4667050000000  0.5194330000000 1.0
C      1  0.5903580000000  0.4820680000000  0.4835190000000 1.0
C      1  0.5093530000000  0.5537420000000  0.4998770000000 1.0
C      1  0.4381800000000  0.4282530000000  0.4472770000000 1.0
C      1  0.4872570000000  0.5588280000000  0.5913590000000 1.0
C      1  0.4963020000000  0.5330980000000  0.4835520000000 1.0
C      1  0.5571690000000  0.6051910000000  0.5243510000000 1.0
C      1  0.6009750000000  0.5383210000000  0.5088250000000 1.0
C      1  0.4941330000000  0.5739080000000  0.5113470000000 1.0
C      1  0.5138170000000  0.5121740000000  0.5702920000000 1.0
C      1  0.5429590000000  0.5289180000000  0.4002140000000 1.0
C      1  0.4858700000000  0.4770540000000  0.5499780000000 1.0
C      1  0.4398910000000  0.4900780000000  0.4814580000000 1.0
C      1  0.5209100000000  0.5129090000000  0.4704880000000 1.0
C      1  0.5585370000000  0.5785890000000  0.5363900000000 1.0
C      1  0.4864490000000  0.6042620000000  0.4838240000000 1.0
C      1  0.5070990000000  0.4365170000000  0.6018120000000 1.0
C      1  0.4262420000000  0.5840590000000  0.4832750000000 1.0
C      1  0.5548130000000  0.4736730000000  0.5727440000000 1.0
C      1  0.4625820000000  0.5975570000000  0.5414340000000 1.0
C      1  0.4746470000000  0.5219660000000  0.5027150000000 1.0
C      1  0.5185720000000  0.5011520000000  0.4954920000000 1.0
C      1  0.4910200000000  0.5538710000000  0.5572990000000 1.0
C      1  0.5002600000000  0.4723060000000  0.5259960000000 1.0
C      1  0.5755260000000  0.4468700000000  0.4369910000000 1.0
C      1  0.4127100000000  0.4962670000000  0.4597500000000 1.0
C      1  0.4952400000000  0.4776490000000  0.4461300000000 1.0
C      1  0.5339830000000  0.4912120000000  0.5617310000000 1.0
C      1  0.4130920000000  0.5243160000000  0.4407030000000 1.0
C      1  0.5728870000000  0.4588900000000  0.5538900000000 1.0
C      1  0.5337810000000  0.4353530000000  0.5891230000000 1.0
C      1  0.5169990000000  0.5283130000000  0.6165650000000 1.0
C      1  0.4499600000000  0.5643750000000  0.5205160000000 1.0
C      1  0.4279040000000  0.5422000000000  0.5141420000000 1.0
C      1  0.5698150000000  0.5799350000000  0.4768380000000 1.0
C      1  0.4398690000000  0.5540240000000  0.5692590000000 1.0
C      1  0.4536900000000  0.4678790000000  0.4307470000000 1.0
C      1  0.5024610000000  0.6044990000000  0.5095270000000 1.0
C      1  0.5371630000000  0.4896040000000  0.5335520000000 1.0
C      1  0.6150920000000  0.4664930000000  0.4970670000000 1.0
C      1  0.3933250000000  0.4933610000000  0.4840730000000 1.0
C      1  0.4681580000000  0.4789660000000  0.4795400000000 1.0
C      1  0.4785120000000  0.4783550000000  0.6010000000000 1.0
C      1  0.4573570000000  0.3954810000000  0.5080290000000 1.0
C      1  0.4840990000000  0.5073500000000  0.5905920000000 1.0
C      1  0.5498990000000  0.4749410000000  0.4057590000000 1.0
C      1  0.5034380000000  0.5971930000000  0.5609990000000 1.0
C      1  0.5951740000000  0.5322070000000  0.4602600000000 1.0
C      1  0.4655640000000  0.5690030000000  0.4357690000000 1.0
C      1  0.5006410000000  0.4630860000000  0.6116120000000 1.0
C      1  0.4390700000000  0.4884860000000  0.5344530000000 1.0
C      1  0.5234950000000  0.4140250000000  0.4549750000000 1.0
C      1  0.4660330000000  0.4413820000000  0.5861150000000 1.0
C      1  0.4949080000000  0.5388400000000  0.3887450000000 1.0
C      1  0.4971260000000  0.5917150000000  0.5879000000000 1.0
C      1  0.4680470000000  0.4857590000000  0.4497790000000 1.0
C      1  0.4878560000000  0.4309230000000  0.5412560000000 1.0
C      1  0.4308050000000  0.5071480000000  0.5810200000000 1.0
C      1  0.5167560000000  0.5066790000000  0.4203020000000 1.0
C      1  0.5010730000000  0.5936830000000  0.4612450000000 1.0
C      1  0.5613640000000  0.5345370000000  0.4870900000000 1.0
C      1  0.4571740000000  0.5982560000000  0.4911810000000 1.0
C      1  0.5648920000000  0.4766570000000  0.4686380000000 1.0
C      1  0.4505870000000  0.5514440000000  0.4158610000000 1.0
C      1  0.4642980000000  0.5578830000000  0.4648260000000 1.0
C      1  0.4404470000000  0.4006850000000  0.4535910000000 1.0
C      1  0.5563280000000  0.4981660000000  0.4531010000000 1.0
C      1  0.4851350000000  0.3866720000000  0.5140360000000 1.0
C      1  0.5094890000000  0.4445460000000  0.5289940000000 1.0
C      1  0.4864430000000  0.4309440000000  0.4266460000000 1.0
C      1  0.5202060000000  0.4549530000000  0.4872110000000 1.0
C      1  0.4326500000000  0.4081630000000  0.5171630000000 1.0
C      1  0.5536840000000  0.4025480000000  0.5029550000000 1.0
C      1  0.5102310000000  0.3926350000000  0.5306150000000 1.0
C      1  0.5173280000000  0.5676140000000  0.4215400000000 1.0
C      1  0.5450900000000  0.5648620000000  0.4302510000000 1.0
C      1  0.6140040000000  0.4857620000000  0.5185350000000 1.0
C      1  0.5602640000000  0.5416210000000  0.4201460000000 1.0
C      1  0.4605670000000  0.5668560000000  0.5496440000000 1.0
C      1  0.4934370000000  0.5788510000000  0.4361160000000 1.0
C      1  0.4807300000000  0.5180950000000  0.5303290000000 1.0
C      1  0.4290080000000  0.4782300000000  0.5791560000000 1.0
C      1  0.4454160000000  0.5950770000000  0.5184660000000 1.0
C      1  0.4192720000000  0.4749020000000  0.5519190000000 1.0
C      1  0.4542190000000  0.4646700000000  0.5909250000000 1.0
C      1  0.5325030000000  0.5277470000000  0.5896200000000 1.0
C      1  0.5203990000000  0.5488730000000  0.3990920000000 1.0
C      1  0.6130200000000  0.5130000000000  0.5029730000000 1.0
C      1  0.5177410000000  0.4947470000000  0.4458370000000 1.0
C      1  0.5013650000000  0.5294600000000  0.5488300000000 1.0
C      1  0.5456000000000  0.4605080000000  0.5969400000000 1.0
C      1  0.3860980000000  0.5196990000000  0.4945750000000 1.0
C      1  0.5684780000000  0.4204890000000  0.5200560000000 1.0
C      1  0.4286940000000  0.4637450000000  0.4868810000000 1.0
C      1  0.6000030000000  0.5076310000000  0.5944250000000 1.0
C      1  0.4548200000000  0.4767610000000  0.4060830000000 1.0
C      1  0.5278160000000  0.4744100000000  0.6172560000000 1.0
C      1  0.4234630000000  0.4391110000000  0.4726900000000 1.0
C      1  0.4593810000000  0.5142570000000  0.4488610000000 1.0
C      1  0.4076200000000  0.4600740000000  0.5289090000000 1.0
C      1  0.4886670000000  0.6085150000000  0.5374830000000 1.0
C      1  0.3955740000000  0.5452700000000  0.4832800000000 1.0
C      1  0.5035130000000  0.4716790000000  0.3990080000000 1.0
C      1  0.4621450000000  0.4030550000000  0.4782740000000 1.0
C      1  0.5401230000000  0.5678430000000  0.5566110000000 1.0
C      1  0.5077370000000  0.4461150000000  0.4074990000000 1.0
C      1  0.4896470000000  0.5326330000000  0.6065970000000 1.0
C      1  0.5742930000000  0.4754940000000  0.5112340000000 1.0
C      1  0.4318130000000  0.4966620000000  0.4136870000000 1.0
C      1  0.5319720000000  0.5687440000000  0.4924910000000 1.0
C      1  0.5781890000000  0.4990480000000  0.4355800000000 1.0
C      1  0.6039850000000  0.5094140000000  0.4761430000000 1.0
C      1  0.5566680000000  0.4311700000000  0.4215420000000 1.0
C      1  0.4580290000000  0.4417400000000  0.4280430000000 1.0
C      1  0.4464250000000  0.5195560000000  0.4947950000000 1.0
C      1  0.5291600000000  0.5874100000000  0.4698410000000 1.0
C      1  0.5885060000000  0.4751820000000  0.5344390000000 1.0
C      1  0.4847040000000  0.4251770000000  0.5900480000000 1.0
C      1  0.4125580000000  0.4313530000000  0.5219290000000 1.0
C      1  0.4120050000000  0.5627300000000  0.4989190000000 1.0
C      1  0.4710820000000  0.5475330000000  0.3984890000000 1.0
C      1  0.5513200000000  0.4135890000000  0.4449120000000 1.0
C      1  0.4449390000000  0.4476210000000  0.5049240000000 1.0
C      1  0.4811990000000  0.4875180000000  0.3975420000000 1.0
C      1  0.4575390000000  0.5088700000000  0.5453690000000 1.0
C      1  0.5394810000000  0.4222340000000  0.5635470000000 1.0
C      1  0.5165980000000  0.4398050000000  0.4645110000000 1.0
C      1  0.4983060000000  0.4074890000000  0.4420020000000 1.0
C      1  0.5022120000000  0.3842570000000  0.4900660000000 1.0
C      1  0.4318130000000  0.5263860000000  0.4197780000000 1.0
C      1  0.4701000000000  0.4533900000000  0.5467190000000 1.0
C      1  0.4591210000000  0.5536670000000  0.5892360000000 1.0
C      1  0.5324500000000  0.4444570000000  0.5118470000000 1.0
C      1  0.4524620000000  0.4635940000000  0.5265020000000 1.0
END
