TITL C-4164239-2837-712 9.30715690568022 125000 -19020.6805209556 0 0 127 (C1) n - 1
REM
REM in /home/nfs/bkarasulu/CARBON/AIRSS/Generating-Clusters/ReaxFF-fromJPCA2015/Units_Real/with-SteepDescent/Only-C1/SD-CG/Try1-3A/FIRE-CG
REM
REM
REM
REM
REM
REM ./C.cell (11c1c37f851c82e70ff6c80c92926a4b)
REM
REM compiler GCC version 9.2.1 20190827 (Red Hat 9.2.1-1)
REM options -cpp -mtune=generic -march=x86-64 -g -O0 -fpre-include=/usr/include/finclude/math-vector-fortran.h
REM seed -463446426 -580967468 -448276106 639956657 1505043935 1305518100 -1977219715 1422843630 -884975049 -504474210 -574197131 -679298482 1433233190 572456811 1287999285 717998953 297743068 -11517204 -179763034 1201434141 1082083534 -1413177605 1030486572 -1090545370 -1579515829 381252815 -1616255481 -2043123909 -473382720 -932940728 -1569269898 -1416108246 -786925146
REM
CELL 1.54180   50.00000   50.00000   50.00000   90.00000   90.00000   90.00000
LATT -1
SFAC C  
C      1  0.5316550000000  0.4731670000000  0.4762150000000 1.0
C      1  0.4658380000000  0.5890350000000  0.5076360000000 1.0
C      1  0.4491760000000  0.5790420000000  0.4856200000000 1.0
C      1  0.4931260000000  0.5511860000000  0.4702660000000 1.0
C      1  0.4866750000000  0.5058130000000  0.6001500000000 1.0
C      1  0.4942910000000  0.5144640000000  0.5283130000000 1.0
C      1  0.5691230000000  0.5429360000000  0.5381710000000 1.0
C      1  0.5021500000000  0.4920530000000  0.4077620000000 1.0
C      1  0.5853440000000  0.5371080000000  0.4535720000000 1.0
C      1  0.4233440000000  0.4888770000000  0.4497110000000 1.0
C      1  0.4960070000000  0.4438650000000  0.4174910000000 1.0
C      1  0.4909740000000  0.5349290000000  0.5946910000000 1.0
C      1  0.5137610000000  0.3962780000000  0.5221790000000 1.0
C      1  0.5336650000000  0.5901710000000  0.4785350000000 1.0
C      1  0.5323150000000  0.5623090000000  0.4903470000000 1.0
C      1  0.4232600000000  0.5030980000000  0.5354460000000 1.0
C      1  0.4634190000000  0.4755460000000  0.4733210000000 1.0
C      1  0.5232290000000  0.4247410000000  0.5596840000000 1.0
C      1  0.5531910000000  0.4274430000000  0.4667420000000 1.0
C      1  0.4645270000000  0.4010500000000  0.5235210000000 1.0
C      1  0.4599420000000  0.5814660000000  0.5375410000000 1.0
C      1  0.5512160000000  0.4793480000000  0.4298210000000 1.0
C      1  0.4697630000000  0.5503510000000  0.5801600000000 1.0
C      1  0.4774920000000  0.5709710000000  0.5603770000000 1.0
C      1  0.4086460000000  0.5300920000000  0.5380380000000 1.0
C      1  0.4317380000000  0.5402060000000  0.4480430000000 1.0
C      1  0.5630130000000  0.5437660000000  0.4360290000000 1.0
C      1  0.5569690000000  0.4577330000000  0.5512800000000 1.0
C      1  0.5011190000000  0.5416590000000  0.5289730000000 1.0
C      1  0.4224660000000  0.5487640000000  0.4966550000000 1.0
C      1  0.5339470000000  0.4363560000000  0.4444140000000 1.0
C      1  0.5896400000000  0.4832480000000  0.5286550000000 1.0
C      1  0.4899700000000  0.3971370000000  0.5396810000000 1.0
C      1  0.4542350000000  0.4314670000000  0.4505510000000 1.0
C      1  0.4769190000000  0.5015800000000  0.4049370000000 1.0
C      1  0.5802990000000  0.4497850000000  0.4345460000000 1.0
C      1  0.5640090000000  0.5332000000000  0.5652630000000 1.0
C      1  0.4730590000000  0.4988470000000  0.5745770000000 1.0
C      1  0.5048240000000  0.5988450000000  0.4787900000000 1.0
C      1  0.5468520000000  0.5170350000000  0.4944470000000 1.0
C      1  0.5411140000000  0.5026550000000  0.5446600000000 1.0
C      1  0.5654990000000  0.5668730000000  0.5228570000000 1.0
C      1  0.4133080000000  0.5170910000000  0.4517480000000 1.0
C      1  0.5163900000000  0.4896460000000  0.5510520000000 1.0
C      1  0.4855300000000  0.4590140000000  0.5703520000000 1.0
C      1  0.5298510000000  0.4621070000000  0.5020920000000 1.0
C      1  0.5546720000000  0.4941800000000  0.4752200000000 1.0
C      1  0.5429020000000  0.4138160000000  0.4903330000000 1.0
C      1  0.4474010000000  0.4432910000000  0.5611380000000 1.0
C      1  0.5825860000000  0.4897560000000  0.4719810000000 1.0
C      1  0.4649260000000  0.4642910000000  0.5493800000000 1.0
C      1  0.4053190000000  0.4839810000000  0.5194850000000 1.0
C      1  0.4386580000000  0.5673720000000  0.5443140000000 1.0
C      1  0.4832000000000  0.4255070000000  0.4583920000000 1.0
C      1  0.5393750000000  0.5367780000000  0.4790440000000 1.0
C      1  0.4358920000000  0.4369140000000  0.4715650000000 1.0
C      1  0.4937310000000  0.5982250000000  0.5057000000000 1.0
C      1  0.4509050000000  0.5071580000000  0.4127070000000 1.0
C      1  0.3934820000000  0.5055560000000  0.5023000000000 1.0
C      1  0.5198850000000  0.5289730000000  0.5890750000000 1.0
C      1  0.4447670000000  0.5090280000000  0.5778020000000 1.0
C      1  0.5283670000000  0.5354320000000  0.4229530000000 1.0
C      1  0.5613630000000  0.5034660000000  0.5652490000000 1.0
C      1  0.5353850000000  0.4095890000000  0.5372640000000 1.0
C      1  0.4339530000000  0.4776270000000  0.4748850000000 1.0
C      1  0.5303120000000  0.5826130000000  0.4503320000000 1.0
C      1  0.5920540000000  0.5285270000000  0.4978260000000 1.0
C      1  0.4580440000000  0.4506410000000  0.5222100000000 1.0
C      1  0.4954590000000  0.4153900000000  0.5619130000000 1.0
C      1  0.5542770000000  0.5171970000000  0.5223310000000 1.0
C      1  0.4248250000000  0.4922570000000  0.5658580000000 1.0
C      1  0.4718700000000  0.5437430000000  0.4862770000000 1.0
C      1  0.5825700000000  0.4621130000000  0.5103300000000 1.0
C      1  0.5855740000000  0.5106920000000  0.5197410000000 1.0
C      1  0.4685780000000  0.4428250000000  0.4137700000000 1.0
C      1  0.5526040000000  0.4208630000000  0.5172310000000 1.0
C      1  0.5136490000000  0.5606040000000  0.5123230000000 1.0
C      1  0.5466920000000  0.4991470000000  0.4472030000000 1.0
C      1  0.5040020000000  0.4257280000000  0.4389550000000 1.0
C      1  0.4742570000000  0.4323680000000  0.5736550000000 1.0
C      1  0.4442230000000  0.4816960000000  0.4298570000000 1.0
C      1  0.5779210000000  0.4425340000000  0.4645510000000 1.0
C      1  0.5789550000000  0.5617670000000  0.4692280000000 1.0
C      1  0.4496780000000  0.5359340000000  0.5029930000000 1.0
C      1  0.5202580000000  0.4616560000000  0.4524750000000 1.0
C      1  0.5569460000000  0.5682220000000  0.4477010000000 1.0
C      1  0.4310120000000  0.5602780000000  0.4709760000000 1.0
C      1  0.5142620000000  0.5185330000000  0.4041850000000 1.0
C      1  0.5010600000000  0.4709400000000  0.4319220000000 1.0
C      1  0.4776970000000  0.5352000000000  0.4333510000000 1.0
C      1  0.4736930000000  0.4844520000000  0.4470210000000 1.0
C      1  0.4202320000000  0.4531270000000  0.4873570000000 1.0
C      1  0.3995800000000  0.5114800000000  0.4758060000000 1.0
C      1  0.4816620000000  0.4770920000000  0.4960840000000 1.0
C      1  0.4006150000000  0.5345450000000  0.5109300000000 1.0
C      1  0.5936850000000  0.5152730000000  0.4721570000000 1.0
C      1  0.5343190000000  0.4506170000000  0.5674310000000 1.0
C      1  0.4750980000000  0.5001320000000  0.5129540000000 1.0
C      1  0.5302790000000  0.5236230000000  0.4500480000000 1.0
C      1  0.4928540000000  0.4265540000000  0.4879560000000 1.0
C      1  0.5526730000000  0.4526240000000  0.4233560000000 1.0
C      1  0.5402190000000  0.5462390000000  0.5751800000000 1.0
C      1  0.5301720000000  0.5684450000000  0.5585040000000 1.0
C      1  0.4223020000000  0.5486800000000  0.5567250000000 1.0
C      1  0.5753590000000  0.4797480000000  0.5547280000000 1.0
C      1  0.4138620000000  0.4568270000000  0.5167500000000 1.0
C      1  0.5035460000000  0.5242650000000  0.4621940000000 1.0
C      1  0.5149550000000  0.5879130000000  0.5242170000000 1.0
C      1  0.4432970000000  0.5391940000000  0.5761360000000 1.0
C      1  0.4918020000000  0.5027200000000  0.5525410000000 1.0
C      1  0.5790780000000  0.5557140000000  0.4977610000000 1.0
C      1  0.5003850000000  0.5404280000000  0.4169280000000 1.0
C      1  0.4491070000000  0.5112960000000  0.5172610000000 1.0
C      1  0.5144190000000  0.5002930000000  0.5936350000000 1.0
C      1  0.4690510000000  0.4267100000000  0.5091940000000 1.0
C      1  0.5148360000000  0.4066510000000  0.4952540000000 1.0
C      1  0.5025850000000  0.5589510000000  0.5521880000000 1.0
C      1  0.4810880000000  0.5130800000000  0.4502260000000 1.0
C      1  0.5879620000000  0.4642980000000  0.4822460000000 1.0
C      1  0.5015260000000  0.5782260000000  0.4573610000000 1.0
C      1  0.5020440000000  0.4559460000000  0.4999060000000 1.0
C      1  0.4464480000000  0.4505080000000  0.4271040000000 1.0
C      1  0.5558840000000  0.4507170000000  0.5204100000000 1.0
C      1  0.5419520000000  0.5813260000000  0.5344730000000 1.0
C      1  0.4499310000000  0.5331110000000  0.4270630000000 1.0
C      1  0.4328530000000  0.4418590000000  0.5347200000000 1.0
C      1  0.5142190000000  0.4725710000000  0.5753000000000 1.0
END
