TITL C-4164240-4114-487 8.2217538698339 125000 -19342.5888932352 0 0 131 (C1) n - 1
REM
REM in /home/nfs/bkarasulu/CARBON/AIRSS/Generating-Clusters/ReaxFF-fromJPCA2015/Units_Real/with-SteepDescent/Only-C1/SD-CG/Try1-3A/FIRE-CG
REM
REM
REM
REM
REM
REM ./C.cell (11c1c37f851c82e70ff6c80c92926a4b)
REM
REM compiler GCC version 9.2.1 20190827 (Red Hat 9.2.1-1)
REM options -cpp -mtune=generic -march=x86-64 -g -O0 -fpre-include=/usr/include/finclude/math-vector-fortran.h
REM seed -346234518 -567966078 2011976843 -1232592667 -525245860 -377878535 1385646995 -2145769913 -109433900 1310553222 -75131843 -1030289281 -1344187656 -461451344 881798585 353442420 -2127214458 278614353 1649218008 -62618316 588132484 9326920 588061877 296508978 689167737 637808161 553283584 342146606 -2038153184 39379020 -1668148521 -344095486 998565238
REM
CELL 1.54180   50.00000   50.00000   50.00000   90.00000   90.00000   90.00000
LATT -1
SFAC C  
C      1  0.5906190000000  0.5400890000000  0.4578670000000 1.0
C      1  0.5340300000000  0.5545060000000  0.4116960000000 1.0
C      1  0.5011850000000  0.4602990000000  0.5030660000000 1.0
C      1  0.4564090000000  0.4252800000000  0.5603920000000 1.0
C      1  0.3970840000000  0.4883340000000  0.5337710000000 1.0
C      1  0.5368260000000  0.5047890000000  0.4787400000000 1.0
C      1  0.5029800000000  0.5622520000000  0.5678900000000 1.0
C      1  0.5653200000000  0.4534250000000  0.4465660000000 1.0
C      1  0.4837940000000  0.5546900000000  0.4135050000000 1.0
C      1  0.4297780000000  0.5467530000000  0.5349540000000 1.0
C      1  0.5393120000000  0.4213970000000  0.5062420000000 1.0
C      1  0.4960300000000  0.4268270000000  0.4143530000000 1.0
C      1  0.6062590000000  0.4990100000000  0.5199800000000 1.0
C      1  0.5860380000000  0.5381380000000  0.5386320000000 1.0
C      1  0.4275400000000  0.5184050000000  0.5752360000000 1.0
C      1  0.5686290000000  0.5450690000000  0.4781570000000 1.0
C      1  0.4567220000000  0.5659130000000  0.5453410000000 1.0
C      1  0.4188690000000  0.4847630000000  0.4909860000000 1.0
C      1  0.4977770000000  0.5655750000000  0.5140530000000 1.0
C      1  0.5743480000000  0.4455340000000  0.4731130000000 1.0
C      1  0.4277880000000  0.5613410000000  0.4702650000000 1.0
C      1  0.4680310000000  0.5164100000000  0.6027090000000 1.0
C      1  0.4516460000000  0.5738010000000  0.4567570000000 1.0
C      1  0.5618320000000  0.5160880000000  0.4782910000000 1.0
C      1  0.4393600000000  0.5190320000000  0.5275430000000 1.0
C      1  0.5157360000000  0.5626990000000  0.5379370000000 1.0
C      1  0.4820310000000  0.5210020000000  0.4608750000000 1.0
C      1  0.5905260000000  0.5100570000000  0.5415230000000 1.0
C      1  0.4480120000000  0.4312280000000  0.4764680000000 1.0
C      1  0.4113770000000  0.5362360000000  0.4740860000000 1.0
C      1  0.5283880000000  0.4992620000000  0.5918310000000 1.0
C      1  0.4920340000000  0.5210150000000  0.5418400000000 1.0
C      1  0.5723530000000  0.5024450000000  0.4211360000000 1.0
C      1  0.4134510000000  0.5613590000000  0.5138160000000 1.0
C      1  0.5108030000000  0.5671470000000  0.4187570000000 1.0
C      1  0.5343920000000  0.4208470000000  0.5352670000000 1.0
C      1  0.6157840000000  0.5164520000000  0.4968520000000 1.0
C      1  0.4721640000000  0.5617850000000  0.5216890000000 1.0
C      1  0.5501940000000  0.5096940000000  0.5741830000000 1.0
C      1  0.4529150000000  0.5925580000000  0.4984400000000 1.0
C      1  0.4571930000000  0.5069210000000  0.5057120000000 1.0
C      1  0.5338650000000  0.5305680000000  0.3959500000000 1.0
C      1  0.4824440000000  0.5262720000000  0.4039540000000 1.0
C      1  0.5436190000000  0.4342550000000  0.4398780000000 1.0
C      1  0.4752320000000  0.5595700000000  0.5701340000000 1.0
C      1  0.4438270000000  0.4714600000000  0.4555500000000 1.0
C      1  0.4421280000000  0.5166830000000  0.4341800000000 1.0
C      1  0.5132360000000  0.4189300000000  0.4912650000000 1.0
C      1  0.4896080000000  0.4140470000000  0.5146860000000 1.0
C      1  0.4279560000000  0.5773930000000  0.4940660000000 1.0
C      1  0.5613260000000  0.5543080000000  0.5466560000000 1.0
C      1  0.5695730000000  0.5455100000000  0.5185400000000 1.0
C      1  0.5147670000000  0.4749640000000  0.5887010000000 1.0
C      1  0.5013110000000  0.4549020000000  0.5803210000000 1.0
C      1  0.4716860000000  0.4198650000000  0.4583860000000 1.0
C      1  0.5209490000000  0.5957940000000  0.4906360000000 1.0
C      1  0.5208890000000  0.5445790000000  0.5824830000000 1.0
C      1  0.5490060000000  0.5061140000000  0.4025130000000 1.0
C      1  0.5091940000000  0.5646370000000  0.4598870000000 1.0
C      1  0.5258420000000  0.4601050000000  0.5171840000000 1.0
C      1  0.5851600000000  0.4927120000000  0.4672120000000 1.0
C      1  0.4380120000000  0.4397660000000  0.5449810000000 1.0
C      1  0.5744810000000  0.4809650000000  0.4418320000000 1.0
C      1  0.5238590000000  0.4926800000000  0.4097720000000 1.0
C      1  0.5187020000000  0.3983130000000  0.4704280000000 1.0
C      1  0.5176680000000  0.4426910000000  0.4290730000000 1.0
C      1  0.4695610000000  0.4624760000000  0.4360040000000 1.0
C      1  0.5420060000000  0.4134870000000  0.4607440000000 1.0
C      1  0.4799180000000  0.3901300000000  0.4958820000000 1.0
C      1  0.5465960000000  0.5368670000000  0.5704370000000 1.0
C      1  0.4890930000000  0.3935560000000  0.4690100000000 1.0
C      1  0.5216510000000  0.4598020000000  0.5452260000000 1.0
C      1  0.4482040000000  0.4388200000000  0.5856190000000 1.0
C      1  0.4434840000000  0.5287590000000  0.5964650000000 1.0
C      1  0.4946650000000  0.4352900000000  0.4690980000000 1.0
C      1  0.5451320000000  0.4432380000000  0.5525290000000 1.0
C      1  0.4695750000000  0.4935440000000  0.5602400000000 1.0
C      1  0.4935960000000  0.4520450000000  0.5527060000000 1.0
C      1  0.3981380000000  0.5103150000000  0.5471550000000 1.0
C      1  0.5065440000000  0.5196070000000  0.5904460000000 1.0
C      1  0.5819750000000  0.5237900000000  0.4364930000000 1.0
C      1  0.5086960000000  0.5151440000000  0.3965960000000 1.0
C      1  0.5064510000000  0.4118440000000  0.5395150000000 1.0
C      1  0.5426760000000  0.5738670000000  0.5330630000000 1.0
C      1  0.5676550000000  0.4612620000000  0.5501460000000 1.0
C      1  0.4905530000000  0.5123070000000  0.5667650000000 1.0
C      1  0.4564930000000  0.5290610000000  0.4557940000000 1.0
C      1  0.5999320000000  0.4713670000000  0.5109340000000 1.0
C      1  0.4996790000000  0.4555360000000  0.4492320000000 1.0
C      1  0.5170040000000  0.4926540000000  0.4380170000000 1.0
C      1  0.4653460000000  0.4897500000000  0.5896340000000 1.0
C      1  0.5281170000000  0.5129450000000  0.5185990000000 1.0
C      1  0.5578790000000  0.4231280000000  0.4836290000000 1.0
C      1  0.4795530000000  0.4443730000000  0.5138060000000 1.0
C      1  0.4657880000000  0.5444240000000  0.5931310000000 1.0
C      1  0.5662360000000  0.4938680000000  0.5518140000000 1.0
C      1  0.4869120000000  0.4237230000000  0.5581200000000 1.0
C      1  0.4908500000000  0.5026160000000  0.4407840000000 1.0
C      1  0.4105820000000  0.5338530000000  0.5566670000000 1.0
C      1  0.4635180000000  0.5239900000000  0.4822890000000 1.0
C      1  0.3945770000000  0.5444030000000  0.4975710000000 1.0
C      1  0.5033690000000  0.4830560000000  0.4851870000000 1.0
C      1  0.4051280000000  0.4707140000000  0.5139590000000 1.0
C      1  0.5500500000000  0.4960580000000  0.5255160000000 1.0
C      1  0.5293370000000  0.5597800000000  0.4391970000000 1.0
C      1  0.4282590000000  0.4448520000000  0.4597440000000 1.0
C      1  0.6064080000000  0.5162060000000  0.4694230000000 1.0
C      1  0.4592890000000  0.5097010000000  0.4116220000000 1.0
C      1  0.4519020000000  0.4655100000000  0.5990680000000 1.0
C      1  0.4631240000000  0.5653100000000  0.4310890000000 1.0
C      1  0.5772640000000  0.4573410000000  0.5231590000000 1.0
C      1  0.4687920000000  0.5902500000000  0.4747880000000 1.0
C      1  0.4556220000000  0.4498560000000  0.4984830000000 1.0
C      1  0.5656240000000  0.5652150000000  0.4996360000000 1.0
C      1  0.4207810000000  0.4548960000000  0.5317780000000 1.0
C      1  0.5173460000000  0.5323390000000  0.5364810000000 1.0
C      1  0.5244050000000  0.4831610000000  0.4650620000000 1.0
C      1  0.5526410000000  0.4710470000000  0.5115410000000 1.0
C      1  0.4756730000000  0.4874350000000  0.4202780000000 1.0
C      1  0.5904040000000  0.4674920000000  0.4839500000000 1.0
C      1  0.4710210000000  0.4328510000000  0.4288740000000 1.0
C      1  0.4138670000000  0.5058630000000  0.4710830000000 1.0
C      1  0.5439220000000  0.5847870000000  0.5066600000000 1.0
C      1  0.4990290000000  0.5922320000000  0.4718120000000 1.0
C      1  0.4428390000000  0.5062290000000  0.5527080000000 1.0
C      1  0.4471470000000  0.4772630000000  0.4893960000000 1.0
C      1  0.4828290000000  0.5028970000000  0.5220440000000 1.0
C      1  0.5079120000000  0.5541930000000  0.4878880000000 1.0
C      1  0.4277350000000  0.4956460000000  0.4478680000000 1.0
C      1  0.5051990000000  0.5032430000000  0.5036990000000 1.0
C      1  0.4645510000000  0.5872210000000  0.5250630000000 1.0
END
