TITL C-4164245-3996-708 -24.3157780122504 125000 -15346.9548558051 0 0 102 (C1) n - 1
REM
REM in /home/nfs/bkarasulu/CARBON/AIRSS/Generating-Clusters/ReaxFF-fromJPCA2015/Units_Real/with-SteepDescent/Only-C1/SD-CG/Try1-3A/FIRE-CG
REM
REM
REM
REM
REM
REM ./C.cell (11c1c37f851c82e70ff6c80c92926a4b)
REM
REM compiler GCC version 9.2.1 20190827 (Red Hat 9.2.1-1)
REM options -cpp -mtune=generic -march=x86-64 -g -O0 -fpre-include=/usr/include/finclude/math-vector-fortran.h
REM seed 1577902464 602634113 1417234107 1829534992 -165132043 1838131521 1903827927 -1578084298 45942741 841616709 -168952644 -1618830891 1833378949 -107318410 883123126 223063259 1011079121 1298285300 748962568 -1548021420 641027429 -806000661 1181084607 -596639461 -594460434 1576514714 1441358177 -578253526 -266307837 -491585005 481005263 1143042144 -2007212747
REM
CELL 1.54180   50.00000   50.00000   50.00000   90.00000   90.00000   90.00000
LATT -1
SFAC C  
C      1  0.5075510000000  0.4595090000000  0.4294230000000 1.0
C      1  0.5562230000000  0.4918780000000  0.4243280000000 1.0
C      1  0.5401320000000  0.5705010000000  0.5361550000000 1.0
C      1  0.4287490000000  0.4845210000000  0.5036680000000 1.0
C      1  0.5009180000000  0.5918990000000  0.4982670000000 1.0
C      1  0.4956200000000  0.5220430000000  0.5027380000000 1.0
C      1  0.4467010000000  0.4612170000000  0.5593850000000 1.0
C      1  0.5076550000000  0.4852570000000  0.4150690000000 1.0
C      1  0.5149410000000  0.4161550000000  0.5032700000000 1.0
C      1  0.5076730000000  0.4828470000000  0.5292620000000 1.0
C      1  0.5254680000000  0.5377120000000  0.4077640000000 1.0
C      1  0.4542220000000  0.4769940000000  0.5821830000000 1.0
C      1  0.4785820000000  0.4953910000000  0.4665860000000 1.0
C      1  0.5191830000000  0.5595250000000  0.4233540000000 1.0
C      1  0.4888560000000  0.5366970000000  0.5594920000000 1.0
C      1  0.4364570000000  0.4800160000000  0.4374140000000 1.0
C      1  0.4717580000000  0.4401660000000  0.4640910000000 1.0
C      1  0.5486230000000  0.5188150000000  0.4839620000000 1.0
C      1  0.4908060000000  0.5831950000000  0.5373820000000 1.0
C      1  0.5373720000000  0.4192950000000  0.4824740000000 1.0
C      1  0.5132580000000  0.5794190000000  0.4398090000000 1.0
C      1  0.4225810000000  0.4661940000000  0.5431730000000 1.0
C      1  0.4487960000000  0.4485520000000  0.4745540000000 1.0
C      1  0.4943180000000  0.4596420000000  0.4911400000000 1.0
C      1  0.4730190000000  0.5112950000000  0.5527110000000 1.0
C      1  0.5646050000000  0.4762630000000  0.5514590000000 1.0
C      1  0.4671710000000  0.5177450000000  0.5064000000000 1.0
C      1  0.5145500000000  0.5444880000000  0.5068050000000 1.0
C      1  0.5567340000000  0.4221410000000  0.5027460000000 1.0
C      1  0.4213690000000  0.4999680000000  0.4541370000000 1.0
C      1  0.4530880000000  0.5759170000000  0.5113330000000 1.0
C      1  0.5099510000000  0.5017790000000  0.4901290000000 1.0
C      1  0.4889690000000  0.4313150000000  0.4976900000000 1.0
C      1  0.5741010000000  0.4392010000000  0.5175380000000 1.0
C      1  0.5335900000000  0.5552130000000  0.5602460000000 1.0
C      1  0.5721360000000  0.5553050000000  0.4944270000000 1.0
C      1  0.5219810000000  0.5589800000000  0.4820650000000 1.0
C      1  0.4512270000000  0.5064260000000  0.5761950000000 1.0
C      1  0.5016070000000  0.4939950000000  0.5979840000000 1.0
C      1  0.4126240000000  0.5258590000000  0.4962090000000 1.0
C      1  0.4278400000000  0.5444280000000  0.4790140000000 1.0
C      1  0.5151710000000  0.5344950000000  0.5709620000000 1.0
C      1  0.4605930000000  0.4889970000000  0.5076330000000 1.0
C      1  0.5691820000000  0.5003150000000  0.4493560000000 1.0
C      1  0.5227350000000  0.5070210000000  0.5834920000000 1.0
C      1  0.4930010000000  0.5268350000000  0.4302210000000 1.0
C      1  0.4822040000000  0.4718100000000  0.5894960000000 1.0
C      1  0.5455090000000  0.5332070000000  0.4591450000000 1.0
C      1  0.4653190000000  0.4780290000000  0.4297920000000 1.0
C      1  0.4833680000000  0.4997330000000  0.4200520000000 1.0
C      1  0.4138700000000  0.4916400000000  0.5277150000000 1.0
C      1  0.5065740000000  0.4998710000000  0.4635390000000 1.0
C      1  0.5495220000000  0.5583190000000  0.4731970000000 1.0
C      1  0.4368890000000  0.4604250000000  0.4561030000000 1.0
C      1  0.4737670000000  0.4541080000000  0.5469470000000 1.0
C      1  0.4729640000000  0.5635890000000  0.4666790000000 1.0
C      1  0.4500440000000  0.5633100000000  0.4846230000000 1.0
C      1  0.4747410000000  0.5411290000000  0.4486660000000 1.0
C      1  0.4754110000000  0.4310340000000  0.5245790000000 1.0
C      1  0.4792360000000  0.4835120000000  0.5345510000000 1.0
C      1  0.4940100000000  0.4537320000000  0.5705450000000 1.0
C      1  0.5225790000000  0.4546250000000  0.5677390000000 1.0
C      1  0.5637640000000  0.4488330000000  0.5441400000000 1.0
C      1  0.5463900000000  0.5103920000000  0.5319800000000 1.0
C      1  0.4300160000000  0.5239470000000  0.5731340000000 1.0
C      1  0.5847100000000  0.4598700000000  0.4424430000000 1.0
C      1  0.5743640000000  0.4602120000000  0.4966330000000 1.0
C      1  0.4807250000000  0.4548980000000  0.4408260000000 1.0
C      1  0.4760320000000  0.5613700000000  0.5502570000000 1.0
C      1  0.5261000000000  0.4966320000000  0.5448320000000 1.0
C      1  0.4344120000000  0.5259500000000  0.4572860000000 1.0
C      1  0.5419090000000  0.5306220000000  0.5121960000000 1.0
C      1  0.5304260000000  0.5049650000000  0.4172800000000 1.0
C      1  0.5894050000000  0.5041550000000  0.5092730000000 1.0
C      1  0.4767520000000  0.5931580000000  0.5140030000000 1.0
C      1  0.5246100000000  0.4194290000000  0.5307130000000 1.0
C      1  0.5005260000000  0.5770830000000  0.4711330000000 1.0
C      1  0.5927570000000  0.4815130000000  0.4899460000000 1.0
C      1  0.5584150000000  0.4629060000000  0.4279890000000 1.0
C      1  0.5138440000000  0.5768080000000  0.5207780000000 1.0
C      1  0.4133530000000  0.5207660000000  0.5245710000000 1.0
C      1  0.5380040000000  0.4357870000000  0.5518680000000 1.0
C      1  0.5190600000000  0.5189590000000  0.4449740000000 1.0
C      1  0.5596680000000  0.5553430000000  0.5207470000000 1.0
C      1  0.4706640000000  0.4743440000000  0.4851170000000 1.0
C      1  0.4140220000000  0.4990190000000  0.4827350000000 1.0
C      1  0.5462490000000  0.4668780000000  0.4852890000000 1.0
C      1  0.4498820000000  0.5624480000000  0.5370120000000 1.0
C      1  0.4583370000000  0.5236010000000  0.5322570000000 1.0
C      1  0.4626520000000  0.5202150000000  0.4660140000000 1.0
C      1  0.5850740000000  0.5305400000000  0.5001150000000 1.0
C      1  0.5376880000000  0.4813550000000  0.5665380000000 1.0
C      1  0.5714550000000  0.4978340000000  0.5334880000000 1.0
C      1  0.4495980000000  0.4276380000000  0.5166710000000 1.0
C      1  0.5382170000000  0.4442820000000  0.4667960000000 1.0
C      1  0.5335870000000  0.4495440000000  0.4385780000000 1.0
C      1  0.5153220000000  0.4765180000000  0.5021970000000 1.0
C      1  0.5912350000000  0.4830740000000  0.4600320000000 1.0
C      1  0.4336980000000  0.5355870000000  0.5417620000000 1.0
C      1  0.4168290000000  0.4501130000000  0.5199070000000 1.0
C      1  0.4309150000000  0.4363300000000  0.4988760000000 1.0
C      1  0.5516440000000  0.4935930000000  0.4725510000000 1.0
END
