TITL C-4164232-771-222 32.387878432839 125000 -24130.5461364275 0 0 161 (C1) n - 1
REM
REM in /home/nfs/bkarasulu/CARBON/AIRSS/Generating-Clusters/ReaxFF-fromJPCA2015/Units_Real/with-SteepDescent/Only-C1/SD-CG/Try1-3A/FIRE-CG
REM
REM
REM
REM
REM
REM ./C.cell (11c1c37f851c82e70ff6c80c92926a4b)
REM
REM compiler GCC version 9.2.1 20190827 (Red Hat 9.2.1-1)
REM options -cpp -mtune=generic -march=x86-64 -g -O0 -fpre-include=/usr/include/finclude/math-vector-fortran.h
REM seed -1294806100 -1783552843 2063870851 -186456893 675401304 -1726986662 -1376734586 -302816550 -1601728567 976391976 -2140366577 1048651211 -1186924614 121810602 -2081544053 -164744013 1338165585 324232419 -1022649781 1678103647 945991590 1290614820 954661288 1430798799 1286019797 76955429 1238341856 581167340 -1070920898 998842641 -1160836860 856709344 1573002740
REM
CELL 1.54180   50.00000   50.00000   50.00000   90.00000   90.00000   90.00000
LATT -1
SFAC C  
C      1  0.4930360000000  0.3954780000000  0.5243500000000 1.0
C      1  0.4605450000000  0.5148100000000  0.4083750000000 1.0
C      1  0.5565110000000  0.5400420000000  0.5763110000000 1.0
C      1  0.4110900000000  0.5546930000000  0.5024070000000 1.0
C      1  0.5265540000000  0.4108320000000  0.4379350000000 1.0
C      1  0.4524580000000  0.5357950000000  0.5082160000000 1.0
C      1  0.5814660000000  0.5653450000000  0.4787550000000 1.0
C      1  0.4103060000000  0.5240030000000  0.5489150000000 1.0
C      1  0.4586260000000  0.5548240000000  0.5858190000000 1.0
C      1  0.4707220000000  0.5505550000000  0.4893180000000 1.0
C      1  0.5625110000000  0.4211420000000  0.5497640000000 1.0
C      1  0.4487530000000  0.4298590000000  0.5715620000000 1.0
C      1  0.4326870000000  0.5114630000000  0.5659450000000 1.0
C      1  0.5778200000000  0.5419640000000  0.5320430000000 1.0
C      1  0.4350060000000  0.5415530000000  0.4616500000000 1.0
C      1  0.4555630000000  0.4074920000000  0.5533210000000 1.0
C      1  0.5242050000000  0.4808980000000  0.5017690000000 1.0
C      1  0.4105910000000  0.4492350000000  0.5180490000000 1.0
C      1  0.4842220000000  0.4501230000000  0.4157240000000 1.0
C      1  0.5000610000000  0.4864890000000  0.5415840000000 1.0
C      1  0.5639380000000  0.4938170000000  0.5864420000000 1.0
C      1  0.4974390000000  0.5507540000000  0.4991820000000 1.0
C      1  0.4284270000000  0.5770160000000  0.5103480000000 1.0
C      1  0.4673540000000  0.4851500000000  0.5957340000000 1.0
C      1  0.4526440000000  0.4764220000000  0.5316120000000 1.0
C      1  0.5501890000000  0.4828650000000  0.4937010000000 1.0
C      1  0.5319600000000  0.5290380000000  0.5876740000000 1.0
C      1  0.4546500000000  0.5012260000000  0.5455910000000 1.0
C      1  0.5010590000000  0.6065520000000  0.5084880000000 1.0
C      1  0.4609980000000  0.5100420000000  0.4367710000000 1.0
C      1  0.5022410000000  0.5297770000000  0.5803070000000 1.0
C      1  0.4790970000000  0.6076230000000  0.5426580000000 1.0
C      1  0.5622380000000  0.5575760000000  0.5539120000000 1.0
C      1  0.4973490000000  0.4716170000000  0.5593780000000 1.0
C      1  0.5114510000000  0.4005680000000  0.5472420000000 1.0
C      1  0.3921710000000  0.4944790000000  0.5127190000000 1.0
C      1  0.5538710000000  0.4481980000000  0.4292590000000 1.0
C      1  0.4925720000000  0.5987750000000  0.4630040000000 1.0
C      1  0.5020990000000  0.4321630000000  0.4978890000000 1.0
C      1  0.5044090000000  0.5059450000000  0.4937580000000 1.0
C      1  0.4312170000000  0.4942480000000  0.4768260000000 1.0
C      1  0.5383390000000  0.5031830000000  0.5980580000000 1.0
C      1  0.5444780000000  0.5570600000000  0.5045310000000 1.0
C      1  0.5527020000000  0.4175160000000  0.4327410000000 1.0
C      1  0.4474720000000  0.5486280000000  0.5330690000000 1.0
C      1  0.4362340000000  0.4566560000000  0.5674240000000 1.0
C      1  0.5139490000000  0.4869450000000  0.6018790000000 1.0
C      1  0.4495680000000  0.5750870000000  0.5650650000000 1.0
C      1  0.5292680000000  0.4934270000000  0.5336320000000 1.0
C      1  0.5158190000000  0.5176030000000  0.4023490000000 1.0
C      1  0.4014440000000  0.4722140000000  0.4484760000000 1.0
C      1  0.4018770000000  0.4804190000000  0.4758100000000 1.0
C      1  0.5552310000000  0.4904060000000  0.4182960000000 1.0
C      1  0.3931840000000  0.4689570000000  0.5017110000000 1.0
C      1  0.5340370000000  0.4491720000000  0.5429440000000 1.0
C      1  0.5050760000000  0.5344870000000  0.5225090000000 1.0
C      1  0.4713750000000  0.4904980000000  0.3970220000000 1.0
C      1  0.5383380000000  0.4664990000000  0.4127090000000 1.0
C      1  0.5061170000000  0.3990010000000  0.4979710000000 1.0
C      1  0.5800320000000  0.5281710000000  0.4365020000000 1.0
C      1  0.5023620000000  0.5431360000000  0.4076270000000 1.0
C      1  0.5192590000000  0.5880740000000  0.5563550000000 1.0
C      1  0.5309470000000  0.5833340000000  0.4706850000000 1.0
C      1  0.4427600000000  0.4818500000000  0.5801300000000 1.0
C      1  0.5071630000000  0.4886670000000  0.4487260000000 1.0
C      1  0.4649030000000  0.4026500000000  0.5260200000000 1.0
C      1  0.4886710000000  0.5553240000000  0.5874980000000 1.0
C      1  0.5599720000000  0.5090410000000  0.4903990000000 1.0
C      1  0.5608060000000  0.4310200000000  0.5022840000000 1.0
C      1  0.4499910000000  0.5064770000000  0.4983170000000 1.0
C      1  0.4335360000000  0.4640940000000  0.4216380000000 1.0
C      1  0.5031940000000  0.3987710000000  0.4707850000000 1.0
C      1  0.5070730000000  0.6068190000000  0.5375430000000 1.0
C      1  0.5489310000000  0.4417740000000  0.5685960000000 1.0
C      1  0.5130790000000  0.5112850000000  0.4657090000000 1.0
C      1  0.3937310000000  0.5264020000000  0.4562580000000 1.0
C      1  0.5204230000000  0.4349240000000  0.5840550000000 1.0
C      1  0.4977620000000  0.5793070000000  0.5746610000000 1.0
C      1  0.4421200000000  0.5312510000000  0.5873130000000 1.0
C      1  0.5097860000000  0.4554960000000  0.6021880000000 1.0
C      1  0.4732870000000  0.4595340000000  0.4891480000000 1.0
C      1  0.5460280000000  0.5800990000000  0.5482120000000 1.0
C      1  0.5787010000000  0.4323270000000  0.5272200000000 1.0
C      1  0.5139420000000  0.6052920000000  0.4820730000000 1.0
C      1  0.5604690000000  0.5388100000000  0.4167770000000 1.0
C      1  0.4333560000000  0.5701490000000  0.5406150000000 1.0
C      1  0.4544330000000  0.4253560000000  0.4483590000000 1.0
C      1  0.4672760000000  0.4753840000000  0.4673110000000 1.0
C      1  0.5217840000000  0.5600820000000  0.4871980000000 1.0
C      1  0.4278810000000  0.4298680000000  0.5098770000000 1.0
C      1  0.5777800000000  0.4987690000000  0.4365670000000 1.0
C      1  0.4094830000000  0.5458360000000  0.4740330000000 1.0
C      1  0.4467050000000  0.4104270000000  0.5028710000000 1.0
C      1  0.5608920000000  0.4706720000000  0.5695040000000 1.0
C      1  0.5601930000000  0.5882280000000  0.4762080000000 1.0
C      1  0.5073300000000  0.4488220000000  0.5500810000000 1.0
C      1  0.5009180000000  0.4919500000000  0.3982470000000 1.0
C      1  0.5917990000000  0.4855420000000  0.4588490000000 1.0
C      1  0.5909420000000  0.5497990000000  0.5013760000000 1.0
C      1  0.5751330000000  0.5177310000000  0.5734140000000 1.0
C      1  0.4535480000000  0.5800760000000  0.4513300000000 1.0
C      1  0.5917220000000  0.5002980000000  0.4856470000000 1.0
C      1  0.4515350000000  0.5932890000000  0.4987100000000 1.0
C      1  0.4363010000000  0.5152200000000  0.4511020000000 1.0
C      1  0.5735700000000  0.4101750000000  0.4530940000000 1.0
C      1  0.4349490000000  0.4479300000000  0.4461390000000 1.0
C      1  0.5527440000000  0.5316600000000  0.5146360000000 1.0
C      1  0.4954080000000  0.4422720000000  0.5251240000000 1.0
C      1  0.5834190000000  0.4946040000000  0.5359300000000 1.0
C      1  0.5449260000000  0.4566440000000  0.4554840000000 1.0
C      1  0.4287090000000  0.4614030000000  0.5388680000000 1.0
C      1  0.5518210000000  0.6028410000000  0.4987580000000 1.0
C      1  0.4605340000000  0.4659510000000  0.4088000000000 1.0
C      1  0.6018300000000  0.5292190000000  0.4837970000000 1.0
C      1  0.4822600000000  0.5067510000000  0.5489090000000 1.0
C      1  0.4733270000000  0.5914560000000  0.5641150000000 1.0
C      1  0.4944730000000  0.5311890000000  0.5483090000000 1.0
C      1  0.4790960000000  0.4274160000000  0.4332160000000 1.0
C      1  0.4913210000000  0.5019330000000  0.5949840000000 1.0
C      1  0.5436760000000  0.5440940000000  0.4533880000000 1.0
C      1  0.5749030000000  0.4143800000000  0.4815960000000 1.0
C      1  0.4120820000000  0.5088840000000  0.5257110000000 1.0
C      1  0.4726790000000  0.5414070000000  0.4013930000000 1.0
C      1  0.4404920000000  0.4679330000000  0.4677620000000 1.0
C      1  0.5566820000000  0.4818380000000  0.5431770000000 1.0
C      1  0.5169950000000  0.4627400000000  0.4589540000000 1.0
C      1  0.4104160000000  0.4829740000000  0.4244150000000 1.0
C      1  0.4012520000000  0.5335700000000  0.5227280000000 1.0
C      1  0.5906610000000  0.4571730000000  0.5203020000000 1.0
C      1  0.5909270000000  0.5434340000000  0.4601320000000 1.0
C      1  0.5392050000000  0.4067300000000  0.5389590000000 1.0
C      1  0.5510480000000  0.5823570000000  0.5182630000000 1.0
C      1  0.4638780000000  0.5969340000000  0.4725340000000 1.0
C      1  0.4797690000000  0.4938140000000  0.4506290000000 1.0
C      1  0.5155860000000  0.4567280000000  0.4872150000000 1.0
C      1  0.5968000000000  0.4833020000000  0.5126470000000 1.0
C      1  0.4771950000000  0.4648570000000  0.5182750000000 1.0
C      1  0.5419880000000  0.5590560000000  0.4297470000000 1.0
C      1  0.5412760000000  0.5202700000000  0.4681540000000 1.0
C      1  0.4734460000000  0.4146680000000  0.5754830000000 1.0
C      1  0.5029100000000  0.4149450000000  0.5713970000000 1.0
C      1  0.4980810000000  0.5873510000000  0.4360650000000 1.0
C      1  0.5090850000000  0.4661390000000  0.4077560000000 1.0
C      1  0.4574030000000  0.5555180000000  0.4652790000000 1.0
C      1  0.5608940000000  0.4592410000000  0.4821690000000 1.0
C      1  0.4646380000000  0.5639260000000  0.4151290000000 1.0
C      1  0.4810920000000  0.4599700000000  0.6074810000000 1.0
C      1  0.4697010000000  0.5881590000000  0.4270850000000 1.0
C      1  0.5134500000000  0.5655460000000  0.4232080000000 1.0
C      1  0.5443780000000  0.5154380000000  0.4079650000000 1.0
C      1  0.4767510000000  0.5043780000000  0.4959450000000 1.0
C      1  0.5882510000000  0.4585490000000  0.4683280000000 1.0
C      1  0.4587240000000  0.4141940000000  0.4754150000000 1.0
C      1  0.4789930000000  0.4333470000000  0.4816630000000 1.0
C      1  0.5295880000000  0.5229050000000  0.5291510000000 1.0
C      1  0.4723850000000  0.6052640000000  0.5149310000000 1.0
C      1  0.5925290000000  0.4301560000000  0.4637590000000 1.0
C      1  0.5862290000000  0.5193380000000  0.5475870000000 1.0
C      1  0.5344290000000  0.4299210000000  0.5207580000000 1.0
C      1  0.4086170000000  0.5114090000000  0.4360740000000 1.0
C      1  0.4999700000000  0.4060890000000  0.4427040000000 1.0
END
