TITL C-4164241-3639-248 1.40597748034912 125000 -9274.29665752245 0 0 64 (C1) n - 1
REM
REM in /home/nfs/bkarasulu/CARBON/AIRSS/Generating-Clusters/ReaxFF-fromJPCA2015/Units_Real/with-SteepDescent/Only-C1/SD-CG/Try1-3A/FIRE-CG
REM
REM
REM
REM
REM
REM ./C.cell (11c1c37f851c82e70ff6c80c92926a4b)
REM
REM compiler GCC version 9.2.1 20190827 (Red Hat 9.2.1-1)
REM options -cpp -mtune=generic -march=x86-64 -g -O0 -fpre-include=/usr/include/finclude/math-vector-fortran.h
REM seed -1381218998 248575418 2113430908 -2001330879 840105324 98762781 -925255336 1966945461 -2049172871 1704319629 -916821126 -895164678 462335089 722784611 -595027470 -1475625509 872850041 -414012346 -299294838 -2128488279 -49837997 1004801381 -1246630207 789224985 2021147618 30558102 -397258772 204117935 593342263 -631363308 -1818971754 -1808120002 -87200104
REM
CELL 1.54180   50.00000   50.00000   50.00000   90.00000   90.00000   90.00000
LATT -1
SFAC C  
C      1  0.4931200000000  0.4886720000000  0.5113840000000 1.0
C      1  0.5581000000000  0.5466730000000  0.4882690000000 1.0
C      1  0.4997330000000  0.5943460000000  0.4829450000000 1.0
C      1  0.4937090000000  0.5162470000000  0.4441450000000 1.0
C      1  0.5063700000000  0.5238140000000  0.4708480000000 1.0
C      1  0.4887310000000  0.5278950000000  0.5191880000000 1.0
C      1  0.5755200000000  0.5083370000000  0.4950870000000 1.0
C      1  0.4919180000000  0.4773710000000  0.4606420000000 1.0
C      1  0.4595160000000  0.4345540000000  0.5221420000000 1.0
C      1  0.4933430000000  0.5712340000000  0.5258670000000 1.0
C      1  0.5250940000000  0.5346090000000  0.5433530000000 1.0
C      1  0.4777110000000  0.4377530000000  0.4721490000000 1.0
C      1  0.4655480000000  0.5414640000000  0.5310570000000 1.0
C      1  0.4682380000000  0.5290140000000  0.4469470000000 1.0
C      1  0.4286790000000  0.4838180000000  0.5134930000000 1.0
C      1  0.4999980000000  0.4907070000000  0.5571280000000 1.0
C      1  0.5192750000000  0.4641140000000  0.5286830000000 1.0
C      1  0.4520610000000  0.5223480000000  0.4890910000000 1.0
C      1  0.5029570000000  0.4894570000000  0.4349050000000 1.0
C      1  0.5069360000000  0.4375730000000  0.4824020000000 1.0
C      1  0.4565280000000  0.4384940000000  0.4916580000000 1.0
C      1  0.5568450000000  0.4486980000000  0.4929980000000 1.0
C      1  0.4688440000000  0.5552090000000  0.4617060000000 1.0
C      1  0.4726560000000  0.4742790000000  0.5027110000000 1.0
C      1  0.4343040000000  0.4787130000000  0.5425210000000 1.0
C      1  0.4330740000000  0.5118430000000  0.5107390000000 1.0
C      1  0.5243510000000  0.5122010000000  0.4918590000000 1.0
C      1  0.5544260000000  0.4458470000000  0.5216260000000 1.0
C      1  0.5124270000000  0.5814860000000  0.5061490000000 1.0
C      1  0.5391140000000  0.4413290000000  0.4714240000000 1.0
C      1  0.4975480000000  0.4627610000000  0.5481740000000 1.0
C      1  0.4447670000000  0.4816980000000  0.4595230000000 1.0
C      1  0.5476000000000  0.4693940000000  0.5380740000000 1.0
C      1  0.4463470000000  0.4681040000000  0.4918570000000 1.0
C      1  0.4894700000000  0.5315720000000  0.5636740000000 1.0
C      1  0.5301430000000  0.5581450000000  0.4934070000000 1.0
C      1  0.5710050000000  0.5102180000000  0.5242890000000 1.0
C      1  0.5634180000000  0.5232180000000  0.4706620000000 1.0
C      1  0.4581860000000  0.5522410000000  0.4880160000000 1.0
C      1  0.5513060000000  0.4975170000000  0.5427820000000 1.0
C      1  0.4672680000000  0.5644070000000  0.5133920000000 1.0
C      1  0.4759860000000  0.5062980000000  0.5658530000000 1.0
C      1  0.5253340000000  0.5071740000000  0.5531990000000 1.0
C      1  0.4487130000000  0.5024750000000  0.5545990000000 1.0
C      1  0.4838070000000  0.5130340000000  0.4966640000000 1.0
C      1  0.4843030000000  0.4636790000000  0.4229000000000 1.0
C      1  0.5049530000000  0.4291750000000  0.5114710000000 1.0
C      1  0.4872300000000  0.4394670000000  0.5314610000000 1.0
C      1  0.5278460000000  0.4352380000000  0.5265030000000 1.0
C      1  0.5088600000000  0.4672960000000  0.4803260000000 1.0
C      1  0.5347850000000  0.4869480000000  0.4402650000000 1.0
C      1  0.5572670000000  0.4762620000000  0.4825420000000 1.0
C      1  0.5183840000000  0.5318020000000  0.5132660000000 1.0
C      1  0.4424280000000  0.5233810000000  0.5359850000000 1.0
C      1  0.5484390000000  0.5064730000000  0.4533420000000 1.0
C      1  0.5295330000000  0.4839530000000  0.4922080000000 1.0
C      1  0.5471670000000  0.4647020000000  0.4555660000000 1.0
C      1  0.4481910000000  0.5108140000000  0.4599620000000 1.0
C      1  0.4715420000000  0.4576100000000  0.4500140000000 1.0
C      1  0.4446550000000  0.4536660000000  0.5359800000000 1.0
C      1  0.5142230000000  0.5533450000000  0.4689280000000 1.0
C      1  0.5740670000000  0.5353800000000  0.5097710000000 1.0
C      1  0.5025690000000  0.5525290000000  0.5495100000000 1.0
C      1  0.4935340000000  0.5719240000000  0.4627190000000 1.0
END
