TITL C-4164233-775-172 -1.50975338226153 125000 -2995.21430634762 0 0 22 (C1) n - 1
REM
REM in /home/nfs/bkarasulu/CARBON/AIRSS/Generating-Clusters/ReaxFF-fromJPCA2015/Units_Real/with-SteepDescent/Only-C1/SD-CG/Try1-3A/FIRE-CG
REM
REM
REM
REM
REM
REM ./C.cell (11c1c37f851c82e70ff6c80c92926a4b)
REM
REM compiler GCC version 9.2.1 20190827 (Red Hat 9.2.1-1)
REM options -cpp -mtune=generic -march=x86-64 -g -O0 -fpre-include=/usr/include/finclude/math-vector-fortran.h
REM seed -711924435 -1485682618 -621789234 1889439031 576948832 461577315 1564867804 -579060504 -632273632 1784845218 495191856 -312779975 -1465839827 2133425937 1588871851 1985507265 -1541648113 -1243396850 -479500240 -1080070206 1026371501 -1072242862 -676785652 1399917450 969855915 -1996804700 -1886088129 -787291606 953830256 -1185541646 -1827598755 194605122 1958946938
REM
CELL 1.54180   50.00000   50.00000   50.00000   90.00000   90.00000   90.00000
LATT -1
SFAC C  
C      1  0.4880910000000  0.5203630000000  0.5314730000000 1.0
C      1  0.5252410000000  0.5326300000000  0.4641170000000 1.0
C      1  0.5378540000000  0.4193240000000  0.5243490000000 1.0
C      1  0.5123850000000  0.4771900000000  0.4978240000000 1.0
C      1  0.4723380000000  0.5124290000000  0.5063210000000 1.0
C      1  0.4909290000000  0.4946670000000  0.4872730000000 1.0
C      1  0.4743170000000  0.4459000000000  0.5206680000000 1.0
C      1  0.4472000000000  0.4916860000000  0.5155990000000 1.0
C      1  0.4915470000000  0.5048260000000  0.4595870000000 1.0
C      1  0.4750250000000  0.5644020000000  0.4951330000000 1.0
C      1  0.5259860000000  0.4438860000000  0.5373340000000 1.0
C      1  0.4950080000000  0.5699530000000  0.5163110000000 1.0
C      1  0.4637250000000  0.5379070000000  0.4919180000000 1.0
C      1  0.4766660000000  0.5496660000000  0.4690700000000 1.0
C      1  0.5067370000000  0.4497100000000  0.5130910000000 1.0
C      1  0.5432070000000  0.5233950000000  0.4744750000000 1.0
C      1  0.4974700000000  0.5344070000000  0.4551550000000 1.0
C      1  0.4581930000000  0.4672680000000  0.5191310000000 1.0
C      1  0.5201030000000  0.4240930000000  0.5004100000000 1.0
C      1  0.5365570000000  0.4876430000000  0.4951940000000 1.0
C      1  0.5608810000000  0.5021490000000  0.4906740000000 1.0
C      1  0.5005380000000  0.5465060000000  0.5348920000000 1.0
END
