TITL C-4164239-2837-719 8.92247879055686 125000 -12870.0113811226 0 0 86 (C1) n - 1
REM
REM in /home/nfs/bkarasulu/CARBON/AIRSS/Generating-Clusters/ReaxFF-fromJPCA2015/Units_Real/with-SteepDescent/Only-C1/SD-CG/Try1-3A/FIRE-CG
REM
REM
REM
REM
REM
REM ./C.cell (11c1c37f851c82e70ff6c80c92926a4b)
REM
REM compiler GCC version 9.2.1 20190827 (Red Hat 9.2.1-1)
REM options -cpp -mtune=generic -march=x86-64 -g -O0 -fpre-include=/usr/include/finclude/math-vector-fortran.h
REM seed 281838022 -679867121 1193528322 -1375187156 1907679151 1547970683 -1537571441 1844226558 -1078158587 -1969385837 1929646038 -337631536 1631898820 1789165858 -1461349793 -1821901314 180303100 1990270126 -2082865913 -734505494 -1217370648 -1367830014 586138753 420727585 1032831730 -1058414203 -1600535665 -28811610 -1870131015 1391286950 -532584841 -465890085 -2050819394
REM
CELL 1.54180   50.00000   50.00000   50.00000   90.00000   90.00000   90.00000
LATT -1
SFAC C  
C      1  0.4512520000000  0.5729640000000  0.4845550000000 1.0
C      1  0.5773660000000  0.5081960000000  0.4754530000000 1.0
C      1  0.5263910000000  0.5217960000000  0.4341660000000 1.0
C      1  0.5700720000000  0.5337170000000  0.4848430000000 1.0
C      1  0.4418340000000  0.4850650000000  0.5348180000000 1.0
C      1  0.4798760000000  0.4877150000000  0.4469720000000 1.0
C      1  0.5041120000000  0.4825170000000  0.5159420000000 1.0
C      1  0.4964060000000  0.4823640000000  0.4225640000000 1.0
C      1  0.5200160000000  0.4883670000000  0.5670250000000 1.0
C      1  0.4866350000000  0.4376130000000  0.5278620000000 1.0
C      1  0.5240680000000  0.4178560000000  0.5227160000000 1.0
C      1  0.4272320000000  0.4837970000000  0.4581430000000 1.0
C      1  0.4525220000000  0.5236380000000  0.5684470000000 1.0
C      1  0.5472010000000  0.4347610000000  0.5297410000000 1.0
C      1  0.4514340000000  0.5482790000000  0.5523890000000 1.0
C      1  0.5471340000000  0.5329860000000  0.5730290000000 1.0
C      1  0.4672920000000  0.5791980000000  0.5049290000000 1.0
C      1  0.4972380000000  0.5244490000000  0.5787680000000 1.0
C      1  0.5060390000000  0.4235570000000  0.5448340000000 1.0
C      1  0.4557830000000  0.5104280000000  0.5403600000000 1.0
C      1  0.4445070000000  0.4726670000000  0.4371390000000 1.0
C      1  0.5150210000000  0.4429410000000  0.5653150000000 1.0
C      1  0.5244080000000  0.5426300000000  0.5325050000000 1.0
C      1  0.4290010000000  0.5126010000000  0.4579990000000 1.0
C      1  0.4860080000000  0.4242250000000  0.4795620000000 1.0
C      1  0.5007530000000  0.5288130000000  0.4209610000000 1.0
C      1  0.5510700000000  0.5493910000000  0.5479460000000 1.0
C      1  0.4854600000000  0.5134620000000  0.5354570000000 1.0
C      1  0.5909310000000  0.4937690000000  0.4983440000000 1.0
C      1  0.4891690000000  0.5769970000000  0.4701280000000 1.0
C      1  0.5231800000000  0.4733530000000  0.4277470000000 1.0
C      1  0.5107040000000  0.4167380000000  0.4955690000000 1.0
C      1  0.4578040000000  0.5492190000000  0.4397920000000 1.0
C      1  0.5413140000000  0.4504750000000  0.5537810000000 1.0
C      1  0.4444160000000  0.4469860000000  0.4754050000000 1.0
C      1  0.4583980000000  0.4261640000000  0.4906450000000 1.0
C      1  0.5004450000000  0.4657330000000  0.5757450000000 1.0
C      1  0.4777160000000  0.5588750000000  0.5464260000000 1.0
C      1  0.5840610000000  0.4944540000000  0.5265200000000 1.0
C      1  0.4736530000000  0.5075310000000  0.5802470000000 1.0
C      1  0.4360850000000  0.5340230000000  0.5312910000000 1.0
C      1  0.4880580000000  0.5744080000000  0.5241840000000 1.0
C      1  0.5574350000000  0.4998980000000  0.5387940000000 1.0
C      1  0.5396870000000  0.5171310000000  0.5226720000000 1.0
C      1  0.5246210000000  0.5168950000000  0.5822420000000 1.0
C      1  0.4429940000000  0.5548610000000  0.4645840000000 1.0
C      1  0.5649940000000  0.5492130000000  0.5228130000000 1.0
C      1  0.4874890000000  0.5007480000000  0.4722730000000 1.0
C      1  0.5309720000000  0.5695060000000  0.4909670000000 1.0
C      1  0.4883490000000  0.5474650000000  0.4839050000000 1.0
C      1  0.4961290000000  0.5363540000000  0.5497870000000 1.0
C      1  0.5170030000000  0.5829520000000  0.4663990000000 1.0
C      1  0.5154810000000  0.5665330000000  0.5169410000000 1.0
C      1  0.4293960000000  0.4704990000000  0.4839240000000 1.0
C      1  0.5623720000000  0.4924300000000  0.4542540000000 1.0
C      1  0.4600020000000  0.4403050000000  0.5409210000000 1.0
C      1  0.4592760000000  0.4511990000000  0.4505140000000 1.0
C      1  0.5285820000000  0.5243100000000  0.4635200000000 1.0
C      1  0.4475100000000  0.4243430000000  0.5187990000000 1.0
C      1  0.4409410000000  0.5271400000000  0.4800040000000 1.0
C      1  0.4745370000000  0.4779460000000  0.5722900000000 1.0
C      1  0.5333010000000  0.4485680000000  0.4644060000000 1.0
C      1  0.5010610000000  0.4918120000000  0.5425120000000 1.0
C      1  0.4441610000000  0.5239950000000  0.4366560000000 1.0
C      1  0.4866320000000  0.4408610000000  0.4554760000000 1.0
C      1  0.5503350000000  0.4717250000000  0.4956150000000 1.0
C      1  0.5616910000000  0.5572940000000  0.4958870000000 1.0
C      1  0.5205550000000  0.4434360000000  0.4907530000000 1.0
C      1  0.4596820000000  0.4995470000000  0.4281360000000 1.0
C      1  0.4849810000000  0.5064270000000  0.4107290000000 1.0
C      1  0.5014810000000  0.5747130000000  0.4430440000000 1.0
C      1  0.5007540000000  0.4552140000000  0.5082850000000 1.0
C      1  0.4303240000000  0.4872470000000  0.5085100000000 1.0
C      1  0.5563870000000  0.4673640000000  0.4672970000000 1.0
C      1  0.5170910000000  0.5439410000000  0.4823260000000 1.0
C      1  0.5413810000000  0.4965030000000  0.4339210000000 1.0
C      1  0.4316630000000  0.5164010000000  0.5089470000000 1.0
C      1  0.5128170000000  0.4510510000000  0.4441070000000 1.0
C      1  0.5463790000000  0.4788930000000  0.5559550000000 1.0
C      1  0.5883470000000  0.4683730000000  0.5135510000000 1.0
C      1  0.4724550000000  0.5241940000000  0.4805370000000 1.0
C      1  0.5279780000000  0.4950670000000  0.5034230000000 1.0
C      1  0.4550100000000  0.4668920000000  0.5529230000000 1.0
C      1  0.4860750000000  0.5522090000000  0.4316780000000 1.0
C      1  0.5159450000000  0.5023510000000  0.4779570000000 1.0
C      1  0.5636760000000  0.4514740000000  0.5115030000000 1.0
END
