TITL C-4164240-4114-175 2.06064400288909 125000 -6945.47136376418 0 0 47 (C1) n - 1
REM
REM in /home/nfs/bkarasulu/CARBON/AIRSS/Generating-Clusters/ReaxFF-fromJPCA2015/Units_Real/with-SteepDescent/Only-C1/SD-CG/Try1-3A/FIRE-CG
REM
REM
REM
REM
REM
REM ./C.cell (11c1c37f851c82e70ff6c80c92926a4b)
REM
REM compiler GCC version 9.2.1 20190827 (Red Hat 9.2.1-1)
REM options -cpp -mtune=generic -march=x86-64 -g -O0 -fpre-include=/usr/include/finclude/math-vector-fortran.h
REM seed -1095918353 -331111488 1105050813 -547507676 1558569239 -790932600 -807535715 -637617761 1101748302 1316500603 1600469565 -234583 -2139544196 -2124834873 -2112185280 324362020 941467288 -1689000309 -1380854563 -1860975388 -152040947 -1561730184 1521635631 -524737508 -1210434432 1540084827 1249419367 1060295309 -2063890867 1380263212 2044135327 -109116761 1784713589
REM
CELL 1.54180   50.00000   50.00000   50.00000   90.00000   90.00000   90.00000
LATT -1
SFAC C  
C      1  0.5315940000000  0.4462340000000  0.4707240000000 1.0
C      1  0.5456980000000  0.5130450000000  0.4920000000000 1.0
C      1  0.4963020000000  0.5397790000000  0.4999660000000 1.0
C      1  0.4747350000000  0.5048690000000  0.4553060000000 1.0
C      1  0.4901600000000  0.5525210000000  0.4518240000000 1.0
C      1  0.4484920000000  0.5146730000000  0.5293380000000 1.0
C      1  0.4845550000000  0.4295200000000  0.4971670000000 1.0
C      1  0.4953070000000  0.5541530000000  0.5263770000000 1.0
C      1  0.5170060000000  0.5462980000000  0.5440510000000 1.0
C      1  0.5274430000000  0.4851610000000  0.4244400000000 1.0
C      1  0.5240930000000  0.4912880000000  0.4911230000000 1.0
C      1  0.5455470000000  0.5653880000000  0.5054400000000 1.0
C      1  0.4628100000000  0.4805980000000  0.4434790000000 1.0
C      1  0.5385140000000  0.5123880000000  0.5680460000000 1.0
C      1  0.5424550000000  0.5466040000000  0.5283850000000 1.0
C      1  0.4711600000000  0.4430660000000  0.5199370000000 1.0
C      1  0.4633060000000  0.4996990000000  0.5501710000000 1.0
C      1  0.5510020000000  0.5195580000000  0.5196960000000 1.0
C      1  0.5414020000000  0.5306510000000  0.4696170000000 1.0
C      1  0.4823680000000  0.4565120000000  0.5440200000000 1.0
C      1  0.5112070000000  0.5235910000000  0.5619840000000 1.0
C      1  0.4339680000000  0.4756910000000  0.5025500000000 1.0
C      1  0.4454820000000  0.4574580000000  0.5240000000000 1.0
C      1  0.4918300000000  0.5014670000000  0.5561620000000 1.0
C      1  0.4476980000000  0.5018150000000  0.5019980000000 1.0
C      1  0.5044290000000  0.5579860000000  0.4778340000000 1.0
C      1  0.5082090000000  0.4410970000000  0.4531610000000 1.0
C      1  0.5369670000000  0.5083870000000  0.4222520000000 1.0
C      1  0.4727420000000  0.5035850000000  0.4846930000000 1.0
C      1  0.5343490000000  0.5577850000000  0.4787670000000 1.0
C      1  0.4425380000000  0.5425740000000  0.5316830000000 1.0
C      1  0.4572400000000  0.4710530000000  0.5481820000000 1.0
C      1  0.4768870000000  0.5765980000000  0.5320650000000 1.0
C      1  0.5112780000000  0.4689910000000  0.4419190000000 1.0
C      1  0.5296530000000  0.4747700000000  0.4643570000000 1.0
C      1  0.4470100000000  0.5720540000000  0.5331750000000 1.0
C      1  0.5036790000000  0.4762220000000  0.5487080000000 1.0
C      1  0.4951340000000  0.5239700000000  0.4447380000000 1.0
C      1  0.5294570000000  0.4698440000000  0.5105110000000 1.0
C      1  0.5112190000000  0.4209880000000  0.5073100000000 1.0
C      1  0.4980780000000  0.5110080000000  0.4958890000000 1.0
C      1  0.4831830000000  0.4369990000000  0.4677730000000 1.0
C      1  0.5307440000000  0.4430560000000  0.5002090000000 1.0
C      1  0.4618470000000  0.4531240000000  0.4555100000000 1.0
C      1  0.5258900000000  0.5211700000000  0.4451510000000 1.0
C      1  0.5460250000000  0.5000320000000  0.5416630000000 1.0
C      1  0.5293090000000  0.4766830000000  0.5366500000000 1.0
END
