TITL C-4164236-1577-617 30.4090734075434 125000 -25386.0648977739 0 0 172 (C1) n - 1
REM
REM in /home/nfs/bkarasulu/CARBON/AIRSS/Generating-Clusters/ReaxFF-fromJPCA2015/Units_Real/with-SteepDescent/Only-C1/SD-CG/Try1-3A/FIRE-CG
REM
REM
REM
REM
REM
REM ./C.cell (11c1c37f851c82e70ff6c80c92926a4b)
REM
REM compiler GCC version 9.2.1 20190827 (Red Hat 9.2.1-1)
REM options -cpp -mtune=generic -march=x86-64 -g -O0 -fpre-include=/usr/include/finclude/math-vector-fortran.h
REM seed -774255087 1196170297 1411296833 1703878172 429856888 -1323709493 1509837135 1744581562 887510587 910965882 1417423768 -988689675 60193102 633558514 2089760666 1096916661 342313273 339208664 1372757896 -772280386 -523904106 -1012376875 -1665468348 781134457 429044872 1374563867 -543762259 -220330548 -727141145 508671373 -629248981 1443951374 -1350568731
REM
CELL 1.54180   50.00000   50.00000   50.00000   90.00000   90.00000   90.00000
LATT -1
SFAC C  
C      1  0.5634680000000  0.5405740000000  0.6025310000000 1.0
C      1  0.5262280000000  0.5491610000000  0.5166180000000 1.0
C      1  0.4384660000000  0.5045390000000  0.4976740000000 1.0
C      1  0.4326330000000  0.4772890000000  0.5084270000000 1.0
C      1  0.5087120000000  0.6030890000000  0.5282560000000 1.0
C      1  0.3825070000000  0.4822900000000  0.4875130000000 1.0
C      1  0.5433470000000  0.4137720000000  0.5493870000000 1.0
C      1  0.4854730000000  0.5239100000000  0.5077730000000 1.0
C      1  0.5934020000000  0.4272380000000  0.4909160000000 1.0
C      1  0.3918710000000  0.5096570000000  0.4962170000000 1.0
C      1  0.5328030000000  0.5258150000000  0.5777880000000 1.0
C      1  0.4803100000000  0.4408220000000  0.5040220000000 1.0
C      1  0.5612490000000  0.5968480000000  0.5341440000000 1.0
C      1  0.5345530000000  0.6035540000000  0.5404330000000 1.0
C      1  0.4514610000000  0.5192500000000  0.5395360000000 1.0
C      1  0.5337830000000  0.5522420000000  0.5646720000000 1.0
C      1  0.4975270000000  0.4553770000000  0.6298130000000 1.0
C      1  0.5751780000000  0.5476420000000  0.5416880000000 1.0
C      1  0.5593710000000  0.4499890000000  0.5889840000000 1.0
C      1  0.4920800000000  0.5723360000000  0.4488880000000 1.0
C      1  0.4698700000000  0.5691730000000  0.5927860000000 1.0
C      1  0.4774940000000  0.5703960000000  0.5009320000000 1.0
C      1  0.5225980000000  0.4976240000000  0.4415060000000 1.0
C      1  0.4557040000000  0.5906290000000  0.5433240000000 1.0
C      1  0.4697990000000  0.5268650000000  0.5968480000000 1.0
C      1  0.4002080000000  0.5084740000000  0.5222890000000 1.0
C      1  0.5112520000000  0.4639160000000  0.6046990000000 1.0
C      1  0.4822010000000  0.5227160000000  0.3925330000000 1.0
C      1  0.5053470000000  0.5300210000000  0.5314910000000 1.0
C      1  0.6017610000000  0.4795640000000  0.4887400000000 1.0
C      1  0.4573590000000  0.5420170000000  0.3916320000000 1.0
C      1  0.4665020000000  0.4779260000000  0.3732980000000 1.0
C      1  0.5796900000000  0.5789180000000  0.4863600000000 1.0
C      1  0.5052030000000  0.5051080000000  0.4925680000000 1.0
C      1  0.5888680000000  0.5134520000000  0.4541930000000 1.0
C      1  0.4156980000000  0.5010740000000  0.4516220000000 1.0
C      1  0.4872940000000  0.4815830000000  0.5402990000000 1.0
C      1  0.5497080000000  0.5199440000000  0.4021940000000 1.0
C      1  0.5731940000000  0.5510980000000  0.5764060000000 1.0
C      1  0.6071610000000  0.5341680000000  0.5048610000000 1.0
C      1  0.5414990000000  0.4187540000000  0.4407670000000 1.0
C      1  0.4632890000000  0.5081460000000  0.4563760000000 1.0
C      1  0.5529400000000  0.4718290000000  0.5012050000000 1.0
C      1  0.4603670000000  0.4283160000000  0.5843920000000 1.0
C      1  0.4074060000000  0.4497040000000  0.4519460000000 1.0
C      1  0.4400100000000  0.4839550000000  0.3857610000000 1.0
C      1  0.5149580000000  0.5027250000000  0.5713080000000 1.0
C      1  0.4729020000000  0.5626010000000  0.4034190000000 1.0
C      1  0.6111420000000  0.5077260000000  0.4932620000000 1.0
C      1  0.4806760000000  0.4722040000000  0.4321630000000 1.0
C      1  0.5434010000000  0.4633000000000  0.6079140000000 1.0
C      1  0.4838410000000  0.5506730000000  0.6092690000000 1.0
C      1  0.4233230000000  0.4696950000000  0.5361730000000 1.0
C      1  0.5976970000000  0.5289890000000  0.5337750000000 1.0
C      1  0.4575390000000  0.5689130000000  0.5231700000000 1.0
C      1  0.4637740000000  0.4960650000000  0.4289690000000 1.0
C      1  0.5795340000000  0.4687430000000  0.5758020000000 1.0
C      1  0.5113970000000  0.4015800000000  0.5097630000000 1.0
C      1  0.4162840000000  0.5404770000000  0.4292560000000 1.0
C      1  0.5227250000000  0.4293490000000  0.5053200000000 1.0
C      1  0.5150230000000  0.4026400000000  0.5384480000000 1.0
C      1  0.4010750000000  0.5364190000000  0.4831630000000 1.0
C      1  0.4379930000000  0.4282460000000  0.5783720000000 1.0
C      1  0.5126330000000  0.5927830000000  0.5541250000000 1.0
C      1  0.5330700000000  0.4505130000000  0.5318430000000 1.0
C      1  0.5116630000000  0.4997180000000  0.5424220000000 1.0
C      1  0.4448140000000  0.5914170000000  0.4724760000000 1.0
C      1  0.5122910000000  0.3933390000000  0.4806830000000 1.0
C      1  0.4931640000000  0.5447890000000  0.5534690000000 1.0
C      1  0.4312710000000  0.5547710000000  0.5228210000000 1.0
C      1  0.5117450000000  0.4415820000000  0.5813340000000 1.0
C      1  0.4695090000000  0.4972360000000  0.5951290000000 1.0
C      1  0.5963800000000  0.5549470000000  0.4847570000000 1.0
C      1  0.5955860000000  0.5033260000000  0.5431110000000 1.0
C      1  0.4400790000000  0.4593960000000  0.4886960000000 1.0
C      1  0.5943090000000  0.5356070000000  0.4649910000000 1.0
C      1  0.4368110000000  0.5114120000000  0.4693830000000 1.0
C      1  0.5374430000000  0.4610170000000  0.4799630000000 1.0
C      1  0.5790830000000  0.5758550000000  0.5357370000000 1.0
C      1  0.5684760000000  0.4199180000000  0.5056230000000 1.0
C      1  0.5086650000000  0.4653760000000  0.4734340000000 1.0
C      1  0.4369440000000  0.5460840000000  0.4114520000000 1.0
C      1  0.4246370000000  0.4867520000000  0.5604310000000 1.0
C      1  0.5659670000000  0.4345140000000  0.4462490000000 1.0
C      1  0.4586840000000  0.5164660000000  0.5142150000000 1.0
C      1  0.5156210000000  0.5724570000000  0.4671260000000 1.0
C      1  0.5502850000000  0.4235090000000  0.5744770000000 1.0
C      1  0.5966800000000  0.4678690000000  0.4619460000000 1.0
C      1  0.4434280000000  0.6100090000000  0.4971270000000 1.0
C      1  0.4058890000000  0.4367530000000  0.5093390000000 1.0
C      1  0.4881180000000  0.4246040000000  0.5768310000000 1.0
C      1  0.5321260000000  0.5965320000000  0.4685850000000 1.0
C      1  0.5103950000000  0.5573300000000  0.5994610000000 1.0
C      1  0.4867750000000  0.3915330000000  0.4646840000000 1.0
C      1  0.4810960000000  0.4682990000000  0.5137060000000 1.0
C      1  0.3852920000000  0.4592820000000  0.4699860000000 1.0
C      1  0.4181100000000  0.4407480000000  0.5351050000000 1.0
C      1  0.5534950000000  0.5736300000000  0.5732430000000 1.0
C      1  0.5632040000000  0.4952410000000  0.3915790000000 1.0
C      1  0.4935340000000  0.4811040000000  0.4919050000000 1.0
C      1  0.4769640000000  0.5277440000000  0.5687670000000 1.0
C      1  0.5527390000000  0.5394880000000  0.5207050000000 1.0
C      1  0.5510250000000  0.5221640000000  0.4972660000000 1.0
C      1  0.4279400000000  0.4309020000000  0.4875500000000 1.0
C      1  0.5511300000000  0.4584200000000  0.4545230000000 1.0
C      1  0.5596060000000  0.4327680000000  0.5312910000000 1.0
C      1  0.5352850000000  0.4036220000000  0.4657020000000 1.0
C      1  0.5028480000000  0.4401570000000  0.4862170000000 1.0
C      1  0.4775280000000  0.4100300000000  0.4414360000000 1.0
C      1  0.4505250000000  0.5789460000000  0.5734860000000 1.0
C      1  0.4474540000000  0.6081560000000  0.5249860000000 1.0
C      1  0.4845770000000  0.5284110000000  0.4631340000000 1.0
C      1  0.4352130000000  0.5553140000000  0.5730890000000 1.0
C      1  0.5006890000000  0.5323670000000  0.4106670000000 1.0
C      1  0.4378130000000  0.4225880000000  0.5505720000000 1.0
C      1  0.4401830000000  0.4979460000000  0.4122720000000 1.0
C      1  0.5227210000000  0.4329510000000  0.4217700000000 1.0
C      1  0.4248670000000  0.5702900000000  0.4739050000000 1.0
C      1  0.4526480000000  0.4278510000000  0.4442970000000 1.0
C      1  0.5806460000000  0.4701460000000  0.5066210000000 1.0
C      1  0.5302630000000  0.5036690000000  0.5062090000000 1.0
C      1  0.5125590000000  0.4838200000000  0.3977890000000 1.0
C      1  0.4654640000000  0.5036370000000  0.5562190000000 1.0
C      1  0.4637120000000  0.4125500000000  0.5397130000000 1.0
C      1  0.4977570000000  0.4901470000000  0.5916270000000 1.0
C      1  0.5002890000000  0.4219110000000  0.4310730000000 1.0
C      1  0.4710740000000  0.5928460000000  0.4572230000000 1.0
C      1  0.5789210000000  0.5911550000000  0.5124880000000 1.0
C      1  0.4102750000000  0.5091160000000  0.5476940000000 1.0
C      1  0.5053250000000  0.4758280000000  0.4455960000000 1.0
C      1  0.5131620000000  0.6092040000000  0.4882420000000 1.0
C      1  0.4794620000000  0.5453310000000  0.4860470000000 1.0
C      1  0.4911250000000  0.6085820000000  0.4697290000000 1.0
C      1  0.4110430000000  0.5494820000000  0.4587170000000 1.0
C      1  0.5615100000000  0.5893110000000  0.4649680000000 1.0
C      1  0.5934060000000  0.4768700000000  0.5524540000000 1.0
C      1  0.5373080000000  0.4809170000000  0.5239260000000 1.0
C      1  0.4262390000000  0.4281020000000  0.4566030000000 1.0
C      1  0.5891130000000  0.4400140000000  0.4634940000000 1.0
C      1  0.5527570000000  0.5465950000000  0.4451540000000 1.0
C      1  0.5452860000000  0.4166860000000  0.4898320000000 1.0
C      1  0.5128100000000  0.5169860000000  0.4632210000000 1.0
C      1  0.5539060000000  0.4822200000000  0.4373150000000 1.0
C      1  0.5267490000000  0.4591180000000  0.4040610000000 1.0
C      1  0.5577240000000  0.5400120000000  0.4193170000000 1.0
C      1  0.5525810000000  0.4720510000000  0.4075520000000 1.0
C      1  0.4238030000000  0.4733690000000  0.4499730000000 1.0
C      1  0.5144580000000  0.4498720000000  0.5551770000000 1.0
C      1  0.4995660000000  0.5893410000000  0.5054990000000 1.0
C      1  0.4945060000000  0.5601080000000  0.4215670000000 1.0
C      1  0.4886630000000  0.4944580000000  0.3852140000000 1.0
C      1  0.4486020000000  0.4716180000000  0.4644260000000 1.0
C      1  0.5880840000000  0.4534240000000  0.5296310000000 1.0
C      1  0.5077070000000  0.5659420000000  0.5672070000000 1.0
C      1  0.5322370000000  0.5389910000000  0.6043330000000 1.0
C      1  0.4667300000000  0.4168970000000  0.5129010000000 1.0
C      1  0.5615980000000  0.5705610000000  0.4437950000000 1.0
C      1  0.4631570000000  0.3956370000000  0.4784920000000 1.0
C      1  0.4292280000000  0.5364660000000  0.5469480000000 1.0
C      1  0.4498220000000  0.4885500000000  0.5747910000000 1.0
C      1  0.3853640000000  0.4545600000000  0.4989570000000 1.0
C      1  0.6093700000000  0.4381000000000  0.5132290000000 1.0
C      1  0.4142910000000  0.5569980000000  0.4998060000000 1.0
C      1  0.4162680000000  0.5114860000000  0.4242540000000 1.0
C      1  0.5375260000000  0.5324930000000  0.4729260000000 1.0
C      1  0.5832980000000  0.4884650000000  0.4454310000000 1.0
C      1  0.4459130000000  0.4067190000000  0.4965030000000 1.0
C      1  0.5250440000000  0.5528970000000  0.4874400000000 1.0
C      1  0.5212390000000  0.5093940000000  0.4139060000000 1.0
C      1  0.4897540000000  0.4081700000000  0.5517020000000 1.0
C      1  0.4907700000000  0.4579460000000  0.5522070000000 1.0
C      1  0.4633770000000  0.4542910000000  0.4478730000000 1.0
END
