TITL C-4164239-2837-604 4.58980308356227 125000 -12696.4625586318 0 0 85 (C1) n - 1
REM
REM in /home/nfs/bkarasulu/CARBON/AIRSS/Generating-Clusters/ReaxFF-fromJPCA2015/Units_Real/with-SteepDescent/Only-C1/SD-CG/Try1-3A/FIRE-CG
REM
REM
REM
REM
REM
REM ./C.cell (11c1c37f851c82e70ff6c80c92926a4b)
REM
REM compiler GCC version 9.2.1 20190827 (Red Hat 9.2.1-1)
REM options -cpp -mtune=generic -march=x86-64 -g -O0 -fpre-include=/usr/include/finclude/math-vector-fortran.h
REM seed -648262852 -47387337 581821770 992417095 -1096530049 1450858755 -842217932 1208761461 -440846501 201924292 -80425901 -685656043 883946301 726579081 -1772017520 1856964009 1728037389 452139184 -265369343 -199880074 1877545474 790162742 1756826065 1135332584 1587766244 -1434159851 692110336 23868210 3699228 141843349 -1321124911 -1753362258 -873661445
REM
CELL 1.54180   50.00000   50.00000   50.00000   90.00000   90.00000   90.00000
LATT -1
SFAC C  
C      1  0.5212590000000  0.4727580000000  0.4279500000000 1.0
C      1  0.4931720000000  0.4639420000000  0.4264510000000 1.0
C      1  0.4935070000000  0.5773170000000  0.5401570000000 1.0
C      1  0.5709950000000  0.5699650000000  0.5285720000000 1.0
C      1  0.5824790000000  0.4871950000000  0.4726300000000 1.0
C      1  0.5261250000000  0.5850870000000  0.5010310000000 1.0
C      1  0.4540990000000  0.4295360000000  0.4953230000000 1.0
C      1  0.4806300000000  0.5031590000000  0.4793130000000 1.0
C      1  0.4905870000000  0.4793890000000  0.5788240000000 1.0
C      1  0.5062030000000  0.4470610000000  0.5471530000000 1.0
C      1  0.4371660000000  0.5504710000000  0.4835370000000 1.0
C      1  0.4464050000000  0.5761810000000  0.5154770000000 1.0
C      1  0.4989860000000  0.5075650000000  0.4560590000000 1.0
C      1  0.5602250000000  0.5531310000000  0.5490570000000 1.0
C      1  0.4301930000000  0.4792590000000  0.4697020000000 1.0
C      1  0.4949950000000  0.4125330000000  0.4691080000000 1.0
C      1  0.5790380000000  0.5443650000000  0.5128860000000 1.0
C      1  0.5364300000000  0.5419800000000  0.4499950000000 1.0
C      1  0.4869470000000  0.4139530000000  0.4426800000000 1.0
C      1  0.4492040000000  0.4899540000000  0.5130770000000 1.0
C      1  0.4766430000000  0.4748770000000  0.4845370000000 1.0
C      1  0.5101750000000  0.5559560000000  0.4563430000000 1.0
C      1  0.5434130000000  0.4422700000000  0.4718730000000 1.0
C      1  0.4356180000000  0.5330790000000  0.5355000000000 1.0
C      1  0.5469440000000  0.4806770000000  0.5345170000000 1.0
C      1  0.4738970000000  0.4734800000000  0.5137260000000 1.0
C      1  0.4311290000000  0.5510580000000  0.5122740000000 1.0
C      1  0.5754390000000  0.4901390000000  0.5226730000000 1.0
C      1  0.4368080000000  0.4480000000000  0.5118950000000 1.0
C      1  0.4814970000000  0.4183900000000  0.4947650000000 1.0
C      1  0.5398740000000  0.5345710000000  0.5507930000000 1.0
C      1  0.4642550000000  0.5733440000000  0.5384080000000 1.0
C      1  0.4546670000000  0.5050320000000  0.4330800000000 1.0
C      1  0.4943920000000  0.5715940000000  0.5677800000000 1.0
C      1  0.5208240000000  0.4187260000000  0.4805470000000 1.0
C      1  0.4618940000000  0.4461560000000  0.5547240000000 1.0
C      1  0.5143070000000  0.5665660000000  0.5208720000000 1.0
C      1  0.5140740000000  0.4656840000000  0.5688130000000 1.0
C      1  0.5239740000000  0.4955230000000  0.5219360000000 1.0
C      1  0.5045740000000  0.5060240000000  0.5791330000000 1.0
C      1  0.4810580000000  0.4524480000000  0.5330600000000 1.0
C      1  0.5779430000000  0.4743380000000  0.4980580000000 1.0
C      1  0.4887650000000  0.5359760000000  0.4560320000000 1.0
C      1  0.5519460000000  0.5393150000000  0.5005000000000 1.0
C      1  0.5313040000000  0.5421730000000  0.5222980000000 1.0
C      1  0.5642810000000  0.4853480000000  0.4524070000000 1.0
C      1  0.4621880000000  0.5320880000000  0.4435950000000 1.0
C      1  0.4900720000000  0.5182730000000  0.5564990000000 1.0
C      1  0.4383870000000  0.5322000000000  0.4612540000000 1.0
C      1  0.5091860000000  0.4213230000000  0.5067870000000 1.0
C      1  0.4939250000000  0.5159220000000  0.5021330000000 1.0
C      1  0.5512410000000  0.5825670000000  0.5123010000000 1.0
C      1  0.4288200000000  0.4732480000000  0.4987310000000 1.0
C      1  0.4495630000000  0.4352160000000  0.4669160000000 1.0
C      1  0.4380670000000  0.5037210000000  0.5365140000000 1.0
C      1  0.5322020000000  0.5109240000000  0.5696390000000 1.0
C      1  0.5371770000000  0.4736220000000  0.4541170000000 1.0
C      1  0.4374120000000  0.4545340000000  0.5409640000000 1.0
C      1  0.4719130000000  0.5367050000000  0.5698260000000 1.0
C      1  0.5241800000000  0.4997580000000  0.4157940000000 1.0
C      1  0.5473870000000  0.4513240000000  0.5230140000000 1.0
C      1  0.5602150000000  0.4520660000000  0.4982540000000 1.0
C      1  0.4395150000000  0.4810810000000  0.5555230000000 1.0
C      1  0.4614970000000  0.4242370000000  0.4425010000000 1.0
C      1  0.4528550000000  0.5494380000000  0.5522010000000 1.0
C      1  0.5085580000000  0.5788330000000  0.4748720000000 1.0
C      1  0.4329350000000  0.5036340000000  0.4535160000000 1.0
C      1  0.5372620000000  0.4836850000000  0.5637340000000 1.0
C      1  0.5542290000000  0.4214100000000  0.4573760000000 1.0
C      1  0.5001400000000  0.5095860000000  0.5301240000000 1.0
C      1  0.5806200000000  0.5172520000000  0.5203900000000 1.0
C      1  0.5186210000000  0.5012270000000  0.4952170000000 1.0
C      1  0.4822060000000  0.5771850000000  0.4804470000000 1.0
C      1  0.4861840000000  0.5567960000000  0.5906380000000 1.0
C      1  0.4822860000000  0.4367170000000  0.4270760000000 1.0
C      1  0.4632590000000  0.4712310000000  0.5708500000000 1.0
C      1  0.4963300000000  0.5062420000000  0.4220900000000 1.0
C      1  0.5531570000000  0.5317860000000  0.4722170000000 1.0
C      1  0.4550460000000  0.4640810000000  0.4661570000000 1.0
C      1  0.4750740000000  0.4871390000000  0.4205110000000 1.0
C      1  0.4548700000000  0.5755040000000  0.4866710000000 1.0
C      1  0.5714860000000  0.5110730000000  0.4623930000000 1.0
C      1  0.5242970000000  0.4344580000000  0.5284160000000 1.0
C      1  0.5375740000000  0.5240680000000  0.4267280000000 1.0
C      1  0.5217260000000  0.4942990000000  0.4684900000000 1.0
END
