TITL C-4164234-2335-112 15.2231406779028 125000 -22666.5553566988 0 0 152 (C1) n - 1
REM
REM in /home/nfs/bkarasulu/CARBON/AIRSS/Generating-Clusters/ReaxFF-fromJPCA2015/Units_Real/with-SteepDescent/Only-C1/SD-CG/Try1-3A/FIRE-CG
REM
REM
REM
REM
REM
REM ./C.cell (11c1c37f851c82e70ff6c80c92926a4b)
REM
REM compiler GCC version 9.2.1 20190827 (Red Hat 9.2.1-1)
REM options -cpp -mtune=generic -march=x86-64 -g -O0 -fpre-include=/usr/include/finclude/math-vector-fortran.h
REM seed -677321138 981425280 752886753 1089993096 -1314245823 -2076166080 1930816123 1517391167 -1707020779 -1329811597 -1303115333 1576105382 739537247 1271176819 -1476777956 -1155975713 1005377602 1396442638 1503337288 -535307856 -1710961281 1650049342 468270657 -84641795 -634393748 805896941 -2030250437 278405269 1239078308 -1440293512 1734006208 -1568954058 -1811783249
REM
CELL 1.54180   50.00000   50.00000   50.00000   90.00000   90.00000   90.00000
LATT -1
SFAC C  
C      1  0.5416850000000  0.4240490000000  0.4453890000000 1.0
C      1  0.5175710000000  0.5313280000000  0.4129170000000 1.0
C      1  0.4778320000000  0.4007950000000  0.4970820000000 1.0
C      1  0.5741420000000  0.4445310000000  0.4839420000000 1.0
C      1  0.5278850000000  0.4305850000000  0.4864900000000 1.0
C      1  0.5510520000000  0.4488990000000  0.4339630000000 1.0
C      1  0.5194560000000  0.4241670000000  0.5453270000000 1.0
C      1  0.4215500000000  0.4883300000000  0.4341590000000 1.0
C      1  0.4190730000000  0.5108160000000  0.5650950000000 1.0
C      1  0.5915330000000  0.4429430000000  0.5097820000000 1.0
C      1  0.4144160000000  0.4524460000000  0.5276240000000 1.0
C      1  0.5249290000000  0.5119290000000  0.5648870000000 1.0
C      1  0.4843950000000  0.4963500000000  0.3914030000000 1.0
C      1  0.5279360000000  0.5811600000000  0.5728420000000 1.0
C      1  0.5100500000000  0.5635680000000  0.5252390000000 1.0
C      1  0.5383010000000  0.4371550000000  0.5626390000000 1.0
C      1  0.5227770000000  0.5060170000000  0.5919630000000 1.0
C      1  0.5549960000000  0.5560830000000  0.4362050000000 1.0
C      1  0.5024530000000  0.5450840000000  0.5965560000000 1.0
C      1  0.5114210000000  0.5927130000000  0.5123190000000 1.0
C      1  0.5079200000000  0.5434180000000  0.4737510000000 1.0
C      1  0.4289060000000  0.5632510000000  0.4582940000000 1.0
C      1  0.4948710000000  0.5459880000000  0.4196010000000 1.0
C      1  0.5736290000000  0.4936800000000  0.4322600000000 1.0
C      1  0.4826770000000  0.4688820000000  0.6008840000000 1.0
C      1  0.6007940000000  0.4700370000000  0.5085140000000 1.0
C      1  0.4174370000000  0.4926030000000  0.5862040000000 1.0
C      1  0.4383400000000  0.5341570000000  0.5316540000000 1.0
C      1  0.3987480000000  0.5203500000000  0.5071530000000 1.0
C      1  0.4858090000000  0.5190990000000  0.5178470000000 1.0
C      1  0.4444490000000  0.5770580000000  0.5008060000000 1.0
C      1  0.5043110000000  0.4845310000000  0.5260970000000 1.0
C      1  0.4908010000000  0.3975800000000  0.4698110000000 1.0
C      1  0.6067130000000  0.5267010000000  0.5400670000000 1.0
C      1  0.4761380000000  0.5769410000000  0.5678330000000 1.0
C      1  0.4903200000000  0.4676880000000  0.3879780000000 1.0
C      1  0.5116650000000  0.4340420000000  0.5172070000000 1.0
C      1  0.4856610000000  0.4776230000000  0.4804110000000 1.0
C      1  0.4310270000000  0.5062990000000  0.5395960000000 1.0
C      1  0.4346060000000  0.4322010000000  0.4826570000000 1.0
C      1  0.5980320000000  0.5056830000000  0.4730000000000 1.0
C      1  0.5358390000000  0.5749260000000  0.4752680000000 1.0
C      1  0.4241740000000  0.5151540000000  0.4450480000000 1.0
C      1  0.5732240000000  0.4985830000000  0.5698480000000 1.0
C      1  0.5225410000000  0.4363720000000  0.5889630000000 1.0
C      1  0.5315780000000  0.5491210000000  0.5365850000000 1.0
C      1  0.4750340000000  0.4808860000000  0.5268500000000 1.0
C      1  0.6282000000000  0.5155790000000  0.5367950000000 1.0
C      1  0.4835150000000  0.5835980000000  0.4333760000000 1.0
C      1  0.4309700000000  0.5426870000000  0.4358600000000 1.0
C      1  0.4408310000000  0.4854760000000  0.4125860000000 1.0
C      1  0.4879230000000  0.5484320000000  0.5164090000000 1.0
C      1  0.4647060000000  0.4548000000000  0.5599280000000 1.0
C      1  0.4690140000000  0.5795200000000  0.4804190000000 1.0
C      1  0.4225970000000  0.4422020000000  0.4583350000000 1.0
C      1  0.4427820000000  0.5115690000000  0.4665320000000 1.0
C      1  0.4452590000000  0.4945220000000  0.4906480000000 1.0
C      1  0.5703360000000  0.5272990000000  0.5604570000000 1.0
C      1  0.4678800000000  0.5354580000000  0.5310430000000 1.0
C      1  0.4060610000000  0.4999200000000  0.5276410000000 1.0
C      1  0.5584660000000  0.3960790000000  0.4926950000000 1.0
C      1  0.5308100000000  0.4868500000000  0.4090980000000 1.0
C      1  0.4566730000000  0.5790270000000  0.4264580000000 1.0
C      1  0.5903480000000  0.4593360000000  0.4628400000000 1.0
C      1  0.4740260000000  0.4591330000000  0.4631760000000 1.0
C      1  0.4572220000000  0.5331270000000  0.5758700000000 1.0
C      1  0.4624930000000  0.5304730000000  0.4766820000000 1.0
C      1  0.4661480000000  0.6107060000000  0.5187310000000 1.0
C      1  0.4665830000000  0.5136850000000  0.4978670000000 1.0
C      1  0.5456460000000  0.5325860000000  0.4191480000000 1.0
C      1  0.5130210000000  0.4193600000000  0.4412270000000 1.0
C      1  0.4297540000000  0.4632660000000  0.5809470000000 1.0
C      1  0.5101170000000  0.4195550000000  0.4698330000000 1.0
C      1  0.4810460000000  0.5522050000000  0.4753580000000 1.0
C      1  0.5549090000000  0.5809660000000  0.5218020000000 1.0
C      1  0.5648790000000  0.4052430000000  0.5193790000000 1.0
C      1  0.5030670000000  0.4164140000000  0.5839340000000 1.0
C      1  0.4678330000000  0.5308460000000  0.4205060000000 1.0
C      1  0.5817300000000  0.4863450000000  0.5245030000000 1.0
C      1  0.5331760000000  0.4786250000000  0.4572090000000 1.0
C      1  0.5313440000000  0.5504160000000  0.4888410000000 1.0
C      1  0.5749540000000  0.4748790000000  0.5513100000000 1.0
C      1  0.5750730000000  0.4654390000000  0.4392820000000 1.0
C      1  0.4213580000000  0.4569550000000  0.5551300000000 1.0
C      1  0.4683720000000  0.4257840000000  0.5445010000000 1.0
C      1  0.5347540000000  0.5743490000000  0.4457100000000 1.0
C      1  0.4825340000000  0.4218550000000  0.5165950000000 1.0
C      1  0.4854110000000  0.4060140000000  0.4415700000000 1.0
C      1  0.4793300000000  0.4980090000000  0.5981110000000 1.0
C      1  0.5383390000000  0.5354960000000  0.5139290000000 1.0
C      1  0.5128890000000  0.4623070000000  0.5095990000000 1.0
C      1  0.4837690000000  0.5996390000000  0.4983810000000 1.0
C      1  0.4068160000000  0.4753550000000  0.5120010000000 1.0
C      1  0.5258250000000  0.4977610000000  0.5409060000000 1.0
C      1  0.5834300000000  0.5417880000000  0.5397660000000 1.0
C      1  0.4474730000000  0.5872120000000  0.5278000000000 1.0
C      1  0.5406950000000  0.5906590000000  0.5469850000000 1.0
C      1  0.3913070000000  0.5061270000000  0.4809610000000 1.0
C      1  0.5758050000000  0.5200930000000  0.4814980000000 1.0
C      1  0.5605540000000  0.4888970000000  0.5068910000000 1.0
C      1  0.5548810000000  0.4655450000000  0.4939640000000 1.0
C      1  0.5155330000000  0.6023390000000  0.5397460000000 1.0
C      1  0.5762350000000  0.4308860000000  0.5310490000000 1.0
C      1  0.4598960000000  0.4836280000000  0.5518900000000 1.0
C      1  0.5326920000000  0.4804150000000  0.6022370000000 1.0
C      1  0.5017250000000  0.5917340000000  0.5632360000000 1.0
C      1  0.4174380000000  0.5416880000000  0.5077200000000 1.0
C      1  0.5562840000000  0.4840790000000  0.5870990000000 1.0
C      1  0.5175790000000  0.4717370000000  0.3920760000000 1.0
C      1  0.4772630000000  0.5535030000000  0.5844300000000 1.0
C      1  0.4380700000000  0.5468510000000  0.5587660000000 1.0
C      1  0.5288260000000  0.4600840000000  0.4854930000000 1.0
C      1  0.5770030000000  0.5138070000000  0.4541510000000 1.0
C      1  0.4590520000000  0.4558420000000  0.5880010000000 1.0
C      1  0.5074930000000  0.5708600000000  0.4310110000000 1.0
C      1  0.5106770000000  0.4603530000000  0.6011850000000 1.0
C      1  0.4486480000000  0.5832500000000  0.4545610000000 1.0
C      1  0.4275760000000  0.4296390000000  0.5113730000000 1.0
C      1  0.5271140000000  0.5552800000000  0.5851440000000 1.0
C      1  0.4944680000000  0.4994700000000  0.4635700000000 1.0
C      1  0.4760630000000  0.4556260000000  0.4111450000000 1.0
C      1  0.4168870000000  0.4684360000000  0.4553020000000 1.0
C      1  0.4873420000000  0.4975890000000  0.4361130000000 1.0
C      1  0.4233810000000  0.5615710000000  0.4879680000000 1.0
C      1  0.6037820000000  0.4783050000000  0.4801310000000 1.0
C      1  0.5297390000000  0.4678570000000  0.4304190000000 1.0
C      1  0.5061820000000  0.5045580000000  0.4123660000000 1.0
C      1  0.4603090000000  0.4204110000000  0.4454630000000 1.0
C      1  0.5458280000000  0.5070830000000  0.5216150000000 1.0
C      1  0.5009200000000  0.5171620000000  0.6042810000000 1.0
C      1  0.5172150000000  0.5166950000000  0.4693390000000 1.0
C      1  0.4605640000000  0.5062030000000  0.4042660000000 1.0
C      1  0.5543150000000  0.5056970000000  0.4154030000000 1.0
C      1  0.4507940000000  0.5728870000000  0.5533630000000 1.0
C      1  0.4951930000000  0.4127330000000  0.5576210000000 1.0
C      1  0.4645060000000  0.5048020000000  0.5744230000000 1.0
C      1  0.5734950000000  0.5596980000000  0.5161980000000 1.0
C      1  0.4383720000000  0.4387650000000  0.4351400000000 1.0
C      1  0.4806180000000  0.4694660000000  0.4365400000000 1.0
C      1  0.5779310000000  0.5492450000000  0.4883430000000 1.0
C      1  0.5639340000000  0.4474830000000  0.5521460000000 1.0
C      1  0.4611720000000  0.4336610000000  0.4714290000000 1.0
C      1  0.4065850000000  0.4808700000000  0.4819360000000 1.0
C      1  0.4500090000000  0.5516590000000  0.4184870000000 1.0
C      1  0.4649150000000  0.4741650000000  0.5003080000000 1.0
C      1  0.5379360000000  0.5893390000000  0.4995930000000 1.0
C      1  0.5711350000000  0.5583890000000  0.4609840000000 1.0
C      1  0.4471550000000  0.4568330000000  0.4134900000000 1.0
C      1  0.5396780000000  0.5368300000000  0.5637480000000 1.0
C      1  0.5431100000000  0.5047180000000  0.4641180000000 1.0
C      1  0.4431230000000  0.4140480000000  0.5308430000000 1.0
C      1  0.5526080000000  0.4205060000000  0.4737110000000 1.0
END
