TITL C-4164236-1577-257 3.01803985847297 125000 -4324.81827979065 0 0 31 (C1) n - 1
REM
REM in /home/nfs/bkarasulu/CARBON/AIRSS/Generating-Clusters/ReaxFF-fromJPCA2015/Units_Real/with-SteepDescent/Only-C1/SD-CG/Try1-3A/FIRE-CG
REM
REM
REM
REM
REM
REM ./C.cell (11c1c37f851c82e70ff6c80c92926a4b)
REM
REM compiler GCC version 9.2.1 20190827 (Red Hat 9.2.1-1)
REM options -cpp -mtune=generic -march=x86-64 -g -O0 -fpre-include=/usr/include/finclude/math-vector-fortran.h
REM seed -1996528536 357571974 -1587735114 -915436276 -1185671010 -1435440194 717386260 1672769541 -680140326 -182594554 -692254015 779776183 1712781718 -2057290027 -1253731608 -828720272 -1366012987 559493498 -149721901 -437195791 301743321 -2053530485 2048778494 1018160592 29572790 1323305173 -846225410 276847448 -1666902336 -1325405894 -923693067 -680116092 -2110661752
REM
CELL 1.54180   50.00000   50.00000   50.00000   90.00000   90.00000   90.00000
LATT -1
SFAC C  
C      1  0.4706240000000  0.4906500000000  0.5130280000000 1.0
C      1  0.5109450000000  0.4241070000000  0.5169420000000 1.0
C      1  0.5223640000000  0.5757350000000  0.4948000000000 1.0
C      1  0.5486530000000  0.5166700000000  0.5531770000000 1.0
C      1  0.4619820000000  0.5388730000000  0.4942070000000 1.0
C      1  0.5358420000000  0.4580700000000  0.4956600000000 1.0
C      1  0.5259430000000  0.5347450000000  0.4615680000000 1.0
C      1  0.4711080000000  0.5525170000000  0.5173390000000 1.0
C      1  0.5057040000000  0.4851610000000  0.5503260000000 1.0
C      1  0.5151660000000  0.4509560000000  0.4776250000000 1.0
C      1  0.4156540000000  0.4904330000000  0.4675530000000 1.0
C      1  0.5312140000000  0.4454520000000  0.5230450000000 1.0
C      1  0.4897250000000  0.4461450000000  0.5235410000000 1.0
C      1  0.5089960000000  0.4888710000000  0.4446420000000 1.0
C      1  0.4852300000000  0.5011340000000  0.5378630000000 1.0
C      1  0.5106280000000  0.4584820000000  0.5415420000000 1.0
C      1  0.4851420000000  0.5457300000000  0.4795600000000 1.0
C      1  0.5100400000000  0.5555720000000  0.4714810000000 1.0
C      1  0.5467000000000  0.5033230000000  0.4740120000000 1.0
C      1  0.4334290000000  0.4988920000000  0.4818620000000 1.0
C      1  0.4882110000000  0.4610580000000  0.4739100000000 1.0
C      1  0.5462300000000  0.4825100000000  0.4883430000000 1.0
C      1  0.5104770000000  0.4605290000000  0.4536770000000 1.0
C      1  0.4920330000000  0.5541320000000  0.5367980000000 1.0
C      1  0.4796950000000  0.4651710000000  0.5034890000000 1.0
C      1  0.4830410000000  0.4908430000000  0.4555920000000 1.0
C      1  0.4530670000000  0.5082370000000  0.4976710000000 1.0
C      1  0.4977450000000  0.5261590000000  0.5456800000000 1.0
C      1  0.5090570000000  0.5676160000000  0.5175710000000 1.0
C      1  0.5321790000000  0.5101680000000  0.4509590000000 1.0
C      1  0.5231760000000  0.5120600000000  0.5565400000000 1.0
END
