TITL C-4164245-3996-361 373.946016817882 125000 -28776.8899614947 0 0 196 (C1) n - 1
REM
REM in /home/nfs/bkarasulu/CARBON/AIRSS/Generating-Clusters/ReaxFF-fromJPCA2015/Units_Real/with-SteepDescent/Only-C1/SD-CG/Try1-3A/FIRE-CG
REM
REM
REM
REM
REM
REM ./C.cell (11c1c37f851c82e70ff6c80c92926a4b)
REM
REM compiler GCC version 9.2.1 20190827 (Red Hat 9.2.1-1)
REM options -cpp -mtune=generic -march=x86-64 -g -O0 -fpre-include=/usr/include/finclude/math-vector-fortran.h
REM seed 1977916907 877975295 2048908323 -903723154 -360754586 1544209322 -875108198 1322839673 -1211558642 1002844504 1943184873 -953357137 -319703127 -2115404744 -395446105 360422267 -1042152072 -1823785153 -2001327666 557714037 645461172 -987090920 -1879015540 278058924 -121945954 -494444865 -673134557 -1898671939 -365187134 953719445 643086922 -611009455 2114935279
REM
CELL 1.54180   50.00000   50.00000   50.00000   90.00000   90.00000   90.00000
LATT -1
SFAC C  
C      1  0.5518080000000  0.5802510000000  0.5237090000000 1.0
C      1  0.4567150000000  0.4933480000000  0.4917090000000 1.0
C      1  0.4163530000000  0.5335520000000  0.5096350000000 1.0
C      1  0.5138970000000  0.4430380000000  0.3919220000000 1.0
C      1  0.5944230000000  0.4372190000000  0.5351600000000 1.0
C      1  0.4647420000000  0.5743130000000  0.4292180000000 1.0
C      1  0.4970260000000  0.4747900000000  0.4457460000000 1.0
C      1  0.5006400000000  0.5513400000000  0.4604260000000 1.0
C      1  0.6027780000000  0.4879190000000  0.5506770000000 1.0
C      1  0.5095660000000  0.4708070000000  0.4768570000000 1.0
C      1  0.5190040000000  0.5146550000000  0.4268180000000 1.0
C      1  0.5468410000000  0.6116880000000  0.4541540000000 1.0
C      1  0.5571610000000  0.4307130000000  0.5669570000000 1.0
C      1  0.4976490000000  0.4735720000000  0.5235470000000 1.0
C      1  0.5449150000000  0.4472170000000  0.4361010000000 1.0
C      1  0.4209940000000  0.4232650000000  0.5146530000000 1.0
C      1  0.4782090000000  0.5491590000000  0.5224230000000 1.0
C      1  0.4752000000000  0.5310550000000  0.5452300000000 1.0
C      1  0.4277700000000  0.4567540000000  0.4376080000000 1.0
C      1  0.4774460000000  0.4335340000000  0.4502150000000 1.0
C      1  0.5592780000000  0.4881080000000  0.4698120000000 1.0
C      1  0.5044870000000  0.5672750000000  0.4051780000000 1.0
C      1  0.6039260000000  0.5454960000000  0.4688940000000 1.0
C      1  0.6174690000000  0.4988220000000  0.4896700000000 1.0
C      1  0.6022000000000  0.5410670000000  0.5684090000000 1.0
C      1  0.5324050000000  0.4334900000000  0.5816350000000 1.0
C      1  0.5654390000000  0.4087380000000  0.4991740000000 1.0
C      1  0.5096020000000  0.5112780000000  0.3990050000000 1.0
C      1  0.5313530000000  0.4780580000000  0.6158290000000 1.0
C      1  0.5508390000000  0.4362340000000  0.5392080000000 1.0
C      1  0.4735460000000  0.4916050000000  0.4491170000000 1.0
C      1  0.5497150000000  0.5279280000000  0.5416880000000 1.0
C      1  0.5774250000000  0.5422080000000  0.5831180000000 1.0
C      1  0.5614000000000  0.4130500000000  0.4698330000000 1.0
C      1  0.5045420000000  0.4120400000000  0.4254390000000 1.0
C      1  0.4244310000000  0.4858790000000  0.4333150000000 1.0
C      1  0.4431400000000  0.4391810000000  0.4211910000000 1.0
C      1  0.4454700000000  0.5254120000000  0.5962010000000 1.0
C      1  0.5187680000000  0.4877210000000  0.3867230000000 1.0
C      1  0.4393790000000  0.4499160000000  0.5791570000000 1.0
C      1  0.3993340000000  0.5751930000000  0.4975550000000 1.0
C      1  0.5928420000000  0.5117340000000  0.4298480000000 1.0
C      1  0.4820360000000  0.5484630000000  0.3962400000000 1.0
C      1  0.4573560000000  0.5672980000000  0.5128870000000 1.0
C      1  0.4398660000000  0.5033750000000  0.4138770000000 1.0
C      1  0.4288410000000  0.4280480000000  0.5572730000000 1.0
C      1  0.3990450000000  0.4778290000000  0.5608380000000 1.0
C      1  0.3814360000000  0.5250120000000  0.4851490000000 1.0
C      1  0.4872980000000  0.4513320000000  0.4310060000000 1.0
C      1  0.5170550000000  0.4245800000000  0.4760190000000 1.0
C      1  0.5891760000000  0.4723410000000  0.5708240000000 1.0
C      1  0.4527800000000  0.4614570000000  0.5598420000000 1.0
C      1  0.6097100000000  0.5161110000000  0.5542230000000 1.0
C      1  0.4322300000000  0.5993910000000  0.5035960000000 1.0
C      1  0.5571290000000  0.5472460000000  0.4103370000000 1.0
C      1  0.4051340000000  0.4978630000000  0.4523720000000 1.0
C      1  0.5981120000000  0.5269890000000  0.5301840000000 1.0
C      1  0.4560560000000  0.5194140000000  0.4977060000000 1.0
C      1  0.4399240000000  0.3993130000000  0.5109910000000 1.0
C      1  0.4602850000000  0.4773320000000  0.4697380000000 1.0
C      1  0.4099120000000  0.4993900000000  0.5749820000000 1.0
C      1  0.5667140000000  0.5144770000000  0.5851880000000 1.0
C      1  0.5083520000000  0.4885320000000  0.4998620000000 1.0
C      1  0.5246590000000  0.5301680000000  0.5299500000000 1.0
C      1  0.5170220000000  0.5287030000000  0.6085500000000 1.0
C      1  0.5033110000000  0.5812660000000  0.5683130000000 1.0
C      1  0.5472640000000  0.5404930000000  0.4575050000000 1.0
C      1  0.5647280000000  0.5306940000000  0.4973770000000 1.0
C      1  0.4628900000000  0.5713530000000  0.5727430000000 1.0
C      1  0.5267180000000  0.6107670000000  0.5002510000000 1.0
C      1  0.5816770000000  0.4835650000000  0.4302480000000 1.0
C      1  0.4744280000000  0.4380080000000  0.4982090000000 1.0
C      1  0.6208420000000  0.4751240000000  0.4745400000000 1.0
C      1  0.5377190000000  0.4496290000000  0.4071430000000 1.0
C      1  0.5710470000000  0.5154340000000  0.5211100000000 1.0
C      1  0.4734490000000  0.4762130000000  0.6015860000000 1.0
C      1  0.5068860000000  0.4976990000000  0.5638360000000 1.0
C      1  0.5556290000000  0.4723860000000  0.6047250000000 1.0
C      1  0.5308420000000  0.5577730000000  0.4064160000000 1.0
C      1  0.3953130000000  0.4831720000000  0.4757390000000 1.0
C      1  0.4875850000000  0.3874100000000  0.5178180000000 1.0
C      1  0.6164260000000  0.4998790000000  0.4608160000000 1.0
C      1  0.5182540000000  0.6083250000000  0.4489870000000 1.0
C      1  0.5473290000000  0.4686900000000  0.5076310000000 1.0
C      1  0.5380450000000  0.3974270000000  0.5025040000000 1.0
C      1  0.5592580000000  0.5792990000000  0.4944450000000 1.0
C      1  0.3910280000000  0.5466780000000  0.5023500000000 1.0
C      1  0.5139370000000  0.5006190000000  0.6188590000000 1.0
C      1  0.5415230000000  0.4767320000000  0.3982850000000 1.0
C      1  0.5372070000000  0.5598300000000  0.4829340000000 1.0
C      1  0.4590580000000  0.6058780000000  0.4967530000000 1.0
C      1  0.4474280000000  0.5281470000000  0.4562710000000 1.0
C      1  0.4755070000000  0.5916160000000  0.5180450000000 1.0
C      1  0.4717580000000  0.5222180000000  0.6076980000000 1.0
C      1  0.4399230000000  0.5348350000000  0.4828190000000 1.0
C      1  0.4331430000000  0.5524030000000  0.5256350000000 1.0
C      1  0.4440680000000  0.4729330000000  0.5981020000000 1.0
C      1  0.5501780000000  0.6058770000000  0.4842870000000 1.0
C      1  0.5205540000000  0.5380600000000  0.4439550000000 1.0
C      1  0.5491500000000  0.5093780000000  0.5635970000000 1.0
C      1  0.6017540000000  0.4553800000000  0.4849790000000 1.0
C      1  0.4419910000000  0.5504110000000  0.5802390000000 1.0
C      1  0.5336750000000  0.5347420000000  0.5032700000000 1.0
C      1  0.4750430000000  0.5197070000000  0.4529570000000 1.0
C      1  0.5754940000000  0.4871570000000  0.5921310000000 1.0
C      1  0.4629950000000  0.4981920000000  0.3967830000000 1.0
C      1  0.5303570000000  0.4552600000000  0.4865700000000 1.0
C      1  0.4606100000000  0.3944970000000  0.5310710000000 1.0
C      1  0.4525780000000  0.4172360000000  0.4373860000000 1.0
C      1  0.4312140000000  0.4994750000000  0.5948000000000 1.0
C      1  0.4619420000000  0.4888920000000  0.5593920000000 1.0
C      1  0.6052690000000  0.5670070000000  0.5132350000000 1.0
C      1  0.4563190000000  0.4080730000000  0.5562560000000 1.0
C      1  0.5704270000000  0.4856380000000  0.5122350000000 1.0
C      1  0.5673760000000  0.5525710000000  0.4369240000000 1.0
C      1  0.4369340000000  0.5323120000000  0.4140970000000 1.0
C      1  0.4574740000000  0.5530390000000  0.4101280000000 1.0
C      1  0.4939000000000  0.4175700000000  0.4919220000000 1.0
C      1  0.4118730000000  0.5900380000000  0.5204590000000 1.0
C      1  0.5004640000000  0.4671440000000  0.3818180000000 1.0
C      1  0.4800260000000  0.5837850000000  0.5512160000000 1.0
C      1  0.4243820000000  0.4809910000000  0.5180700000000 1.0
C      1  0.4901910000000  0.5866780000000  0.4242350000000 1.0
C      1  0.5376630000000  0.4620260000000  0.5361880000000 1.0
C      1  0.5122040000000  0.4515250000000  0.5323290000000 1.0
C      1  0.4519180000000  0.5148840000000  0.5521290000000 1.0
C      1  0.4501900000000  0.3956000000000  0.4846830000000 1.0
C      1  0.5270980000000  0.5942350000000  0.5233730000000 1.0
C      1  0.5877230000000  0.5575890000000  0.4920030000000 1.0
C      1  0.5947890000000  0.5551650000000  0.5403430000000 1.0
C      1  0.4690890000000  0.6030910000000  0.4681460000000 1.0
C      1  0.4379930000000  0.4099070000000  0.4608640000000 1.0
C      1  0.3845540000000  0.4892820000000  0.5238070000000 1.0
C      1  0.4028960000000  0.4343660000000  0.5424140000000 1.0
C      1  0.4161160000000  0.5687390000000  0.5419060000000 1.0
C      1  0.5440190000000  0.4743560000000  0.4496260000000 1.0
C      1  0.4797670000000  0.5319850000000  0.5007640000000 1.0
C      1  0.4871100000000  0.5682020000000  0.5890110000000 1.0
C      1  0.4942010000000  0.5279210000000  0.4769710000000 1.0
C      1  0.5149130000000  0.3993040000000  0.5217140000000 1.0
C      1  0.4917880000000  0.6055380000000  0.4470400000000 1.0
C      1  0.5713600000000  0.5194570000000  0.4106660000000 1.0
C      1  0.4181170000000  0.5494900000000  0.5639910000000 1.0
C      1  0.4920930000000  0.5397200000000  0.5976760000000 1.0
C      1  0.4516360000000  0.4850170000000  0.5158060000000 1.0
C      1  0.4791790000000  0.3922710000000  0.4902470000000 1.0
C      1  0.4437250000000  0.5651900000000  0.4807490000000 1.0
C      1  0.4126370000000  0.4678540000000  0.4941970000000 1.0
C      1  0.5035670000000  0.5892750000000  0.5021180000000 1.0
C      1  0.5711290000000  0.4300650000000  0.5189680000000 1.0
C      1  0.6215940000000  0.5236450000000  0.4755630000000 1.0
C      1  0.4647200000000  0.4429590000000  0.5263020000000 1.0
C      1  0.5095280000000  0.4228230000000  0.5392010000000 1.0
C      1  0.5604210000000  0.5165580000000  0.4726150000000 1.0
C      1  0.5159900000000  0.5159510000000  0.4930380000000 1.0
C      1  0.3954730000000  0.5250270000000  0.4596240000000 1.0
C      1  0.5020850000000  0.5200530000000  0.5464370000000 1.0
C      1  0.3793510000000  0.4971020000000  0.4960310000000 1.0
C      1  0.4093490000000  0.5053500000000  0.5264980000000 1.0
C      1  0.4300730000000  0.5402420000000  0.4392940000000 1.0
C      1  0.6066530000000  0.4538770000000  0.5143450000000 1.0
C      1  0.5837210000000  0.4446460000000  0.5618490000000 1.0
C      1  0.5606970000000  0.5654100000000  0.5726040000000 1.0
C      1  0.5019230000000  0.4153910000000  0.4521590000000 1.0
C      1  0.4078120000000  0.5504610000000  0.4529450000000 1.0
C      1  0.5333800000000  0.4844180000000  0.5624330000000 1.0
C      1  0.5919230000000  0.5388250000000  0.4437910000000 1.0
C      1  0.4706360000000  0.4696260000000  0.5262810000000 1.0
C      1  0.5340730000000  0.4024960000000  0.4736040000000 1.0
C      1  0.4830710000000  0.5200490000000  0.3913570000000 1.0
C      1  0.5672790000000  0.4325080000000  0.4478630000000 1.0
C      1  0.5319270000000  0.5677370000000  0.5788070000000 1.0
C      1  0.4232860000000  0.4356040000000  0.4611370000000 1.0
C      1  0.5603090000000  0.4923690000000  0.4129150000000 1.0
C      1  0.4584210000000  0.5797960000000  0.4579420000000 1.0
C      1  0.5093270000000  0.4196280000000  0.5694600000000 1.0
C      1  0.4851310000000  0.4975200000000  0.6175070000000 1.0
C      1  0.5329060000000  0.4636450000000  0.5891070000000 1.0
C      1  0.5109440000000  0.5712810000000  0.4789390000000 1.0
C      1  0.4850270000000  0.4825400000000  0.5755810000000 1.0
C      1  0.5761490000000  0.4645500000000  0.4731560000000 1.0
C      1  0.4948410000000  0.4234700000000  0.4023150000000 1.0
C      1  0.4402840000000  0.4340780000000  0.5318770000000 1.0
C      1  0.5619270000000  0.5598210000000  0.5432160000000 1.0
C      1  0.4221390000000  0.5193320000000  0.5548610000000 1.0
C      1  0.4148950000000  0.5708270000000  0.4730940000000 1.0
C      1  0.4169620000000  0.4402160000000  0.4886400000000 1.0
C      1  0.5332960000000  0.5470460000000  0.5956570000000 1.0
C      1  0.5213620000000  0.4890680000000  0.4402200000000 1.0
C      1  0.4686170000000  0.4501940000000  0.4738760000000 1.0
C      1  0.3901310000000  0.4602890000000  0.5419250000000 1.0
C      1  0.4732140000000  0.4719380000000  0.3900060000000 1.0
C      1  0.4811810000000  0.4143430000000  0.5675580000000 1.0
C      1  0.5847280000000  0.4573730000000  0.4460860000000 1.0
C      1  0.4703700000000  0.4474450000000  0.4072880000000 1.0
C      1  0.5987530000000  0.4815300000000  0.5211690000000 1.0
END
