TITL C-4164241-3639-257 32.4316207488242 125000 -14034.2712081225 0 0 95 (C1) n - 1
REM
REM in /home/nfs/bkarasulu/CARBON/AIRSS/Generating-Clusters/ReaxFF-fromJPCA2015/Units_Real/with-SteepDescent/Only-C1/SD-CG/Try1-3A/FIRE-CG
REM
REM
REM
REM
REM
REM ./C.cell (11c1c37f851c82e70ff6c80c92926a4b)
REM
REM compiler GCC version 9.2.1 20190827 (Red Hat 9.2.1-1)
REM options -cpp -mtune=generic -march=x86-64 -g -O0 -fpre-include=/usr/include/finclude/math-vector-fortran.h
REM seed -721675395 267540823 -1747713206 273761387 -440743398 888654765 -2013200938 86888505 -1165610027 -1349284727 1146814896 -1088732776 -1377302029 1543922973 -1738410604 1632653899 -804972116 -599321550 -1666791324 -1051198520 -1974669036 -63926585 -456959430 758618546 -1411846049 -2039350514 2057335983 -1725167682 -1477967065 1672574993 887102408 1628412174 -391465437
REM
CELL 1.54180   50.00000   50.00000   50.00000   90.00000   90.00000   90.00000
LATT -1
SFAC C  
C      1  0.5363710000000  0.5660740000000  0.4458600000000 1.0
C      1  0.5259470000000  0.5138450000000  0.4506620000000 1.0
C      1  0.4968110000000  0.5417540000000  0.5246810000000 1.0
C      1  0.5400530000000  0.4217930000000  0.4890820000000 1.0
C      1  0.5125740000000  0.5870400000000  0.5049910000000 1.0
C      1  0.5764950000000  0.4940890000000  0.5173520000000 1.0
C      1  0.4204400000000  0.5168100000000  0.4706300000000 1.0
C      1  0.4853370000000  0.5331140000000  0.4685410000000 1.0
C      1  0.5299490000000  0.4748930000000  0.4235910000000 1.0
C      1  0.5394500000000  0.4309440000000  0.5157780000000 1.0
C      1  0.4957770000000  0.4568400000000  0.5169920000000 1.0
C      1  0.5564950000000  0.4759700000000  0.5313860000000 1.0
C      1  0.5944340000000  0.5213190000000  0.4718340000000 1.0
C      1  0.5863800000000  0.4928310000000  0.4671070000000 1.0
C      1  0.5505530000000  0.5775170000000  0.5186970000000 1.0
C      1  0.5164500000000  0.4865560000000  0.5724370000000 1.0
C      1  0.5633500000000  0.5395620000000  0.5434870000000 1.0
C      1  0.5124520000000  0.5277030000000  0.5427920000000 1.0
C      1  0.4631380000000  0.5086720000000  0.4296060000000 1.0
C      1  0.5370500000000  0.5037340000000  0.4247690000000 1.0
C      1  0.4073800000000  0.5095180000000  0.4961180000000 1.0
C      1  0.4351190000000  0.5415570000000  0.5228020000000 1.0
C      1  0.5083080000000  0.5671900000000  0.4393200000000 1.0
C      1  0.5514940000000  0.4612580000000  0.4367670000000 1.0
C      1  0.5319450000000  0.5449590000000  0.4825850000000 1.0
C      1  0.5594990000000  0.4498730000000  0.5181750000000 1.0
C      1  0.5450050000000  0.4357410000000  0.4513410000000 1.0
C      1  0.5145410000000  0.4368400000000  0.5298400000000 1.0
C      1  0.4468650000000  0.4354050000000  0.5378860000000 1.0
C      1  0.5237950000000  0.4370580000000  0.4702970000000 1.0
C      1  0.4382710000000  0.4573830000000  0.5539880000000 1.0
C      1  0.4438790000000  0.4623810000000  0.4177660000000 1.0
C      1  0.4780610000000  0.5639790000000  0.5396200000000 1.0
C      1  0.4850680000000  0.5974730000000  0.5048220000000 1.0
C      1  0.4528230000000  0.4445260000000  0.4380020000000 1.0
C      1  0.5633160000000  0.4321930000000  0.4748240000000 1.0
C      1  0.5398430000000  0.5937310000000  0.4945110000000 1.0
C      1  0.4725060000000  0.4867810000000  0.4877480000000 1.0
C      1  0.4835360000000  0.5626730000000  0.4719170000000 1.0
C      1  0.4221420000000  0.4799670000000  0.5444270000000 1.0
C      1  0.4574270000000  0.4335560000000  0.4615100000000 1.0
C      1  0.5559760000000  0.5031570000000  0.5697110000000 1.0
C      1  0.4169940000000  0.4677770000000  0.5184000000000 1.0
C      1  0.4811420000000  0.5639790000000  0.4424100000000 1.0
C      1  0.5287920000000  0.4903150000000  0.5225920000000 1.0
C      1  0.5741180000000  0.4515730000000  0.4938680000000 1.0
C      1  0.4789920000000  0.4729560000000  0.5335270000000 1.0
C      1  0.4245800000000  0.5094920000000  0.5472240000000 1.0
C      1  0.4991520000000  0.5240930000000  0.5856770000000 1.0
C      1  0.5151610000000  0.5007370000000  0.5457060000000 1.0
C      1  0.4705830000000  0.4147860000000  0.4964160000000 1.0
C      1  0.4818170000000  0.4155570000000  0.4709420000000 1.0
C      1  0.4655820000000  0.5812820000000  0.5200100000000 1.0
C      1  0.4639750000000  0.5338330000000  0.4488640000000 1.0
C      1  0.4782730000000  0.5274010000000  0.5084040000000 1.0
C      1  0.5725120000000  0.4817540000000  0.4424100000000 1.0
C      1  0.4426870000000  0.4619490000000  0.5037370000000 1.0
C      1  0.5627890000000  0.5077560000000  0.4364520000000 1.0
C      1  0.4440410000000  0.5330350000000  0.4717610000000 1.0
C      1  0.5515060000000  0.5304090000000  0.5692080000000 1.0
C      1  0.5321040000000  0.4616410000000  0.5741980000000 1.0
C      1  0.4671190000000  0.5481140000000  0.5607840000000 1.0
C      1  0.4381250000000  0.4519360000000  0.4762130000000 1.0
C      1  0.4161710000000  0.4706290000000  0.4695970000000 1.0
C      1  0.4604300000000  0.4835350000000  0.5136780000000 1.0
C      1  0.5257310000000  0.5440320000000  0.5606490000000 1.0
C      1  0.4827650000000  0.4900060000000  0.4314720000000 1.0
C      1  0.5826610000000  0.4795400000000  0.4928770000000 1.0
C      1  0.4976680000000  0.4970140000000  0.5943430000000 1.0
C      1  0.5208020000000  0.5013300000000  0.4982910000000 1.0
C      1  0.5172880000000  0.5574520000000  0.5034540000000 1.0
C      1  0.4045750000000  0.4807750000000  0.4947700000000 1.0
C      1  0.4772840000000  0.4815440000000  0.5821800000000 1.0
C      1  0.4530430000000  0.5372080000000  0.4993350000000 1.0
C      1  0.5509250000000  0.5620850000000  0.5348090000000 1.0
C      1  0.4214680000000  0.4935490000000  0.4521460000000 1.0
C      1  0.5098130000000  0.4680130000000  0.4661320000000 1.0
C      1  0.5090520000000  0.4196920000000  0.4636260000000 1.0
C      1  0.5201000000000  0.4392220000000  0.5588970000000 1.0
C      1  0.4675590000000  0.5797400000000  0.4904590000000 1.0
C      1  0.5775940000000  0.5222090000000  0.5221710000000 1.0
C      1  0.5562220000000  0.4765690000000  0.5640520000000 1.0
C      1  0.4901060000000  0.5123720000000  0.4888940000000 1.0
C      1  0.4134470000000  0.5216660000000  0.5225590000000 1.0
C      1  0.4953030000000  0.5470300000000  0.5738930000000 1.0
C      1  0.5028180000000  0.4718290000000  0.4351500000000 1.0
C      1  0.4453270000000  0.5316950000000  0.5488100000000 1.0
C      1  0.4666110000000  0.4682480000000  0.5611570000000 1.0
C      1  0.5431100000000  0.5371770000000  0.4577220000000 1.0
C      1  0.5400680000000  0.5832050000000  0.4682670000000 1.0
C      1  0.5906180000000  0.5343330000000  0.4983610000000 1.0
C      1  0.4397550000000  0.4913960000000  0.4296010000000 1.0
C      1  0.5263510000000  0.4927730000000  0.4716560000000 1.0
C      1  0.4906620000000  0.4645480000000  0.4889880000000 1.0
C      1  0.4583190000000  0.4209520000000  0.5189490000000 1.0
END
