TITL C-4164237-1827-719 55.7402413189734 125000 -20950.4679489295 0 0 142 (C1) n - 1
REM
REM in /home/nfs/bkarasulu/CARBON/AIRSS/Generating-Clusters/ReaxFF-fromJPCA2015/Units_Real/with-SteepDescent/Only-C1/SD-CG/Try1-3A/FIRE-CG
REM
REM
REM
REM
REM
REM ./C.cell (11c1c37f851c82e70ff6c80c92926a4b)
REM
REM compiler GCC version 9.2.1 20190827 (Red Hat 9.2.1-1)
REM options -cpp -mtune=generic -march=x86-64 -g -O0 -fpre-include=/usr/include/finclude/math-vector-fortran.h
REM seed 1189225638 -1256189231 -912301563 -447096931 -828750075 1705279183 -2047450711 372860227 167983224 1656074962 481467768 759848283 169853928 -751645142 -604408596 -494239148 -986485713 1528205778 -1143969686 2092967574 2019601482 1829565637 -543137622 -276130568 1175825316 1233538550 1564145983 -707573571 1690311891 -382759916 -1298718533 1575120918 1795113845
REM
CELL 1.54180   50.00000   50.00000   50.00000   90.00000   90.00000   90.00000
LATT -1
SFAC C  
C      1  0.5943410000000  0.4964600000000  0.4627810000000 1.0
C      1  0.4117650000000  0.4968000000000  0.4612800000000 1.0
C      1  0.5837440000000  0.4486090000000  0.4987400000000 1.0
C      1  0.5829740000000  0.5127470000000  0.4846900000000 1.0
C      1  0.5152990000000  0.4104610000000  0.4485670000000 1.0
C      1  0.4825070000000  0.4515340000000  0.4305850000000 1.0
C      1  0.3921070000000  0.5342670000000  0.5275580000000 1.0
C      1  0.4161770000000  0.4385150000000  0.5066150000000 1.0
C      1  0.5556800000000  0.5006950000000  0.4900090000000 1.0
C      1  0.5225670000000  0.5421460000000  0.4395680000000 1.0
C      1  0.5258400000000  0.5282740000000  0.5512100000000 1.0
C      1  0.4367770000000  0.5674170000000  0.4888100000000 1.0
C      1  0.4122590000000  0.5239370000000  0.4638590000000 1.0
C      1  0.4341180000000  0.5324040000000  0.5525220000000 1.0
C      1  0.4515370000000  0.4296320000000  0.4708560000000 1.0
C      1  0.4287000000000  0.4648250000000  0.4410620000000 1.0
C      1  0.4817660000000  0.4641950000000  0.4819320000000 1.0
C      1  0.4885900000000  0.5907290000000  0.5145640000000 1.0
C      1  0.5444050000000  0.4661180000000  0.4746160000000 1.0
C      1  0.5564850000000  0.5023590000000  0.4275850000000 1.0
C      1  0.4164400000000  0.4657550000000  0.4988340000000 1.0
C      1  0.5200580000000  0.4227910000000  0.5366290000000 1.0
C      1  0.4418220000000  0.5166830000000  0.4254830000000 1.0
C      1  0.4189460000000  0.4792840000000  0.5472940000000 1.0
C      1  0.5786390000000  0.5138820000000  0.4431170000000 1.0
C      1  0.4702240000000  0.6024940000000  0.4940170000000 1.0
C      1  0.4604180000000  0.5431520000000  0.5470030000000 1.0
C      1  0.4928720000000  0.4114710000000  0.4800050000000 1.0
C      1  0.4797130000000  0.4875500000000  0.5399790000000 1.0
C      1  0.5314840000000  0.4301770000000  0.4382690000000 1.0
C      1  0.5094340000000  0.5067760000000  0.4004440000000 1.0
C      1  0.5615450000000  0.4250860000000  0.5085790000000 1.0
C      1  0.5231210000000  0.4827710000000  0.5986060000000 1.0
C      1  0.4626350000000  0.5887960000000  0.5317280000000 1.0
C      1  0.4394890000000  0.5454120000000  0.5079640000000 1.0
C      1  0.5489080000000  0.4951190000000  0.5902470000000 1.0
C      1  0.4448160000000  0.4871650000000  0.4273920000000 1.0
C      1  0.4411130000000  0.4986290000000  0.5919810000000 1.0
C      1  0.5078260000000  0.6089420000000  0.4776730000000 1.0
C      1  0.5647570000000  0.4131280000000  0.5592200000000 1.0
C      1  0.4758790000000  0.5084140000000  0.5209220000000 1.0
C      1  0.5676340000000  0.4874250000000  0.5446670000000 1.0
C      1  0.5912480000000  0.4931850000000  0.5231670000000 1.0
C      1  0.5053100000000  0.4960410000000  0.4443550000000 1.0
C      1  0.5115460000000  0.5683500000000  0.5444400000000 1.0
C      1  0.4740190000000  0.5848320000000  0.4498580000000 1.0
C      1  0.5182100000000  0.4549360000000  0.5885400000000 1.0
C      1  0.5282810000000  0.5235370000000  0.4884060000000 1.0
C      1  0.5849620000000  0.5486820000000  0.5246910000000 1.0
C      1  0.4482490000000  0.5885350000000  0.5058120000000 1.0
C      1  0.4804380000000  0.4985570000000  0.4014740000000 1.0
C      1  0.4753820000000  0.5348780000000  0.4407590000000 1.0
C      1  0.4952630000000  0.5537860000000  0.5911640000000 1.0
C      1  0.5383500000000  0.5924910000000  0.5157300000000 1.0
C      1  0.4722320000000  0.5127330000000  0.4794440000000 1.0
C      1  0.5487700000000  0.4165960000000  0.5337430000000 1.0
C      1  0.4236960000000  0.5211090000000  0.4934930000000 1.0
C      1  0.4695600000000  0.4765180000000  0.4171900000000 1.0
C      1  0.4624980000000  0.5223390000000  0.4051960000000 1.0
C      1  0.5114220000000  0.5376300000000  0.4688670000000 1.0
C      1  0.4393830000000  0.4384310000000  0.4316110000000 1.0
C      1  0.5845610000000  0.5421130000000  0.4785100000000 1.0
C      1  0.5365050000000  0.5383560000000  0.5764270000000 1.0
C      1  0.4794260000000  0.4251210000000  0.5687070000000 1.0
C      1  0.4345580000000  0.4215950000000  0.4933280000000 1.0
C      1  0.4782660000000  0.5460380000000  0.4141850000000 1.0
C      1  0.5137480000000  0.6046720000000  0.5059340000000 1.0
C      1  0.5738020000000  0.5414990000000  0.4511180000000 1.0
C      1  0.4051570000000  0.4833310000000  0.5232960000000 1.0
C      1  0.4802530000000  0.6063780000000  0.4680370000000 1.0
C      1  0.5550080000000  0.4627620000000  0.5566970000000 1.0
C      1  0.5491870000000  0.5564570000000  0.4463710000000 1.0
C      1  0.5013500000000  0.4744170000000  0.4622000000000 1.0
C      1  0.5260550000000  0.5120230000000  0.4261470000000 1.0
C      1  0.4924700000000  0.4147140000000  0.5444640000000 1.0
C      1  0.4714930000000  0.4119890000000  0.4592370000000 1.0
C      1  0.4551770000000  0.4946750000000  0.5722250000000 1.0
C      1  0.5643370000000  0.5364070000000  0.5697680000000 1.0
C      1  0.4594740000000  0.4717650000000  0.5280550000000 1.0
C      1  0.4446800000000  0.4781350000000  0.5043250000000 1.0
C      1  0.5418810000000  0.5394670000000  0.5308710000000 1.0
C      1  0.5209060000000  0.4745560000000  0.4867680000000 1.0
C      1  0.4985470000000  0.5258360000000  0.5983940000000 1.0
C      1  0.4656630000000  0.5715680000000  0.5547570000000 1.0
C      1  0.4135360000000  0.4714770000000  0.4665320000000 1.0
C      1  0.4924840000000  0.4408060000000  0.5909300000000 1.0
C      1  0.5118620000000  0.4451610000000  0.4257510000000 1.0
C      1  0.4271350000000  0.4329390000000  0.5320460000000 1.0
C      1  0.5716430000000  0.4408270000000  0.5684200000000 1.0
C      1  0.4662170000000  0.4254120000000  0.4318660000000 1.0
C      1  0.4686450000000  0.4860730000000  0.5966860000000 1.0
C      1  0.4858900000000  0.5402850000000  0.4808180000000 1.0
C      1  0.5058370000000  0.4859210000000  0.5571890000000 1.0
C      1  0.5883830000000  0.4465750000000  0.4709010000000 1.0
C      1  0.4755470000000  0.4203970000000  0.5217400000000 1.0
C      1  0.5913060000000  0.5212110000000  0.5246060000000 1.0
C      1  0.5626810000000  0.5552890000000  0.5456850000000 1.0
C      1  0.5200640000000  0.5429780000000  0.5983260000000 1.0
C      1  0.5813940000000  0.4711890000000  0.4528690000000 1.0
C      1  0.4923160000000  0.5696010000000  0.5669490000000 1.0
C      1  0.4706970000000  0.5557760000000  0.4604730000000 1.0
C      1  0.4470730000000  0.4152440000000  0.5194150000000 1.0
C      1  0.4998630000000  0.5583550000000  0.5188820000000 1.0
C      1  0.5203760000000  0.5933140000000  0.4567970000000 1.0
C      1  0.4683050000000  0.4572810000000  0.5924310000000 1.0
C      1  0.5031380000000  0.5587190000000  0.4227240000000 1.0
C      1  0.4203960000000  0.5463120000000  0.5320960000000 1.0
C      1  0.5389840000000  0.5788290000000  0.5412640000000 1.0
C      1  0.4992020000000  0.4981900000000  0.5886140000000 1.0
C      1  0.5445520000000  0.4899930000000  0.5233090000000 1.0
C      1  0.5689880000000  0.4241270000000  0.4669580000000 1.0
C      1  0.5280350000000  0.4673070000000  0.5138000000000 1.0
C      1  0.5259550000000  0.4622880000000  0.5616770000000 1.0
C      1  0.5126140000000  0.4999900000000  0.4966610000000 1.0
C      1  0.5242690000000  0.5020600000000  0.5409990000000 1.0
C      1  0.4382240000000  0.4556200000000  0.5475670000000 1.0
C      1  0.5499390000000  0.4120730000000  0.4865570000000 1.0
C      1  0.5914310000000  0.4762240000000  0.4994240000000 1.0
C      1  0.4412490000000  0.5597930000000  0.4605260000000 1.0
C      1  0.5135730000000  0.4435580000000  0.5178800000000 1.0
C      1  0.4858220000000  0.4962210000000  0.4971420000000 1.0
C      1  0.4727420000000  0.5384670000000  0.5196820000000 1.0
C      1  0.5433240000000  0.5777270000000  0.4645880000000 1.0
C      1  0.4806810000000  0.5081820000000  0.4503000000000 1.0
C      1  0.4998830000000  0.5835690000000  0.4369450000000 1.0
C      1  0.4273830000000  0.5032990000000  0.5648870000000 1.0
C      1  0.5213590000000  0.4040360000000  0.4751600000000 1.0
C      1  0.5270540000000  0.5494130000000  0.5076210000000 1.0
C      1  0.4563560000000  0.4432530000000  0.5707320000000 1.0
C      1  0.5660480000000  0.5072500000000  0.5702760000000 1.0
C      1  0.4904230000000  0.4358780000000  0.5003970000000 1.0
C      1  0.5329670000000  0.4629010000000  0.4139940000000 1.0
C      1  0.5577550000000  0.4742550000000  0.4274210000000 1.0
C      1  0.4650160000000  0.4534580000000  0.4612120000000 1.0
C      1  0.4003260000000  0.5102620000000  0.5128690000000 1.0
C      1  0.5491160000000  0.5726090000000  0.4947970000000 1.0
C      1  0.5565930000000  0.4850050000000  0.4651360000000 1.0
C      1  0.4305270000000  0.5365340000000  0.4454460000000 1.0
C      1  0.5180680000000  0.4812690000000  0.3987110000000 1.0
C      1  0.4459590000000  0.5026610000000  0.4902750000000 1.0
C      1  0.5765830000000  0.5600830000000  0.4991840000000 1.0
C      1  0.5474750000000  0.4424090000000  0.4586350000000 1.0
END
