TITL C-4164235-1454-363 0.842179414666453 125000 -12489.2841714651 0 0 84 (C1) n - 1
REM
REM in /home/nfs/bkarasulu/CARBON/AIRSS/Generating-Clusters/ReaxFF-fromJPCA2015/Units_Real/with-SteepDescent/Only-C1/SD-CG/Try1-3A/FIRE-CG
REM
REM
REM
REM
REM
REM ./C.cell (11c1c37f851c82e70ff6c80c92926a4b)
REM
REM compiler GCC version 9.2.1 20190827 (Red Hat 9.2.1-1)
REM options -cpp -mtune=generic -march=x86-64 -g -O0 -fpre-include=/usr/include/finclude/math-vector-fortran.h
REM seed -243037879 1756974087 -637601533 -1830629723 905867070 719305263 -728548237 -856229461 -1376210188 -2036539300 215973686 -1367792132 25421504 -75939910 862238071 1949188280 1687110535 -918775602 -1659844373 -772481336 -642639978 40306151 -490865716 263456186 1403347947 59394039 1946459370 -1502855383 243578719 -6976268 647256978 -1313660767 357061861
REM
CELL 1.54180   50.00000   50.00000   50.00000   90.00000   90.00000   90.00000
LATT -1
SFAC C  
C      1  0.4805050000000  0.5318690000000  0.4945200000000 1.0
C      1  0.5291280000000  0.4287550000000  0.5696520000000 1.0
C      1  0.5074400000000  0.4229010000000  0.5643710000000 1.0
C      1  0.4349060000000  0.5507520000000  0.4823420000000 1.0
C      1  0.5111420000000  0.5034970000000  0.5684690000000 1.0
C      1  0.4915430000000  0.4679060000000  0.4772490000000 1.0
C      1  0.5646900000000  0.5208440000000  0.5414700000000 1.0
C      1  0.5507250000000  0.5325520000000  0.5645560000000 1.0
C      1  0.6034770000000  0.4945110000000  0.4926520000000 1.0
C      1  0.5326870000000  0.5647800000000  0.5304080000000 1.0
C      1  0.4808540000000  0.5889270000000  0.4906460000000 1.0
C      1  0.4124240000000  0.5029060000000  0.4927640000000 1.0
C      1  0.5330390000000  0.4534160000000  0.5268770000000 1.0
C      1  0.4513480000000  0.4700460000000  0.5446460000000 1.0
C      1  0.4990310000000  0.5098900000000  0.4277440000000 1.0
C      1  0.4690320000000  0.4519300000000  0.5615300000000 1.0
C      1  0.5854520000000  0.4696260000000  0.4638410000000 1.0
C      1  0.4524830000000  0.5259950000000  0.4924550000000 1.0
C      1  0.5402360000000  0.5567970000000  0.4702790000000 1.0
C      1  0.5022010000000  0.5000170000000  0.5199670000000 1.0
C      1  0.5269660000000  0.4665500000000  0.4269230000000 1.0
C      1  0.4833800000000  0.4828780000000  0.5058260000000 1.0
C      1  0.5243600000000  0.5244580000000  0.4332440000000 1.0
C      1  0.5477920000000  0.5088040000000  0.4396120000000 1.0
C      1  0.5009250000000  0.4802210000000  0.4297530000000 1.0
C      1  0.5652550000000  0.4946830000000  0.5270900000000 1.0
C      1  0.4128330000000  0.4756630000000  0.4862070000000 1.0
C      1  0.5163400000000  0.4746430000000  0.5737080000000 1.0
C      1  0.4421360000000  0.5546650000000  0.5311370000000 1.0
C      1  0.4232880000000  0.4504960000000  0.4784940000000 1.0
C      1  0.4990210000000  0.5652290000000  0.4489430000000 1.0
C      1  0.4308840000000  0.5164180000000  0.4526650000000 1.0
C      1  0.5434250000000  0.4796380000000  0.5135860000000 1.0
C      1  0.4810010000000  0.5348960000000  0.5491580000000 1.0
C      1  0.4354940000000  0.4310080000000  0.5012200000000 1.0
C      1  0.4501350000000  0.5406690000000  0.5522170000000 1.0
C      1  0.4154400000000  0.5255020000000  0.4726470000000 1.0
C      1  0.4386890000000  0.5686560000000  0.5086090000000 1.0
C      1  0.4628420000000  0.5869480000000  0.5120720000000 1.0
C      1  0.4924090000000  0.5070900000000  0.5466870000000 1.0
C      1  0.5326740000000  0.4547220000000  0.5578820000000 1.0
C      1  0.4882900000000  0.5477800000000  0.5179700000000 1.0
C      1  0.5173700000000  0.5484730000000  0.5108160000000 1.0
C      1  0.4854040000000  0.4266840000000  0.5229260000000 1.0
C      1  0.4494920000000  0.5070970000000  0.4348780000000 1.0
C      1  0.4416400000000  0.4924580000000  0.5556790000000 1.0
C      1  0.5027610000000  0.5182660000000  0.4819490000000 1.0
C      1  0.4505640000000  0.5602380000000  0.4581680000000 1.0
C      1  0.5406940000000  0.4460050000000  0.4433280000000 1.0
C      1  0.4846910000000  0.5739990000000  0.5283970000000 1.0
C      1  0.4888410000000  0.4647870000000  0.5794240000000 1.0
C      1  0.4387240000000  0.4047210000000  0.5071510000000 1.0
C      1  0.4815840000000  0.4270090000000  0.5520410000000 1.0
C      1  0.4738710000000  0.5229540000000  0.4320260000000 1.0
C      1  0.5518810000000  0.4829560000000  0.4270820000000 1.0
C      1  0.5655820000000  0.4615240000000  0.4432370000000 1.0
C      1  0.5946780000000  0.4661170000000  0.4925140000000 1.0
C      1  0.4405650000000  0.4609000000000  0.4589480000000 1.0
C      1  0.5457810000000  0.4276180000000  0.4904620000000 1.0
C      1  0.4810760000000  0.4684720000000  0.4474200000000 1.0
C      1  0.5119980000000  0.4907560000000  0.4760160000000 1.0
C      1  0.5519540000000  0.5336990000000  0.4850250000000 1.0
C      1  0.5243780000000  0.5707570000000  0.4896790000000 1.0
C      1  0.4325970000000  0.5182530000000  0.5649540000000 1.0
C      1  0.5073550000000  0.4420880000000  0.4835150000000 1.0
C      1  0.5198450000000  0.5199120000000  0.5049350000000 1.0
C      1  0.5085660000000  0.5723230000000  0.5456630000000 1.0
C      1  0.5224880000000  0.5304450000000  0.5731180000000 1.0
C      1  0.5901090000000  0.4832070000000  0.5163470000000 1.0
C      1  0.5232310000000  0.5511280000000  0.4455650000000 1.0
C      1  0.5301340000000  0.4322980000000  0.4678400000000 1.0
C      1  0.4732080000000  0.5517470000000  0.4423430000000 1.0
C      1  0.4398960000000  0.5032600000000  0.5048250000000 1.0
C      1  0.5087450000000  0.4397590000000  0.5126000000000 1.0
C      1  0.4541130000000  0.4763870000000  0.4403350000000 1.0
C      1  0.5548190000000  0.4297140000000  0.5160170000000 1.0
C      1  0.5881060000000  0.4983230000000  0.4678040000000 1.0
C      1  0.4627660000000  0.4191160000000  0.5043210000000 1.0
C      1  0.5551290000000  0.5491000000000  0.5410560000000 1.0
C      1  0.5024330000000  0.5827710000000  0.4737320000000 1.0
C      1  0.4566700000000  0.4810960000000  0.5171100000000 1.0
C      1  0.5389650000000  0.4870600000000  0.4862180000000 1.0
C      1  0.5580200000000  0.5068620000000  0.4688410000000 1.0
C      1  0.5033560000000  0.5501260000000  0.5636060000000 1.0
END
