TITL C-4164234-2335-473 1.36402366357816 125000 -23186.0544774821 0 0 155 (C1) n - 1
REM
REM in /home/nfs/bkarasulu/CARBON/AIRSS/Generating-Clusters/ReaxFF-fromJPCA2015/Units_Real/with-SteepDescent/Only-C1/SD-CG/Try1-3A/FIRE-CG
REM
REM
REM
REM
REM
REM ./C.cell (11c1c37f851c82e70ff6c80c92926a4b)
REM
REM compiler GCC version 9.2.1 20190827 (Red Hat 9.2.1-1)
REM options -cpp -mtune=generic -march=x86-64 -g -O0 -fpre-include=/usr/include/finclude/math-vector-fortran.h
REM seed 1620761427 -1507608725 -1741707315 -246441965 185862039 -1119323367 783011974 -272970261 -1344371436 -420244204 2106493863 307087107 -1538050886 1429046073 94643807 -1807141195 -1262013892 764353440 -5404193 733769158 1888806416 -499932419 380671200 1289120320 -702596328 1979434589 1736769360 2032752534 -285887975 1779232679 776283412 -945651493 -875834497
REM
CELL 1.54180   50.00000   50.00000   50.00000   90.00000   90.00000   90.00000
LATT -1
SFAC C  
C      1  0.4962220000000  0.5017620000000  0.5747380000000 1.0
C      1  0.4948120000000  0.4806870000000  0.5514900000000 1.0
C      1  0.4249130000000  0.4985290000000  0.4244510000000 1.0
C      1  0.4781740000000  0.5917600000000  0.5193740000000 1.0
C      1  0.4696990000000  0.5378150000000  0.5222250000000 1.0
C      1  0.5297990000000  0.5303850000000  0.5923140000000 1.0
C      1  0.4461840000000  0.5792230000000  0.4716550000000 1.0
C      1  0.5284990000000  0.4880460000000  0.4667110000000 1.0
C      1  0.5179230000000  0.5963560000000  0.5344320000000 1.0
C      1  0.4320660000000  0.5664920000000  0.5333190000000 1.0
C      1  0.4123340000000  0.5333350000000  0.4586320000000 1.0
C      1  0.5325750000000  0.4348830000000  0.4145570000000 1.0
C      1  0.5409220000000  0.5720680000000  0.5048420000000 1.0
C      1  0.4957650000000  0.4881810000000  0.6007620000000 1.0
C      1  0.5479360000000  0.4248470000000  0.5188600000000 1.0
C      1  0.5408820000000  0.4224080000000  0.5492920000000 1.0
C      1  0.4414800000000  0.4193780000000  0.4802020000000 1.0
C      1  0.5464660000000  0.4396700000000  0.5712010000000 1.0
C      1  0.3986510000000  0.5071460000000  0.5203270000000 1.0
C      1  0.5183340000000  0.4728260000000  0.4463470000000 1.0
C      1  0.4252010000000  0.5375900000000  0.4852540000000 1.0
C      1  0.5325670000000  0.5145970000000  0.4574910000000 1.0
C      1  0.4335650000000  0.4533010000000  0.5120140000000 1.0
C      1  0.5410080000000  0.5224980000000  0.5297190000000 1.0
C      1  0.5194910000000  0.5679540000000  0.5235570000000 1.0
C      1  0.4530320000000  0.5134010000000  0.4212520000000 1.0
C      1  0.4681860000000  0.5597840000000  0.5605210000000 1.0
C      1  0.4600370000000  0.5774590000000  0.5394700000000 1.0
C      1  0.4997800000000  0.5135950000000  0.3967940000000 1.0
C      1  0.4987530000000  0.5816080000000  0.4756410000000 1.0
C      1  0.5801170000000  0.5711970000000  0.4927900000000 1.0
C      1  0.5217660000000  0.5965640000000  0.4413400000000 1.0
C      1  0.5505890000000  0.4547830000000  0.5207190000000 1.0
C      1  0.5240840000000  0.5273330000000  0.4055780000000 1.0
C      1  0.5693450000000  0.4591110000000  0.4548010000000 1.0
C      1  0.5368440000000  0.5991300000000  0.4662210000000 1.0
C      1  0.4619840000000  0.5146820000000  0.4543090000000 1.0
C      1  0.4644560000000  0.4652710000000  0.4084060000000 1.0
C      1  0.5825960000000  0.5241350000000  0.4787360000000 1.0
C      1  0.4935440000000  0.5890280000000  0.4449900000000 1.0
C      1  0.4912710000000  0.4620060000000  0.3979670000000 1.0
C      1  0.5038290000000  0.4403480000000  0.4122660000000 1.0
C      1  0.4083460000000  0.4564080000000  0.4705780000000 1.0
C      1  0.3941440000000  0.4662110000000  0.5150860000000 1.0
C      1  0.4849940000000  0.5476870000000  0.4192380000000 1.0
C      1  0.4221250000000  0.5449450000000  0.5511620000000 1.0
C      1  0.5171990000000  0.3967630000000  0.4800420000000 1.0
C      1  0.4476140000000  0.4190760000000  0.5610090000000 1.0
C      1  0.4218050000000  0.4281030000000  0.5505860000000 1.0
C      1  0.4908840000000  0.4934660000000  0.4797870000000 1.0
C      1  0.4651620000000  0.4858970000000  0.5985100000000 1.0
C      1  0.5161700000000  0.4420320000000  0.4836000000000 1.0
C      1  0.5403460000000  0.5576270000000  0.4787760000000 1.0
C      1  0.5126910000000  0.4150420000000  0.5518760000000 1.0
C      1  0.4329240000000  0.5797470000000  0.4951390000000 1.0
C      1  0.5148310000000  0.5599060000000  0.4648000000000 1.0
C      1  0.4658250000000  0.4064120000000  0.4891660000000 1.0
C      1  0.5728580000000  0.5648550000000  0.5415990000000 1.0
C      1  0.4508490000000  0.4013480000000  0.5372030000000 1.0
C      1  0.5164550000000  0.5542890000000  0.4089830000000 1.0
C      1  0.5379650000000  0.4052890000000  0.4615510000000 1.0
C      1  0.4503580000000  0.5137930000000  0.5895080000000 1.0
C      1  0.4841310000000  0.4002890000000  0.4424300000000 1.0
C      1  0.4411100000000  0.5303830000000  0.6052160000000 1.0
C      1  0.5723210000000  0.5100170000000  0.4336520000000 1.0
C      1  0.5552190000000  0.4394850000000  0.4318180000000 1.0
C      1  0.5209920000000  0.4446610000000  0.5854120000000 1.0
C      1  0.5612440000000  0.5770060000000  0.4689990000000 1.0
C      1  0.5308440000000  0.5785000000000  0.4175530000000 1.0
C      1  0.4695980000000  0.4384350000000  0.5714250000000 1.0
C      1  0.5904670000000  0.4717060000000  0.4911130000000 1.0
C      1  0.4738350000000  0.4560650000000  0.5178590000000 1.0
C      1  0.5079630000000  0.4492030000000  0.4572350000000 1.0
C      1  0.5634030000000  0.4743150000000  0.5026770000000 1.0
C      1  0.4728390000000  0.4028050000000  0.5172360000000 1.0
C      1  0.5219630000000  0.4068500000000  0.5066100000000 1.0
C      1  0.4079150000000  0.5254760000000  0.5366230000000 1.0
C      1  0.4673250000000  0.4613620000000  0.5462820000000 1.0
C      1  0.5149070000000  0.4628890000000  0.5387450000000 1.0
C      1  0.4995740000000  0.4297890000000  0.5727980000000 1.0
C      1  0.4589750000000  0.4590470000000  0.5922360000000 1.0
C      1  0.4465100000000  0.4878720000000  0.4098020000000 1.0
C      1  0.4917090000000  0.5228900000000  0.4837510000000 1.0
C      1  0.4954890000000  0.5560760000000  0.5695440000000 1.0
C      1  0.5009570000000  0.4047770000000  0.5258340000000 1.0
C      1  0.5053120000000  0.4863080000000  0.5046980000000 1.0
C      1  0.4221400000000  0.4267220000000  0.5025150000000 1.0
C      1  0.5716470000000  0.5600880000000  0.4444610000000 1.0
C      1  0.4345810000000  0.4429210000000  0.4646480000000 1.0
C      1  0.4845840000000  0.5286030000000  0.4423450000000 1.0
C      1  0.5833350000000  0.4456940000000  0.4788240000000 1.0
C      1  0.5817170000000  0.5324730000000  0.4490410000000 1.0
C      1  0.5195760000000  0.5738020000000  0.5697690000000 1.0
C      1  0.5536640000000  0.4983850000000  0.5403130000000 1.0
C      1  0.5830490000000  0.4935950000000  0.5336060000000 1.0
C      1  0.5825330000000  0.4711590000000  0.5512660000000 1.0
C      1  0.5080490000000  0.5302260000000  0.5053860000000 1.0
C      1  0.5871620000000  0.5423740000000  0.5305800000000 1.0
C      1  0.5331630000000  0.5164660000000  0.5025930000000 1.0
C      1  0.4960320000000  0.5280810000000  0.5318730000000 1.0
C      1  0.5433940000000  0.4137080000000  0.4337020000000 1.0
C      1  0.3969660000000  0.4455740000000  0.4952710000000 1.0
C      1  0.5406940000000  0.4722530000000  0.5404200000000 1.0
C      1  0.4691600000000  0.4507400000000  0.4319110000000 1.0
C      1  0.5415330000000  0.5101500000000  0.4260000000000 1.0
C      1  0.4985010000000  0.4993100000000  0.5290800000000 1.0
C      1  0.4036560000000  0.4850440000000  0.4702100000000 1.0
C      1  0.5082820000000  0.4855540000000  0.3990070000000 1.0
C      1  0.4539620000000  0.4735720000000  0.5040940000000 1.0
C      1  0.4448680000000  0.4940370000000  0.5265960000000 1.0
C      1  0.4632600000000  0.4849580000000  0.4719000000000 1.0
C      1  0.5185390000000  0.4686090000000  0.6027410000000 1.0
C      1  0.4740850000000  0.5738330000000  0.4303760000000 1.0
C      1  0.4876770000000  0.3965540000000  0.4700290000000 1.0
C      1  0.5066720000000  0.5287660000000  0.5713630000000 1.0
C      1  0.4645360000000  0.5526560000000  0.4970170000000 1.0
C      1  0.5522920000000  0.5643220000000  0.4257040000000 1.0
C      1  0.5419040000000  0.4293560000000  0.4784620000000 1.0
C      1  0.5152770000000  0.6001910000000  0.5619500000000 1.0
C      1  0.4201200000000  0.5593250000000  0.5068170000000 1.0
C      1  0.4532660000000  0.5328910000000  0.4774390000000 1.0
C      1  0.4484760000000  0.5346740000000  0.5644480000000 1.0
C      1  0.5665640000000  0.4870680000000  0.5859340000000 1.0
C      1  0.5328520000000  0.5477680000000  0.5405630000000 1.0
C      1  0.4113040000000  0.5033760000000  0.4494520000000 1.0
C      1  0.4273180000000  0.5530170000000  0.4457870000000 1.0
C      1  0.5831720000000  0.4873630000000  0.4477720000000 1.0
C      1  0.5666340000000  0.4274780000000  0.4944090000000 1.0
C      1  0.4531700000000  0.5192370000000  0.5370730000000 1.0
C      1  0.5302110000000  0.5074770000000  0.6084790000000 1.0
C      1  0.5929050000000  0.4952990000000  0.4733810000000 1.0
C      1  0.4919370000000  0.4329250000000  0.4373530000000 1.0
C      1  0.5037500000000  0.4566350000000  0.5109860000000 1.0
C      1  0.5025550000000  0.6075650000000  0.5119680000000 1.0
C      1  0.4862150000000  0.5713880000000  0.5007380000000 1.0
C      1  0.3931190000000  0.4900310000000  0.4990680000000 1.0
C      1  0.5733730000000  0.5141470000000  0.5740650000000 1.0
C      1  0.5516470000000  0.4726360000000  0.4757280000000 1.0
C      1  0.4560940000000  0.4610710000000  0.4562140000000 1.0
C      1  0.5485670000000  0.5265760000000  0.4793380000000 1.0
C      1  0.4737920000000  0.5254440000000  0.4035820000000 1.0
C      1  0.4473390000000  0.5736710000000  0.4432220000000 1.0
C      1  0.5697640000000  0.4601290000000  0.5736560000000 1.0
C      1  0.4180780000000  0.4573240000000  0.5373060000000 1.0
C      1  0.5886210000000  0.5186260000000  0.5488820000000 1.0
C      1  0.5562240000000  0.5363090000000  0.5809590000000 1.0
C      1  0.5889590000000  0.5447640000000  0.5008340000000 1.0
C      1  0.5159540000000  0.6054570000000  0.4853990000000 1.0
C      1  0.5443720000000  0.4835910000000  0.6059620000000 1.0
C      1  0.5506400000000  0.5596140000000  0.5624920000000 1.0
C      1  0.4404570000000  0.4745920000000  0.5470090000000 1.0
C      1  0.5055880000000  0.5330320000000  0.4598340000000 1.0
C      1  0.4236020000000  0.4093160000000  0.5288300000000 1.0
C      1  0.5267590000000  0.4847360000000  0.4212830000000 1.0
C      1  0.5662890000000  0.5793980000000  0.5173710000000 1.0
END
