TITL C-4164238-4211-290 23.4534637897533 125000 -18898.6700965243 0 0 126 (C1) n - 1
REM
REM in /home/nfs/bkarasulu/CARBON/AIRSS/Generating-Clusters/ReaxFF-fromJPCA2015/Units_Real/with-SteepDescent/Only-C1/SD-CG/Try1-3A/FIRE-CG
REM
REM
REM
REM
REM
REM ./C.cell (11c1c37f851c82e70ff6c80c92926a4b)
REM
REM compiler GCC version 9.2.1 20190827 (Red Hat 9.2.1-1)
REM options -cpp -mtune=generic -march=x86-64 -g -O0 -fpre-include=/usr/include/finclude/math-vector-fortran.h
REM seed -720045454 -695756221 -168024652 492852358 914676986 -1412168778 771141403 -1416328390 -1750142216 -260787719 -1193433336 -1753977566 1972373396 -972223659 568430682 1227973770 1461737878 1253046071 2102007328 -783974890 648497600 1584737475 2127753388 1058354230 -734322952 -2109011422 -1592804493 369985726 -1806887982 503263255 1651178147 -923954000 -29458461
REM
CELL 1.54180   50.00000   50.00000   50.00000   90.00000   90.00000   90.00000
LATT -1
SFAC C  
C      1  0.4984860000000  0.5585480000000  0.4236780000000 1.0
C      1  0.5896480000000  0.5179230000000  0.5023330000000 1.0
C      1  0.5044410000000  0.4818210000000  0.5577830000000 1.0
C      1  0.4377020000000  0.4530130000000  0.4587560000000 1.0
C      1  0.5532790000000  0.4341240000000  0.5022350000000 1.0
C      1  0.4544420000000  0.5194650000000  0.5736550000000 1.0
C      1  0.5738670000000  0.5203640000000  0.4563540000000 1.0
C      1  0.5554430000000  0.5786970000000  0.4894800000000 1.0
C      1  0.4851200000000  0.4450480000000  0.5034990000000 1.0
C      1  0.5019980000000  0.5909050000000  0.5230090000000 1.0
C      1  0.4311270000000  0.5207910000000  0.4825270000000 1.0
C      1  0.4948800000000  0.4254460000000  0.5554410000000 1.0
C      1  0.4617210000000  0.5882290000000  0.4958090000000 1.0
C      1  0.5883440000000  0.5041160000000  0.4757910000000 1.0
C      1  0.4341990000000  0.4387160000000  0.5099040000000 1.0
C      1  0.5204130000000  0.5409500000000  0.4952830000000 1.0
C      1  0.5426370000000  0.4626470000000  0.4419090000000 1.0
C      1  0.4544770000000  0.5863470000000  0.5243600000000 1.0
C      1  0.5258970000000  0.4798140000000  0.5202890000000 1.0
C      1  0.4726960000000  0.5522370000000  0.4112650000000 1.0
C      1  0.5353140000000  0.4644360000000  0.4968640000000 1.0
C      1  0.5789990000000  0.4790740000000  0.4617170000000 1.0
C      1  0.5311520000000  0.5651080000000  0.4777200000000 1.0
C      1  0.5729990000000  0.5623720000000  0.5280850000000 1.0
C      1  0.5499450000000  0.5130600000000  0.5118580000000 1.0
C      1  0.5404630000000  0.4155040000000  0.5189150000000 1.0
C      1  0.4334000000000  0.5468520000000  0.5492640000000 1.0
C      1  0.4169260000000  0.5209900000000  0.4560140000000 1.0
C      1  0.4134460000000  0.4724490000000  0.5421050000000 1.0
C      1  0.4179870000000  0.4727910000000  0.4672690000000 1.0
C      1  0.4958160000000  0.4097030000000  0.5309220000000 1.0
C      1  0.4235210000000  0.5583940000000  0.5013990000000 1.0
C      1  0.5622670000000  0.4821310000000  0.5354800000000 1.0
C      1  0.4579890000000  0.4563370000000  0.5730010000000 1.0
C      1  0.5742120000000  0.5108240000000  0.5290060000000 1.0
C      1  0.5603940000000  0.5561160000000  0.5534690000000 1.0
C      1  0.4547240000000  0.4663050000000  0.4370720000000 1.0
C      1  0.5473530000000  0.4946310000000  0.4897020000000 1.0
C      1  0.5005320000000  0.4651650000000  0.4300760000000 1.0
C      1  0.4580930000000  0.5686850000000  0.4298100000000 1.0
C      1  0.5160370000000  0.4055140000000  0.5114540000000 1.0
C      1  0.4764200000000  0.4726160000000  0.4168500000000 1.0
C      1  0.5730030000000  0.5298620000000  0.5556890000000 1.0
C      1  0.5590560000000  0.4311660000000  0.4746540000000 1.0
C      1  0.5211640000000  0.4202550000000  0.4380180000000 1.0
C      1  0.5521950000000  0.5623490000000  0.4504390000000 1.0
C      1  0.4559750000000  0.4764900000000  0.5333530000000 1.0
C      1  0.4036380000000  0.5050370000000  0.5096950000000 1.0
C      1  0.4395600000000  0.5670030000000  0.4511650000000 1.0
C      1  0.5427490000000  0.4441830000000  0.5601000000000 1.0
C      1  0.4324310000000  0.5668950000000  0.5275530000000 1.0
C      1  0.4726080000000  0.4166380000000  0.5122900000000 1.0
C      1  0.5303570000000  0.4863760000000  0.4545510000000 1.0
C      1  0.4439110000000  0.5239830000000  0.4245290000000 1.0
C      1  0.4100540000000  0.5322100000000  0.4989020000000 1.0
C      1  0.4915800000000  0.5911750000000  0.4951970000000 1.0
C      1  0.4790480000000  0.4612100000000  0.5258450000000 1.0
C      1  0.4948740000000  0.4108780000000  0.4407870000000 1.0
C      1  0.4340620000000  0.5168930000000  0.5468430000000 1.0
C      1  0.5054100000000  0.4973810000000  0.5091490000000 1.0
C      1  0.5475030000000  0.5073330000000  0.4644860000000 1.0
C      1  0.4764490000000  0.4750740000000  0.5858460000000 1.0
C      1  0.4658660000000  0.4340640000000  0.5552380000000 1.0
C      1  0.4839950000000  0.5113570000000  0.5254170000000 1.0
C      1  0.5322810000000  0.5651300000000  0.5569290000000 1.0
C      1  0.4733130000000  0.5488450000000  0.4959210000000 1.0
C      1  0.5385630000000  0.5497540000000  0.4311770000000 1.0
C      1  0.5183600000000  0.5260210000000  0.5483920000000 1.0
C      1  0.4424680000000  0.5702310000000  0.4812390000000 1.0
C      1  0.4880510000000  0.4995900000000  0.4101950000000 1.0
C      1  0.5306580000000  0.5327530000000  0.5211140000000 1.0
C      1  0.5155060000000  0.4412340000000  0.5689920000000 1.0
C      1  0.5874630000000  0.4535530000000  0.5051950000000 1.0
C      1  0.4770270000000  0.5047690000000  0.5847140000000 1.0
C      1  0.5073380000000  0.4560530000000  0.4895550000000 1.0
C      1  0.4559480000000  0.4918750000000  0.4513970000000 1.0
C      1  0.5637600000000  0.4807240000000  0.4333580000000 1.0
C      1  0.5042350000000  0.5187250000000  0.5868920000000 1.0
C      1  0.5060440000000  0.5814060000000  0.4721970000000 1.0
C      1  0.5799920000000  0.5632270000000  0.4827510000000 1.0
C      1  0.5229710000000  0.4476930000000  0.4261080000000 1.0
C      1  0.5053860000000  0.4675050000000  0.5845900000000 1.0
C      1  0.5022490000000  0.4886270000000  0.4542040000000 1.0
C      1  0.4880850000000  0.5142840000000  0.4642030000000 1.0
C      1  0.4674690000000  0.5215160000000  0.4100570000000 1.0
C      1  0.4571260000000  0.5468900000000  0.5662060000000 1.0
C      1  0.4508060000000  0.4275700000000  0.5308780000000 1.0
C      1  0.5436360000000  0.4966020000000  0.4179240000000 1.0
C      1  0.5058710000000  0.4667740000000  0.5349790000000 1.0
C      1  0.4875840000000  0.4060880000000  0.4674850000000 1.0
C      1  0.5348510000000  0.4183690000000  0.4652270000000 1.0
C      1  0.5282780000000  0.5823420000000  0.5338710000000 1.0
C      1  0.4254090000000  0.4942360000000  0.4478890000000 1.0
C      1  0.4143210000000  0.4595730000000  0.5152890000000 1.0
C      1  0.4636360000000  0.4142890000000  0.4827730000000 1.0
C      1  0.5143380000000  0.4076800000000  0.4821740000000 1.0
C      1  0.4490170000000  0.5015700000000  0.4949830000000 1.0
C      1  0.4904330000000  0.4738810000000  0.4756820000000 1.0
C      1  0.4923540000000  0.5644560000000  0.4527050000000 1.0
C      1  0.5068290000000  0.5167890000000  0.4871100000000 1.0
C      1  0.5558190000000  0.4716190000000  0.5606180000000 1.0
C      1  0.5776200000000  0.5494570000000  0.4572090000000 1.0
C      1  0.4086110000000  0.4792450000000  0.4947950000000 1.0
C      1  0.5173530000000  0.5084390000000  0.4121220000000 1.0
C      1  0.4791750000000  0.5843940000000  0.5397080000000 1.0
C      1  0.5199590000000  0.5387270000000  0.4152630000000 1.0
C      1  0.4100650000000  0.5008980000000  0.5379550000000 1.0
C      1  0.5534680000000  0.5817980000000  0.5181060000000 1.0
C      1  0.5773070000000  0.4543540000000  0.4768110000000 1.0
C      1  0.4967060000000  0.5068590000000  0.5499080000000 1.0
C      1  0.4542250000000  0.5023590000000  0.5233550000000 1.0
C      1  0.4390370000000  0.4712940000000  0.5562930000000 1.0
C      1  0.5807460000000  0.4703910000000  0.5271060000000 1.0
C      1  0.5678630000000  0.5154390000000  0.5807230000000 1.0
C      1  0.5216740000000  0.4957440000000  0.5908560000000 1.0
C      1  0.5868210000000  0.5462220000000  0.5060110000000 1.0
C      1  0.5556350000000  0.4263060000000  0.5407240000000 1.0
C      1  0.4633260000000  0.4837890000000  0.4784360000000 1.0
C      1  0.4432960000000  0.4340100000000  0.4809220000000 1.0
C      1  0.5492410000000  0.4915980000000  0.5815740000000 1.0
C      1  0.4803250000000  0.5418390000000  0.5218870000000 1.0
C      1  0.4791990000000  0.5419150000000  0.4680450000000 1.0
C      1  0.4265560000000  0.5421990000000  0.4379790000000 1.0
C      1  0.5101580000000  0.5471150000000  0.5666220000000 1.0
C      1  0.4820170000000  0.5563240000000  0.5501050000000 1.0
C      1  0.5778440000000  0.4309720000000  0.5213560000000 1.0
END
