TITL C-4164238-4211-285 -7.27400275160783 125000 -17439.7289150232 0 0 118 (C1) n - 1
REM
REM in /home/nfs/bkarasulu/CARBON/AIRSS/Generating-Clusters/ReaxFF-fromJPCA2015/Units_Real/with-SteepDescent/Only-C1/SD-CG/Try1-3A/FIRE-CG
REM
REM
REM
REM
REM
REM ./C.cell (11c1c37f851c82e70ff6c80c92926a4b)
REM
REM compiler GCC version 9.2.1 20190827 (Red Hat 9.2.1-1)
REM options -cpp -mtune=generic -march=x86-64 -g -O0 -fpre-include=/usr/include/finclude/math-vector-fortran.h
REM seed 566011125 699146161 625409107 -38196686 -86617442 963956502 1169420357 -1460797100 218507749 -1623258841 1287396645 473632478 -1285037211 76594345 909922069 1019142843 -1981198459 394812854 -633664818 2088203381 1819458927 453894699 2036065054 -1284260579 1095869665 875324460 1054028493 1333487551 -2304903 -601280992 307582681 1583658391 15117013
REM
CELL 1.54180   50.00000   50.00000   50.00000   90.00000   90.00000   90.00000
LATT -1
SFAC C  
C      1  0.4449550000000  0.5694440000000  0.5491380000000 1.0
C      1  0.5859150000000  0.5408770000000  0.5116610000000 1.0
C      1  0.5256410000000  0.5135160000000  0.4732790000000 1.0
C      1  0.4629770000000  0.5270440000000  0.4185380000000 1.0
C      1  0.5170840000000  0.4229560000000  0.5393090000000 1.0
C      1  0.5389730000000  0.5178850000000  0.4250150000000 1.0
C      1  0.4654610000000  0.5280620000000  0.5553280000000 1.0
C      1  0.4536300000000  0.4297530000000  0.5449380000000 1.0
C      1  0.4757590000000  0.4835270000000  0.4304060000000 1.0
C      1  0.5607820000000  0.4210340000000  0.4914500000000 1.0
C      1  0.5853200000000  0.4949410000000  0.5404050000000 1.0
C      1  0.5089910000000  0.5151630000000  0.5197900000000 1.0
C      1  0.5677140000000  0.5756780000000  0.5397440000000 1.0
C      1  0.5319180000000  0.5007380000000  0.5295930000000 1.0
C      1  0.4839490000000  0.5722750000000  0.5619270000000 1.0
C      1  0.4896680000000  0.5340190000000  0.5934690000000 1.0
C      1  0.4233070000000  0.5627500000000  0.5317710000000 1.0
C      1  0.5174820000000  0.4579130000000  0.5166270000000 1.0
C      1  0.5316680000000  0.4723660000000  0.4973880000000 1.0
C      1  0.4786120000000  0.4554490000000  0.5864330000000 1.0
C      1  0.4725980000000  0.4328710000000  0.5671320000000 1.0
C      1  0.5016860000000  0.4289130000000  0.5629530000000 1.0
C      1  0.5093750000000  0.5719450000000  0.4685550000000 1.0
C      1  0.5272890000000  0.4263920000000  0.4539880000000 1.0
C      1  0.4911820000000  0.5401420000000  0.4205620000000 1.0
C      1  0.4708810000000  0.5490090000000  0.5745980000000 1.0
C      1  0.4403840000000  0.5285320000000  0.4906730000000 1.0
C      1  0.5140160000000  0.4884080000000  0.4819890000000 1.0
C      1  0.5111310000000  0.5768030000000  0.5216720000000 1.0
C      1  0.4917630000000  0.4676610000000  0.5270340000000 1.0
C      1  0.5548620000000  0.5614330000000  0.4620080000000 1.0
C      1  0.5365000000000  0.4440660000000  0.5335500000000 1.0
C      1  0.4206430000000  0.4869780000000  0.5075520000000 1.0
C      1  0.5282830000000  0.5606430000000  0.4492000000000 1.0
C      1  0.4124740000000  0.5352020000000  0.5268270000000 1.0
C      1  0.5653300000000  0.4557530000000  0.4556180000000 1.0
C      1  0.5176710000000  0.4065810000000  0.5153000000000 1.0
C      1  0.4842750000000  0.5826990000000  0.5142280000000 1.0
C      1  0.5348640000000  0.5351880000000  0.4907100000000 1.0
C      1  0.5849590000000  0.5305110000000  0.4824840000000 1.0
C      1  0.5729410000000  0.5686730000000  0.5113500000000 1.0
C      1  0.5284990000000  0.5496620000000  0.5604400000000 1.0
C      1  0.4317250000000  0.4942830000000  0.5537890000000 1.0
C      1  0.4539770000000  0.4578390000000  0.4268510000000 1.0
C      1  0.5538880000000  0.5729060000000  0.4889820000000 1.0
C      1  0.5646920000000  0.4852890000000  0.5595460000000 1.0
C      1  0.4721210000000  0.4028220000000  0.5009080000000 1.0
C      1  0.5709840000000  0.5309010000000  0.5628400000000 1.0
C      1  0.5279470000000  0.5286950000000  0.5351350000000 1.0
C      1  0.5750940000000  0.5404630000000  0.4566980000000 1.0
C      1  0.4528210000000  0.4992680000000  0.4189600000000 1.0
C      1  0.4845280000000  0.4918660000000  0.4855350000000 1.0
C      1  0.4400460000000  0.4674900000000  0.5164070000000 1.0
C      1  0.4210570000000  0.4684060000000  0.5626750000000 1.0
C      1  0.4636980000000  0.4974700000000  0.5599430000000 1.0
C      1  0.4791640000000  0.5528300000000  0.4457300000000 1.0
C      1  0.5178400000000  0.5319220000000  0.5856130000000 1.0
C      1  0.4886210000000  0.5200680000000  0.4932250000000 1.0
C      1  0.5147790000000  0.4798570000000  0.5680510000000 1.0
C      1  0.5583390000000  0.5570500000000  0.5609590000000 1.0
C      1  0.4809900000000  0.4168540000000  0.4455770000000 1.0
C      1  0.4210890000000  0.5683750000000  0.5015090000000 1.0
C      1  0.4643700000000  0.5824320000000  0.4786510000000 1.0
C      1  0.4193780000000  0.5068210000000  0.5299580000000 1.0
C      1  0.5877590000000  0.4721850000000  0.4887800000000 1.0
C      1  0.5514720000000  0.4767380000000  0.4414180000000 1.0
C      1  0.4841880000000  0.5799730000000  0.4571740000000 1.0
C      1  0.5831360000000  0.4913010000000  0.5111990000000 1.0
C      1  0.4516560000000  0.5504540000000  0.4312820000000 1.0
C      1  0.5525830000000  0.4329740000000  0.4667340000000 1.0
C      1  0.4705640000000  0.5021670000000  0.4596900000000 1.0
C      1  0.4879790000000  0.5060070000000  0.5954950000000 1.0
C      1  0.5251050000000  0.5652640000000  0.4954440000000 1.0
C      1  0.4553670000000  0.4137190000000  0.5206750000000 1.0
C      1  0.5107470000000  0.5712520000000  0.5494800000000 1.0
C      1  0.4348560000000  0.4518730000000  0.5402980000000 1.0
C      1  0.5853220000000  0.5234860000000  0.5391490000000 1.0
C      1  0.5345780000000  0.5017890000000  0.4492290000000 1.0
C      1  0.5454140000000  0.4064580000000  0.5086760000000 1.0
C      1  0.5697820000000  0.5202330000000  0.4363070000000 1.0
C      1  0.4325070000000  0.4396600000000  0.4631630000000 1.0
C      1  0.4709320000000  0.4846650000000  0.5881850000000 1.0
C      1  0.4705660000000  0.4476520000000  0.4859550000000 1.0
C      1  0.4690720000000  0.4704150000000  0.5064610000000 1.0
C      1  0.5874710000000  0.4734530000000  0.4593500000000 1.0
C      1  0.4896710000000  0.4836360000000  0.5499430000000 1.0
C      1  0.4342050000000  0.4781660000000  0.4300160000000 1.0
C      1  0.4792290000000  0.5651220000000  0.4937910000000 1.0
C      1  0.5565190000000  0.5075200000000  0.5760910000000 1.0
C      1  0.4382780000000  0.5113690000000  0.4673820000000 1.0
C      1  0.4546740000000  0.4228290000000  0.4932240000000 1.0
C      1  0.4845950000000  0.4530920000000  0.4634040000000 1.0
C      1  0.4241840000000  0.4688490000000  0.4573650000000 1.0
C      1  0.4688180000000  0.5723090000000  0.5380890000000 1.0
C      1  0.4361050000000  0.5741140000000  0.4773740000000 1.0
C      1  0.5031290000000  0.4133700000000  0.4650300000000 1.0
C      1  0.4145610000000  0.5398120000000  0.4978200000000 1.0
C      1  0.5617040000000  0.4737240000000  0.5011000000000 1.0
C      1  0.5363970000000  0.4644670000000  0.4177730000000 1.0
C      1  0.5610240000000  0.5266970000000  0.4970210000000 1.0
C      1  0.4210850000000  0.4888190000000  0.4781150000000 1.0
C      1  0.5285010000000  0.5054660000000  0.5838470000000 1.0
C      1  0.4854240000000  0.5262930000000  0.4641140000000 1.0
C      1  0.4188070000000  0.5318560000000  0.4495580000000 1.0
C      1  0.4690890000000  0.5423400000000  0.5316390000000 1.0
C      1  0.4539490000000  0.4325070000000  0.4425420000000 1.0
C      1  0.4931780000000  0.4429020000000  0.4379100000000 1.0
C      1  0.5785950000000  0.4937050000000  0.4399540000000 1.0
C      1  0.5013820000000  0.4863010000000  0.4175980000000 1.0
C      1  0.5066510000000  0.4526230000000  0.5804060000000 1.0
C      1  0.4669440000000  0.5386210000000  0.5028120000000 1.0
C      1  0.5578080000000  0.4297260000000  0.5185310000000 1.0
C      1  0.4302140000000  0.5580540000000  0.4517330000000 1.0
C      1  0.5389190000000  0.4762060000000  0.5482640000000 1.0
C      1  0.5265080000000  0.4907960000000  0.4096770000000 1.0
C      1  0.4992290000000  0.4058090000000  0.4929240000000 1.0
C      1  0.5220390000000  0.4424390000000  0.4302860000000 1.0
C      1  0.5189720000000  0.5413840000000  0.4283450000000 1.0
END
