TITL C-4164247-2821-457 -0.235492126119955 125000 -12229.9054326198 0 0 84 (C1) n - 1
REM
REM in /home/nfs/bkarasulu/CARBON/AIRSS/Generating-Clusters/ReaxFF-fromJPCA2015/Units_Real/with-SteepDescent/Only-C1/SD-CG/Try1-3A/FIRE-CG
REM
REM
REM
REM
REM
REM ./C.cell (11c1c37f851c82e70ff6c80c92926a4b)
REM
REM compiler GCC version 9.2.1 20190827 (Red Hat 9.2.1-1)
REM options -cpp -mtune=generic -march=x86-64 -g -O0 -fpre-include=/usr/include/finclude/math-vector-fortran.h
REM seed 1447918410 -483762157 -919076410 1116392369 469768186 615134837 -772347280 1422932398 512453686 -1794748423 69667969 1526794193 -616936105 1836450147 -377541040 705172401 -1486491201 259583138 -578479559 -616641780 -801675549 591689848 -1037006447 -253214196 -171731457 496337780 -2050039059 2063359040 -2057814516 925336597 -1012201348 789126468 1987287658
REM
CELL 1.54180   50.00000   50.00000   50.00000   90.00000   90.00000   90.00000
LATT -1
SFAC C  
C      1  0.4288520000000  0.4664310000000  0.5123940000000 1.0
C      1  0.5125660000000  0.4227650000000  0.4970470000000 1.0
C      1  0.4710550000000  0.5286520000000  0.5715130000000 1.0
C      1  0.4687400000000  0.4783150000000  0.4754400000000 1.0
C      1  0.4973890000000  0.4794780000000  0.5054990000000 1.0
C      1  0.4267440000000  0.4666380000000  0.4846230000000 1.0
C      1  0.5514880000000  0.4763950000000  0.4893390000000 1.0
C      1  0.4852670000000  0.5764520000000  0.4668620000000 1.0
C      1  0.5636980000000  0.5307640000000  0.5074330000000 1.0
C      1  0.5456440000000  0.4506300000000  0.4746600000000 1.0
C      1  0.5176840000000  0.5485420000000  0.4617580000000 1.0
C      1  0.5552930000000  0.4586240000000  0.4478590000000 1.0
C      1  0.4686250000000  0.5949890000000  0.4747280000000 1.0
C      1  0.5148540000000  0.5203130000000  0.5871000000000 1.0
C      1  0.4876280000000  0.4512200000000  0.5630630000000 1.0
C      1  0.4423850000000  0.4671100000000  0.4667690000000 1.0
C      1  0.4470490000000  0.5403530000000  0.5052830000000 1.0
C      1  0.4762040000000  0.4966250000000  0.4962870000000 1.0
C      1  0.5134090000000  0.5323150000000  0.5259680000000 1.0
C      1  0.4960900000000  0.4256970000000  0.5202010000000 1.0
C      1  0.4298910000000  0.5191310000000  0.4943010000000 1.0
C      1  0.4864230000000  0.5406330000000  0.5184150000000 1.0
C      1  0.5351320000000  0.4439940000000  0.5483060000000 1.0
C      1  0.4645370000000  0.4245960000000  0.4570220000000 1.0
C      1  0.5575290000000  0.4969650000000  0.5500860000000 1.0
C      1  0.5822490000000  0.4729260000000  0.4494010000000 1.0
C      1  0.5155710000000  0.4862730000000  0.5534560000000 1.0
C      1  0.5352500000000  0.5587920000000  0.5377640000000 1.0
C      1  0.5368750000000  0.5487180000000  0.5659200000000 1.0
C      1  0.5305760000000  0.5750670000000  0.5005810000000 1.0
C      1  0.4358070000000  0.5052800000000  0.5408560000000 1.0
C      1  0.4855220000000  0.5538230000000  0.5736640000000 1.0
C      1  0.5705250000000  0.4532830000000  0.5285920000000 1.0
C      1  0.5388680000000  0.5198120000000  0.5663870000000 1.0
C      1  0.4928370000000  0.4280550000000  0.4469130000000 1.0
C      1  0.4950210000000  0.4709030000000  0.4102450000000 1.0
C      1  0.4437410000000  0.4441800000000  0.4571280000000 1.0
C      1  0.4474550000000  0.5497710000000  0.5321820000000 1.0
C      1  0.5584660000000  0.5174100000000  0.4564780000000 1.0
C      1  0.5595580000000  0.5310550000000  0.4810400000000 1.0
C      1  0.4493480000000  0.5135890000000  0.4284170000000 1.0
C      1  0.4624100000000  0.4229310000000  0.4854640000000 1.0
C      1  0.5030400000000  0.5428320000000  0.4358180000000 1.0
C      1  0.5416470000000  0.4723990000000  0.5541870000000 1.0
C      1  0.5707050000000  0.4782060000000  0.5141310000000 1.0
C      1  0.4638480000000  0.4886550000000  0.4329230000000 1.0
C      1  0.4389670000000  0.5240520000000  0.4679850000000 1.0
C      1  0.5688360000000  0.5046790000000  0.5257530000000 1.0
C      1  0.4616870000000  0.4966860000000  0.5385110000000 1.0
C      1  0.4254080000000  0.4955650000000  0.5145400000000 1.0
C      1  0.5130490000000  0.5488030000000  0.5827180000000 1.0
C      1  0.5155220000000  0.5736450000000  0.4763120000000 1.0
C      1  0.5710940000000  0.4931880000000  0.4682200000000 1.0
C      1  0.5608150000000  0.4281410000000  0.5398160000000 1.0
C      1  0.5055180000000  0.5284810000000  0.4797130000000 1.0
C      1  0.4780840000000  0.5267610000000  0.4940360000000 1.0
C      1  0.4783930000000  0.5529160000000  0.4464860000000 1.0
C      1  0.5005160000000  0.4476870000000  0.4264280000000 1.0
C      1  0.4470690000000  0.4459560000000  0.5255290000000 1.0
C      1  0.4741740000000  0.5662170000000  0.5273570000000 1.0
C      1  0.4972550000000  0.4992250000000  0.4068640000000 1.0
C      1  0.5067240000000  0.4366360000000  0.5450640000000 1.0
C      1  0.5140270000000  0.4247400000000  0.4671650000000 1.0
C      1  0.4530050000000  0.5366120000000  0.4467890000000 1.0
C      1  0.5136770000000  0.5178760000000  0.4244240000000 1.0
C      1  0.4853960000000  0.4834430000000  0.4521780000000 1.0
C      1  0.5353570000000  0.4781060000000  0.4382990000000 1.0
C      1  0.5221130000000  0.5822630000000  0.5277430000000 1.0
C      1  0.5372860000000  0.5070620000000  0.4368630000000 1.0
C      1  0.4654730000000  0.4554420000000  0.5449330000000 1.0
C      1  0.5194300000000  0.4471780000000  0.4823560000000 1.0
C      1  0.5246720000000  0.4887740000000  0.4997220000000 1.0
C      1  0.4945280000000  0.4791410000000  0.5718440000000 1.0
C      1  0.5507980000000  0.5565080000000  0.5126270000000 1.0
C      1  0.4464970000000  0.5308860000000  0.5543590000000 1.0
C      1  0.5097880000000  0.4670050000000  0.4487090000000 1.0
C      1  0.4678100000000  0.5022740000000  0.4074040000000 1.0
C      1  0.4659380000000  0.4266290000000  0.5128770000000 1.0
C      1  0.4888030000000  0.5070500000000  0.5808700000000 1.0
C      1  0.4955430000000  0.5866850000000  0.5369720000000 1.0
C      1  0.4813750000000  0.4775370000000  0.5325090000000 1.0
C      1  0.4806690000000  0.5736450000000  0.5547640000000 1.0
C      1  0.5190050000000  0.5135370000000  0.5476100000000 1.0
C      1  0.5222020000000  0.5173820000000  0.5001500000000 1.0
END
