TITL C-4164244-2836-444 9.66360950434954 125000 -16954.3306348239 0 0 113 (C1) n - 1
REM
REM in /home/nfs/bkarasulu/CARBON/AIRSS/Generating-Clusters/ReaxFF-fromJPCA2015/Units_Real/with-SteepDescent/Only-C1/SD-CG/Try1-3A/FIRE-CG
REM
REM
REM
REM
REM
REM ./C.cell (11c1c37f851c82e70ff6c80c92926a4b)
REM
REM compiler GCC version 9.2.1 20190827 (Red Hat 9.2.1-1)
REM options -cpp -mtune=generic -march=x86-64 -g -O0 -fpre-include=/usr/include/finclude/math-vector-fortran.h
REM seed -29276881 -925041355 -1034773926 -1473426060 -893771088 1894863401 -1872769282 -1062675553 1398858359 -2096199863 -1279924348 1002622866 -234776697 1942742388 -484574946 -798877566 -935263268 1969587586 1522695389 872594911 1945851301 -544095392 -2049235481 -1279029868 -1998301325 524608505 57644347 -1792261268 352642082 -1000765120 1177894546 -620087207 428822262
REM
CELL 1.54180   50.00000   50.00000   50.00000   90.00000   90.00000   90.00000
LATT -1
SFAC C  
C      1  0.5702250000000  0.5261740000000  0.5066060000000 1.0
C      1  0.5647330000000  0.5495170000000  0.4702500000000 1.0
C      1  0.5141470000000  0.5592980000000  0.5620710000000 1.0
C      1  0.4624780000000  0.4397830000000  0.4879170000000 1.0
C      1  0.5688370000000  0.4939920000000  0.4547210000000 1.0
C      1  0.5467370000000  0.4752510000000  0.4919890000000 1.0
C      1  0.4575970000000  0.5276740000000  0.5370930000000 1.0
C      1  0.4386820000000  0.5496300000000  0.5412730000000 1.0
C      1  0.5413260000000  0.4917750000000  0.4118350000000 1.0
C      1  0.4399370000000  0.4645500000000  0.5306690000000 1.0
C      1  0.5207210000000  0.5124620000000  0.4970630000000 1.0
C      1  0.4208280000000  0.4462520000000  0.5005360000000 1.0
C      1  0.5222560000000  0.4998510000000  0.5980070000000 1.0
C      1  0.4719870000000  0.4703150000000  0.4767760000000 1.0
C      1  0.5652170000000  0.5693930000000  0.4937540000000 1.0
C      1  0.5591660000000  0.5354900000000  0.5489760000000 1.0
C      1  0.5292880000000  0.4277550000000  0.5504040000000 1.0
C      1  0.4646190000000  0.4384260000000  0.4399320000000 1.0
C      1  0.5041470000000  0.5446480000000  0.5382190000000 1.0
C      1  0.4929910000000  0.4312100000000  0.4425820000000 1.0
C      1  0.4310610000000  0.5186730000000  0.5811420000000 1.0
C      1  0.5470860000000  0.4259160000000  0.4610660000000 1.0
C      1  0.5375580000000  0.4556250000000  0.4264930000000 1.0
C      1  0.4027360000000  0.4879970000000  0.4796580000000 1.0
C      1  0.5080660000000  0.4512140000000  0.4265590000000 1.0
C      1  0.4681160000000  0.4232520000000  0.5350160000000 1.0
C      1  0.5244170000000  0.5910600000000  0.5242270000000 1.0
C      1  0.5895040000000  0.4864810000000  0.5409240000000 1.0
C      1  0.4319070000000  0.4992440000000  0.5616060000000 1.0
C      1  0.4964280000000  0.5623670000000  0.4886280000000 1.0
C      1  0.5173730000000  0.4873350000000  0.4518780000000 1.0
C      1  0.5008780000000  0.5212960000000  0.4782440000000 1.0
C      1  0.4472730000000  0.5563480000000  0.4544580000000 1.0
C      1  0.5226700000000  0.5017230000000  0.5251420000000 1.0
C      1  0.4375870000000  0.4873330000000  0.5133010000000 1.0
C      1  0.4959250000000  0.5008530000000  0.4115610000000 1.0
C      1  0.5303440000000  0.5267860000000  0.4302130000000 1.0
C      1  0.4831220000000  0.4177350000000  0.4894830000000 1.0
C      1  0.5538240000000  0.4606120000000  0.5600870000000 1.0
C      1  0.4115630000000  0.4684260000000  0.4594230000000 1.0
C      1  0.4736180000000  0.4716600000000  0.5564090000000 1.0
C      1  0.5601550000000  0.5132610000000  0.5702320000000 1.0
C      1  0.5444720000000  0.4812660000000  0.5196470000000 1.0
C      1  0.4125420000000  0.4739130000000  0.5029200000000 1.0
C      1  0.4198730000000  0.5118870000000  0.4485130000000 1.0
C      1  0.4471710000000  0.5822240000000  0.4977280000000 1.0
C      1  0.5545180000000  0.4578870000000  0.5307530000000 1.0
C      1  0.4377890000000  0.5596910000000  0.4822730000000 1.0
C      1  0.4399510000000  0.5314080000000  0.4418670000000 1.0
C      1  0.5063670000000  0.4537490000000  0.5169190000000 1.0
C      1  0.4904740000000  0.5625100000000  0.5169520000000 1.0
C      1  0.4645660000000  0.5141810000000  0.4472840000000 1.0
C      1  0.4924810000000  0.5193650000000  0.5781220000000 1.0
C      1  0.5228900000000  0.5113420000000  0.4054730000000 1.0
C      1  0.5394550000000  0.5823290000000  0.5005910000000 1.0
C      1  0.5011460000000  0.4411890000000  0.5771920000000 1.0
C      1  0.5256760000000  0.5597120000000  0.4861000000000 1.0
C      1  0.5407300000000  0.5324270000000  0.5030330000000 1.0
C      1  0.4474400000000  0.4331060000000  0.4629710000000 1.0
C      1  0.4899050000000  0.4719530000000  0.4175550000000 1.0
C      1  0.4203690000000  0.5365760000000  0.5219700000000 1.0
C      1  0.5233380000000  0.5543010000000  0.4353160000000 1.0
C      1  0.4564730000000  0.4826420000000  0.4480180000000 1.0
C      1  0.5746450000000  0.5188920000000  0.4678400000000 1.0
C      1  0.5405980000000  0.5601870000000  0.4588240000000 1.0
C      1  0.4843170000000  0.5229470000000  0.4259380000000 1.0
C      1  0.4628080000000  0.4650650000000  0.4270900000000 1.0
C      1  0.5395490000000  0.5202020000000  0.5896620000000 1.0
C      1  0.4695640000000  0.5979880000000  0.5102780000000 1.0
C      1  0.4099660000000  0.5162740000000  0.4753980000000 1.0
C      1  0.5009750000000  0.4166750000000  0.4669140000000 1.0
C      1  0.4940360000000  0.5500590000000  0.4321360000000 1.0
C      1  0.5599330000000  0.5680570000000  0.5472860000000 1.0
C      1  0.4626340000000  0.4924880000000  0.4930570000000 1.0
C      1  0.4946620000000  0.5903350000000  0.5235920000000 1.0
C      1  0.5584020000000  0.4440530000000  0.4445190000000 1.0
C      1  0.4288720000000  0.4837600000000  0.4419890000000 1.0
C      1  0.4454150000000  0.4733140000000  0.5572300000000 1.0
C      1  0.5332890000000  0.4426960000000  0.5729300000000 1.0
C      1  0.5019330000000  0.4714940000000  0.4708270000000 1.0
C      1  0.4837370000000  0.5199810000000  0.5478290000000 1.0
C      1  0.5298800000000  0.4104710000000  0.4753570000000 1.0
C      1  0.4215340000000  0.4435540000000  0.4711760000000 1.0
C      1  0.5702300000000  0.4581850000000  0.4895770000000 1.0
C      1  0.5163590000000  0.5142810000000  0.4533610000000 1.0
C      1  0.5896500000000  0.5123430000000  0.4926290000000 1.0
C      1  0.5802620000000  0.5380210000000  0.5288350000000 1.0
C      1  0.4962120000000  0.4969130000000  0.5352150000000 1.0
C      1  0.4459170000000  0.4404430000000  0.5168960000000 1.0
C      1  0.5181510000000  0.4632400000000  0.4921900000000 1.0
C      1  0.4204220000000  0.5384300000000  0.4929680000000 1.0
C      1  0.5684280000000  0.4864340000000  0.5635970000000 1.0
C      1  0.5406930000000  0.4188150000000  0.5016580000000 1.0
C      1  0.5174940000000  0.4243040000000  0.5231720000000 1.0
C      1  0.5328850000000  0.5307000000000  0.5319130000000 1.0
C      1  0.4726460000000  0.5148150000000  0.4784130000000 1.0
C      1  0.5425580000000  0.4824110000000  0.4358190000000 1.0
C      1  0.4741450000000  0.5658690000000  0.4465550000000 1.0
C      1  0.5732630000000  0.4659020000000  0.4613890000000 1.0
C      1  0.4865470000000  0.4659690000000  0.5805650000000 1.0
C      1  0.5147340000000  0.5376360000000  0.5818340000000 1.0
C      1  0.4833010000000  0.4316760000000  0.5570110000000 1.0
C      1  0.5330670000000  0.5786570000000  0.5498920000000 1.0
C      1  0.5608980000000  0.4378980000000  0.5088260000000 1.0
C      1  0.5747520000000  0.5659200000000  0.5222290000000 1.0
C      1  0.4843390000000  0.5805230000000  0.4695280000000 1.0
C      1  0.4889310000000  0.4707850000000  0.5322540000000 1.0
C      1  0.5940080000000  0.4956120000000  0.5148270000000 1.0
C      1  0.4963320000000  0.4929000000000  0.5911870000000 1.0
C      1  0.4344740000000  0.5106280000000  0.5315350000000 1.0
C      1  0.4657370000000  0.5967900000000  0.4829480000000 1.0
C      1  0.4338220000000  0.5405240000000  0.5679330000000 1.0
C      1  0.4882390000000  0.4125810000000  0.5177550000000 1.0
END
