TITL C-4164238-4211-716 6.16522899357707 125000 -25505.7656089194 0 0 169 (C1) n - 1
REM
REM in /home/nfs/bkarasulu/CARBON/AIRSS/Generating-Clusters/ReaxFF-fromJPCA2015/Units_Real/with-SteepDescent/Only-C1/SD-CG/Try1-3A/FIRE-CG
REM
REM
REM
REM
REM
REM ./C.cell (11c1c37f851c82e70ff6c80c92926a4b)
REM
REM compiler GCC version 9.2.1 20190827 (Red Hat 9.2.1-1)
REM options -cpp -mtune=generic -march=x86-64 -g -O0 -fpre-include=/usr/include/finclude/math-vector-fortran.h
REM seed 1910617768 -80459428 -1638445145 -935442557 -233165462 -721498114 -2033404005 271729904 -853952486 -1034797144 -878472669 -1665290425 -2129696303 499986212 -1007961250 665813431 12496477 1922754282 -2046195747 -1150297972 -1431948498 -847193418 -1821992183 -1387299604 -216066528 2037676391 -1365653415 395036595 -217544975 -1199135339 -3969799 237948674 1508076535
REM
CELL 1.54180   50.00000   50.00000   50.00000   90.00000   90.00000   90.00000
LATT -1
SFAC C  
C      1  0.3893420000000  0.4712620000000  0.4647950000000 1.0
C      1  0.4651480000000  0.5999030000000  0.4814730000000 1.0
C      1  0.4667610000000  0.5988220000000  0.5423310000000 1.0
C      1  0.5213360000000  0.4277370000000  0.5734660000000 1.0
C      1  0.4359020000000  0.5471600000000  0.5088650000000 1.0
C      1  0.5465660000000  0.6089670000000  0.4864910000000 1.0
C      1  0.4255810000000  0.5288180000000  0.4327240000000 1.0
C      1  0.5728890000000  0.5036410000000  0.5704960000000 1.0
C      1  0.5840000000000  0.4659730000000  0.4549230000000 1.0
C      1  0.4958710000000  0.5525840000000  0.4499640000000 1.0
C      1  0.4701150000000  0.4723250000000  0.5211990000000 1.0
C      1  0.3783150000000  0.5040100000000  0.5098190000000 1.0
C      1  0.4768500000000  0.4764170000000  0.4665560000000 1.0
C      1  0.4894820000000  0.5161850000000  0.4923100000000 1.0
C      1  0.6052580000000  0.4700890000000  0.5243320000000 1.0
C      1  0.4430050000000  0.4008880000000  0.5196150000000 1.0
C      1  0.5825660000000  0.5452590000000  0.4438740000000 1.0
C      1  0.4491070000000  0.4872240000000  0.4208730000000 1.0
C      1  0.5340880000000  0.3887740000000  0.4966730000000 1.0
C      1  0.5429290000000  0.3915210000000  0.5225870000000 1.0
C      1  0.5449130000000  0.5175180000000  0.5542220000000 1.0
C      1  0.5197790000000  0.4737310000000  0.5479800000000 1.0
C      1  0.5526050000000  0.4720670000000  0.6039080000000 1.0
C      1  0.5966450000000  0.5433790000000  0.5444390000000 1.0
C      1  0.4928960000000  0.5755300000000  0.4142770000000 1.0
C      1  0.6096780000000  0.4628330000000  0.4981460000000 1.0
C      1  0.5682330000000  0.4964240000000  0.5127330000000 1.0
C      1  0.5300110000000  0.4934100000000  0.4453440000000 1.0
C      1  0.5164850000000  0.3906720000000  0.5357630000000 1.0
C      1  0.5856580000000  0.5653890000000  0.4635390000000 1.0
C      1  0.5534190000000  0.4714070000000  0.3987240000000 1.0
C      1  0.4746120000000  0.4573290000000  0.5631140000000 1.0
C      1  0.6052130000000  0.5465810000000  0.5144950000000 1.0
C      1  0.5605870000000  0.4613920000000  0.4728890000000 1.0
C      1  0.4243220000000  0.5825260000000  0.4693690000000 1.0
C      1  0.4151280000000  0.4461860000000  0.5719420000000 1.0
C      1  0.4253600000000  0.4705850000000  0.4232060000000 1.0
C      1  0.5947230000000  0.5245970000000  0.4809130000000 1.0
C      1  0.5314400000000  0.5357310000000  0.5048530000000 1.0
C      1  0.4782600000000  0.4819430000000  0.4365320000000 1.0
C      1  0.5003750000000  0.5322570000000  0.5166800000000 1.0
C      1  0.5511000000000  0.5128340000000  0.3989090000000 1.0
C      1  0.5058400000000  0.5485880000000  0.5611030000000 1.0
C      1  0.3858010000000  0.5323110000000  0.5037210000000 1.0
C      1  0.4821050000000  0.5514310000000  0.5846490000000 1.0
C      1  0.4430650000000  0.5136520000000  0.5510310000000 1.0
C      1  0.5849130000000  0.4574610000000  0.5423240000000 1.0
C      1  0.5650200000000  0.5681060000000  0.4420220000000 1.0
C      1  0.5013290000000  0.5219100000000  0.4126960000000 1.0
C      1  0.4489440000000  0.4076400000000  0.4919370000000 1.0
C      1  0.4930820000000  0.5285790000000  0.5446150000000 1.0
C      1  0.5109180000000  0.5540320000000  0.4246840000000 1.0
C      1  0.4610290000000  0.4249300000000  0.4472940000000 1.0
C      1  0.4403430000000  0.5149790000000  0.5218660000000 1.0
C      1  0.5306220000000  0.6106290000000  0.4664930000000 1.0
C      1  0.5445060000000  0.5119370000000  0.5241310000000 1.0
C      1  0.5222270000000  0.5063310000000  0.3959690000000 1.0
C      1  0.4463860000000  0.5370200000000  0.4506180000000 1.0
C      1  0.5063860000000  0.6063240000000  0.4569550000000 1.0
C      1  0.5483440000000  0.5363090000000  0.4116680000000 1.0
C      1  0.4109550000000  0.4608740000000  0.4503680000000 1.0
C      1  0.5604770000000  0.4569460000000  0.5794760000000 1.0
C      1  0.4915370000000  0.4567170000000  0.4267540000000 1.0
C      1  0.4625920000000  0.5512020000000  0.4982590000000 1.0
C      1  0.4903330000000  0.6011690000000  0.4301530000000 1.0
C      1  0.4267140000000  0.4638370000000  0.5007640000000 1.0
C      1  0.5120760000000  0.4382670000000  0.4723730000000 1.0
C      1  0.5255280000000  0.4776570000000  0.3934000000000 1.0
C      1  0.4478270000000  0.5170950000000  0.4700630000000 1.0
C      1  0.5313280000000  0.5282370000000  0.4757980000000 1.0
C      1  0.3965610000000  0.5440880000000  0.5276490000000 1.0
C      1  0.5079720000000  0.4409450000000  0.5963810000000 1.0
C      1  0.4120570000000  0.4875510000000  0.4938240000000 1.0
C      1  0.4298870000000  0.5697410000000  0.5282090000000 1.0
C      1  0.4528750000000  0.5877460000000  0.4567730000000 1.0
C      1  0.4875850000000  0.5580840000000  0.5102070000000 1.0
C      1  0.5077540000000  0.4059260000000  0.5594710000000 1.0
C      1  0.5291380000000  0.4860400000000  0.5232670000000 1.0
C      1  0.4927990000000  0.3944400000000  0.4919550000000 1.0
C      1  0.5785800000000  0.5154810000000  0.4550220000000 1.0
C      1  0.5178550000000  0.3890150000000  0.4748140000000 1.0
C      1  0.4928600000000  0.4869530000000  0.4881980000000 1.0
C      1  0.5831510000000  0.5637960000000  0.5602990000000 1.0
C      1  0.5203700000000  0.4304720000000  0.4092870000000 1.0
C      1  0.4430220000000  0.5964410000000  0.5281410000000 1.0
C      1  0.3954640000000  0.5018830000000  0.5317590000000 1.0
C      1  0.5171820000000  0.4994340000000  0.5909490000000 1.0
C      1  0.4410100000000  0.4253520000000  0.4691000000000 1.0
C      1  0.5945810000000  0.4280350000000  0.4857950000000 1.0
C      1  0.5462580000000  0.4208210000000  0.4469690000000 1.0
C      1  0.5805040000000  0.4198120000000  0.5050280000000 1.0
C      1  0.5883240000000  0.5514430000000  0.4900740000000 1.0
C      1  0.4070450000000  0.5209010000000  0.4542910000000 1.0
C      1  0.5934650000000  0.5153770000000  0.5526470000000 1.0
C      1  0.4444960000000  0.6080110000000  0.5004010000000 1.0
C      1  0.5979200000000  0.5007120000000  0.5266550000000 1.0
C      1  0.5079890000000  0.4131860000000  0.4295630000000 1.0
C      1  0.4671730000000  0.3914900000000  0.5334700000000 1.0
C      1  0.5025820000000  0.5058390000000  0.4384510000000 1.0
C      1  0.3827880000000  0.4816420000000  0.4900550000000 1.0
C      1  0.5062090000000  0.4474750000000  0.4988490000000 1.0
C      1  0.4664040000000  0.5584300000000  0.4447020000000 1.0
C      1  0.6103880000000  0.5195910000000  0.5050210000000 1.0
C      1  0.4921910000000  0.3845560000000  0.5196400000000 1.0
C      1  0.5434120000000  0.5586150000000  0.4239480000000 1.0
C      1  0.5353630000000  0.5439300000000  0.5615480000000 1.0
C      1  0.4195450000000  0.4244490000000  0.5594790000000 1.0
C      1  0.4158980000000  0.4950570000000  0.5493600000000 1.0
C      1  0.5085460000000  0.5805120000000  0.5609260000000 1.0
C      1  0.4872470000000  0.5954340000000  0.5529620000000 1.0
C      1  0.5276510000000  0.4965040000000  0.5642270000000 1.0
C      1  0.5548150000000  0.6002220000000  0.5090490000000 1.0
C      1  0.5036390000000  0.5271900000000  0.4628520000000 1.0
C      1  0.3979800000000  0.5390090000000  0.4759750000000 1.0
C      1  0.4946310000000  0.5995210000000  0.4833370000000 1.0
C      1  0.4375400000000  0.4493900000000  0.4095770000000 1.0
C      1  0.5405160000000  0.4381780000000  0.4694670000000 1.0
C      1  0.5166620000000  0.4750050000000  0.4994990000000 1.0
C      1  0.5196920000000  0.5407840000000  0.6114080000000 1.0
C      1  0.4867220000000  0.5065690000000  0.5903050000000 1.0
C      1  0.5497350000000  0.5799130000000  0.5246810000000 1.0
C      1  0.6045370000000  0.4516790000000  0.4726270000000 1.0
C      1  0.5284530000000  0.4570690000000  0.6052290000000 1.0
C      1  0.4849230000000  0.4806030000000  0.5465670000000 1.0
C      1  0.4919740000000  0.5334170000000  0.6044440000000 1.0
C      1  0.4758290000000  0.4186100000000  0.4927660000000 1.0
C      1  0.5286560000000  0.5636740000000  0.5972860000000 1.0
C      1  0.4917080000000  0.4329960000000  0.4465900000000 1.0
C      1  0.5375620000000  0.4675600000000  0.4362280000000 1.0
C      1  0.4130900000000  0.5558600000000  0.5476400000000 1.0
C      1  0.5441570000000  0.4419440000000  0.4244630000000 1.0
C      1  0.4647260000000  0.5256230000000  0.4891520000000 1.0
C      1  0.5836050000000  0.4896750000000  0.4380540000000 1.0
C      1  0.5706690000000  0.4900040000000  0.4115970000000 1.0
C      1  0.5351120000000  0.5143270000000  0.6083120000000 1.0
C      1  0.4465080000000  0.5153870000000  0.4150590000000 1.0
C      1  0.4715110000000  0.5297560000000  0.4077100000000 1.0
C      1  0.5396950000000  0.4467070000000  0.5583880000000 1.0
C      1  0.4185400000000  0.5572810000000  0.4836570000000 1.0
C      1  0.4486160000000  0.4353350000000  0.4247230000000 1.0
C      1  0.5262110000000  0.3997140000000  0.4476130000000 1.0
C      1  0.4225600000000  0.5035380000000  0.4716920000000 1.0
C      1  0.5053570000000  0.5775300000000  0.5002430000000 1.0
C      1  0.4803270000000  0.4558600000000  0.5923710000000 1.0
C      1  0.4180930000000  0.6070700000000  0.4851870000000 1.0
C      1  0.4787810000000  0.4089030000000  0.5540970000000 1.0
C      1  0.4339000000000  0.5399200000000  0.5642270000000 1.0
C      1  0.4753770000000  0.4362340000000  0.5443400000000 1.0
C      1  0.4566970000000  0.5482060000000  0.5753020000000 1.0
C      1  0.4697130000000  0.5577740000000  0.4138920000000 1.0
C      1  0.5333520000000  0.5826200000000  0.5772480000000 1.0
C      1  0.4748860000000  0.4811710000000  0.6046070000000 1.0
C      1  0.5587840000000  0.5010910000000  0.5987690000000 1.0
C      1  0.5323680000000  0.5662270000000  0.5058890000000 1.0
C      1  0.4205550000000  0.4487960000000  0.5257370000000 1.0
C      1  0.5482570000000  0.5113520000000  0.4608730000000 1.0
C      1  0.5625440000000  0.4384380000000  0.5392470000000 1.0
C      1  0.5068800000000  0.4554570000000  0.4026550000000 1.0
C      1  0.4770590000000  0.5082970000000  0.5575830000000 1.0
C      1  0.5652700000000  0.4126860000000  0.5263720000000 1.0
C      1  0.4247410000000  0.4206580000000  0.5321600000000 1.0
C      1  0.5644180000000  0.4790330000000  0.4929600000000 1.0
C      1  0.4482410000000  0.4883910000000  0.5117710000000 1.0
C      1  0.4169140000000  0.4645510000000  0.5501570000000 1.0
C      1  0.5792530000000  0.4735110000000  0.5657660000000 1.0
C      1  0.4243210000000  0.4489670000000  0.4732160000000 1.0
C      1  0.5530170000000  0.5683570000000  0.5558490000000 1.0
C      1  0.4625390000000  0.6076490000000  0.4339350000000 1.0
C      1  0.4789010000000  0.4434480000000  0.5137150000000 1.0
END
