TITL C-4164247-2821-104 0.0735582769602128 125000 -2732.18630920489 0 0 20 (C1) n - 1
REM
REM in /home/nfs/bkarasulu/CARBON/AIRSS/Generating-Clusters/ReaxFF-fromJPCA2015/Units_Real/with-SteepDescent/Only-C1/SD-CG/Try1-3A/FIRE-CG
REM
REM
REM
REM
REM
REM ./C.cell (11c1c37f851c82e70ff6c80c92926a4b)
REM
REM compiler GCC version 9.2.1 20190827 (Red Hat 9.2.1-1)
REM options -cpp -mtune=generic -march=x86-64 -g -O0 -fpre-include=/usr/include/finclude/math-vector-fortran.h
REM seed 1850365864 -1344165129 -356183463 -749220454 1588813306 350239605 -389301644 -31075486 1459783729 1517650901 -1397523998 -472401100 1841553388 -1258380495 2126504994 -1309782727 29581463 -2141610536 -2100774289 778123926 679868380 1009097074 -402038672 -483315139 765822021 -1319863877 617962163 -1631029014 -1797191041 -427469732 300290894 -877066739 1024244438
REM
CELL 1.54180   50.00000   50.00000   50.00000   90.00000   90.00000   90.00000
LATT -1
SFAC C  
C      1  0.5036990000000  0.5170020000000  0.4576850000000 1.0
C      1  0.4974980000000  0.4472210000000  0.5304610000000 1.0
C      1  0.5331500000000  0.4487460000000  0.5125380000000 1.0
C      1  0.5443890000000  0.4892000000000  0.4809570000000 1.0
C      1  0.4658090000000  0.5214140000000  0.4753060000000 1.0
C      1  0.5404490000000  0.4753060000000  0.5090260000000 1.0
C      1  0.4349300000000  0.5212000000000  0.5017100000000 1.0
C      1  0.4734300000000  0.5020190000000  0.4530700000000 1.0
C      1  0.4702610000000  0.4891050000000  0.5241170000000 1.0
C      1  0.4575540000000  0.5093130000000  0.5046970000000 1.0
C      1  0.5265230000000  0.5396160000000  0.5359390000000 1.0
C      1  0.4652560000000  0.4789240000000  0.4448510000000 1.0
C      1  0.5155090000000  0.5519740000000  0.5176170000000 1.0
C      1  0.4933330000000  0.4753360000000  0.5326110000000 1.0
C      1  0.5234340000000  0.5036130000000  0.4687670000000 1.0
C      1  0.5227700000000  0.4876590000000  0.5283040000000 1.0
C      1  0.5155180000000  0.4325080000000  0.5219010000000 1.0
C      1  0.4893140000000  0.5374870000000  0.4726370000000 1.0
C      1  0.5256030000000  0.5151940000000  0.5337230000000 1.0
C      1  0.5015720000000  0.5571630000000  0.4940810000000 1.0
END
