TITL C-4164235-1454-366 -6.07327061924127 125000 -28306.7064307118 0 0 189 (C1) n - 1
REM
REM in /home/nfs/bkarasulu/CARBON/AIRSS/Generating-Clusters/ReaxFF-fromJPCA2015/Units_Real/with-SteepDescent/Only-C1/SD-CG/Try1-3A/FIRE-CG
REM
REM
REM
REM
REM
REM ./C.cell (11c1c37f851c82e70ff6c80c92926a4b)
REM
REM compiler GCC version 9.2.1 20190827 (Red Hat 9.2.1-1)
REM options -cpp -mtune=generic -march=x86-64 -g -O0 -fpre-include=/usr/include/finclude/math-vector-fortran.h
REM seed 1003867760 1262887434 -98873832 16611342 -228666934 1380242417 -180368849 -1807221950 -937074013 1944002301 1184468047 510555134 1373466358 239297530 904306386 921959637 -347882961 138668737 447776739 1764812001 -1625119043 -1905291637 240697744 -1984788750 -236796669 178929694 -2140364594 1719645187 96690236 -801021072 910800650 720850216 -734627836
REM
CELL 1.54180   50.00000   50.00000   50.00000   90.00000   90.00000   90.00000
LATT -1
SFAC C  
C      1  0.5713540000000  0.5141360000000  0.5872350000000 1.0
C      1  0.4885690000000  0.4506900000000  0.5193750000000 1.0
C      1  0.4593680000000  0.4506010000000  0.5268670000000 1.0
C      1  0.5483340000000  0.5451820000000  0.5646230000000 1.0
C      1  0.5038520000000  0.5585660000000  0.5747230000000 1.0
C      1  0.5862840000000  0.4581190000000  0.5490530000000 1.0
C      1  0.4960130000000  0.4811680000000  0.4418970000000 1.0
C      1  0.5101060000000  0.4465140000000  0.5456000000000 1.0
C      1  0.4059850000000  0.4461010000000  0.4410490000000 1.0
C      1  0.5878650000000  0.4905440000000  0.4190560000000 1.0
C      1  0.6062480000000  0.4535690000000  0.5043920000000 1.0
C      1  0.5171940000000  0.5521850000000  0.4453870000000 1.0
C      1  0.5935470000000  0.5406210000000  0.5499060000000 1.0
C      1  0.4482400000000  0.4228930000000  0.4263780000000 1.0
C      1  0.5885690000000  0.5170980000000  0.5595150000000 1.0
C      1  0.5771960000000  0.4732270000000  0.4624900000000 1.0
C      1  0.4737550000000  0.4305220000000  0.4168860000000 1.0
C      1  0.5741730000000  0.4855890000000  0.5859450000000 1.0
C      1  0.4896700000000  0.3924640000000  0.5060370000000 1.0
C      1  0.4757090000000  0.5473940000000  0.6028170000000 1.0
C      1  0.5596080000000  0.4496990000000  0.5555900000000 1.0
C      1  0.5965200000000  0.4762150000000  0.5684720000000 1.0
C      1  0.5214970000000  0.5661460000000  0.4712040000000 1.0
C      1  0.3988760000000  0.5444740000000  0.5380640000000 1.0
C      1  0.5263370000000  0.6058980000000  0.5180710000000 1.0
C      1  0.4351940000000  0.5545780000000  0.5751920000000 1.0
C      1  0.5532750000000  0.4902870000000  0.4651190000000 1.0
C      1  0.4238780000000  0.4397450000000  0.4207170000000 1.0
C      1  0.5977650000000  0.5192120000000  0.4557850000000 1.0
C      1  0.4917620000000  0.5222620000000  0.6046970000000 1.0
C      1  0.6037190000000  0.4468030000000  0.4786240000000 1.0
C      1  0.5312040000000  0.4285270000000  0.4610700000000 1.0
C      1  0.5430560000000  0.4282370000000  0.5891740000000 1.0
C      1  0.5502770000000  0.4537150000000  0.4280280000000 1.0
C      1  0.5063590000000  0.4225960000000  0.5683510000000 1.0
C      1  0.5758640000000  0.4446430000000  0.4717610000000 1.0
C      1  0.5435040000000  0.4928040000000  0.4130100000000 1.0
C      1  0.5351340000000  0.5474040000000  0.4964040000000 1.0
C      1  0.5872880000000  0.5207650000000  0.4137410000000 1.0
C      1  0.5336860000000  0.4728040000000  0.4862560000000 1.0
C      1  0.5831040000000  0.5618810000000  0.5199860000000 1.0
C      1  0.5069650000000  0.4728910000000  0.5594950000000 1.0
C      1  0.5452820000000  0.6119500000000  0.5407760000000 1.0
C      1  0.3956290000000  0.4977300000000  0.4419640000000 1.0
C      1  0.5090860000000  0.3956360000000  0.4842350000000 1.0
C      1  0.5339080000000  0.4748680000000  0.5170380000000 1.0
C      1  0.3892730000000  0.4832150000000  0.4660820000000 1.0
C      1  0.4548620000000  0.5093280000000  0.4499440000000 1.0
C      1  0.4365430000000  0.4048690000000  0.5161470000000 1.0
C      1  0.5212530000000  0.5360390000000  0.5209880000000 1.0
C      1  0.4830340000000  0.6081820000000  0.4593650000000 1.0
C      1  0.4523980000000  0.6006120000000  0.4684220000000 1.0
C      1  0.4964990000000  0.4120520000000  0.4298340000000 1.0
C      1  0.4360600000000  0.5145560000000  0.4226520000000 1.0
C      1  0.5103590000000  0.5053070000000  0.4368900000000 1.0
C      1  0.4592720000000  0.4470900000000  0.6064350000000 1.0
C      1  0.5203340000000  0.4544930000000  0.4249330000000 1.0
C      1  0.4969570000000  0.4835260000000  0.4679240000000 1.0
C      1  0.5080190000000  0.5147270000000  0.3874950000000 1.0
C      1  0.4781400000000  0.5950660000000  0.5382620000000 1.0
C      1  0.5591900000000  0.4212530000000  0.5680670000000 1.0
C      1  0.5495850000000  0.5769970000000  0.4223170000000 1.0
C      1  0.5617730000000  0.5569340000000  0.5006020000000 1.0
C      1  0.5097470000000  0.4621870000000  0.6064350000000 1.0
C      1  0.5990100000000  0.5197820000000  0.4860480000000 1.0
C      1  0.4588850000000  0.3933950000000  0.5007640000000 1.0
C      1  0.4805260000000  0.4754420000000  0.5718820000000 1.0
C      1  0.4368640000000  0.5307710000000  0.4961090000000 1.0
C      1  0.5720300000000  0.5672850000000  0.4383300000000 1.0
C      1  0.5152650000000  0.4960070000000  0.4845160000000 1.0
C      1  0.4225610000000  0.4729400000000  0.5554510000000 1.0
C      1  0.4559220000000  0.5914490000000  0.5180970000000 1.0
C      1  0.4428590000000  0.4518780000000  0.5509660000000 1.0
C      1  0.4847520000000  0.5432260000000  0.4094290000000 1.0
C      1  0.4709980000000  0.5022150000000  0.6056740000000 1.0
C      1  0.4656020000000  0.5422790000000  0.5065520000000 1.0
C      1  0.4285570000000  0.4678450000000  0.4108620000000 1.0
C      1  0.5374560000000  0.5198290000000  0.5454180000000 1.0
C      1  0.5955640000000  0.5706940000000  0.4796570000000 1.0
C      1  0.4751940000000  0.5349000000000  0.4602760000000 1.0
C      1  0.3978520000000  0.4948990000000  0.5152710000000 1.0
C      1  0.4847170000000  0.5320530000000  0.4876680000000 1.0
C      1  0.5388900000000  0.5001800000000  0.4396720000000 1.0
C      1  0.5297630000000  0.4049320000000  0.5014650000000 1.0
C      1  0.5484710000000  0.4017380000000  0.5481150000000 1.0
C      1  0.5742480000000  0.5560190000000  0.5480160000000 1.0
C      1  0.4624820000000  0.4938250000000  0.4963390000000 1.0
C      1  0.4333480000000  0.5777930000000  0.5337590000000 1.0
C      1  0.5046660000000  0.5875750000000  0.5281450000000 1.0
C      1  0.4560740000000  0.4246200000000  0.5888030000000 1.0
C      1  0.5196170000000  0.4239400000000  0.4167280000000 1.0
C      1  0.4967500000000  0.3922740000000  0.5343050000000 1.0
C      1  0.5294990000000  0.4919570000000  0.5623730000000 1.0
C      1  0.6090970000000  0.4975040000000  0.5535010000000 1.0
C      1  0.4610400000000  0.5608580000000  0.4675020000000 1.0
C      1  0.4456220000000  0.5102340000000  0.5949430000000 1.0
C      1  0.5183830000000  0.4359800000000  0.5962140000000 1.0
C      1  0.5741330000000  0.5822720000000  0.4623820000000 1.0
C      1  0.4724370000000  0.3957030000000  0.5511520000000 1.0
C      1  0.4550510000000  0.4750850000000  0.3996320000000 1.0
C      1  0.4934090000000  0.4410000000000  0.4893410000000 1.0
C      1  0.5375330000000  0.4487740000000  0.5326950000000 1.0
C      1  0.5055100000000  0.4661300000000  0.4021680000000 1.0
C      1  0.6182580000000  0.4714650000000  0.4863010000000 1.0
C      1  0.4710120000000  0.5704030000000  0.4940370000000 1.0
C      1  0.6121240000000  0.4900540000000  0.5260570000000 1.0
C      1  0.5955010000000  0.4911450000000  0.4469900000000 1.0
C      1  0.4877580000000  0.4993850000000  0.5168480000000 1.0
C      1  0.4052940000000  0.4460860000000  0.5214810000000 1.0
C      1  0.3913390000000  0.5026590000000  0.4882990000000 1.0
C      1  0.4232780000000  0.5664290000000  0.4384730000000 1.0
C      1  0.4396470000000  0.5803850000000  0.5627670000000 1.0
C      1  0.4785490000000  0.5196310000000  0.3931680000000 1.0
C      1  0.5012090000000  0.6079170000000  0.4834720000000 1.0
C      1  0.4897870000000  0.5543890000000  0.5503230000000 1.0
C      1  0.4989040000000  0.5787560000000  0.4858700000000 1.0
C      1  0.5641350000000  0.4005310000000  0.5232560000000 1.0
C      1  0.5207440000000  0.4895940000000  0.3958010000000 1.0
C      1  0.4563990000000  0.4603160000000  0.4613120000000 1.0
C      1  0.5439080000000  0.5912570000000  0.4718210000000 1.0
C      1  0.4824860000000  0.5721910000000  0.5885190000000 1.0
C      1  0.5071620000000  0.5592270000000  0.5308900000000 1.0
C      1  0.4132270000000  0.4235380000000  0.5075240000000 1.0
C      1  0.4159990000000  0.5515540000000  0.4886650000000 1.0
C      1  0.4497170000000  0.4029250000000  0.4767000000000 1.0
C      1  0.5684050000000  0.4178060000000  0.5015750000000 1.0
C      1  0.4557970000000  0.5042020000000  0.4005680000000 1.0
C      1  0.5026010000000  0.6035140000000  0.4398660000000 1.0
C      1  0.4622780000000  0.4931380000000  0.5591190000000 1.0
C      1  0.5568260000000  0.5334460000000  0.4874410000000 1.0
C      1  0.5420650000000  0.6056790000000  0.4504790000000 1.0
C      1  0.4459500000000  0.5087550000000  0.4778250000000 1.0
C      1  0.6015460000000  0.5496420000000  0.4987750000000 1.0
C      1  0.4729660000000  0.4373200000000  0.4687810000000 1.0
C      1  0.4217450000000  0.5229210000000  0.5465140000000 1.0
C      1  0.4777240000000  0.4562340000000  0.4028520000000 1.0
C      1  0.5633720000000  0.5096670000000  0.5379400000000 1.0
C      1  0.3983640000000  0.5265300000000  0.4490170000000 1.0
C      1  0.4761020000000  0.5100060000000  0.5408440000000 1.0
C      1  0.3932220000000  0.4534800000000  0.4646770000000 1.0
C      1  0.4235780000000  0.5098320000000  0.5197140000000 1.0
C      1  0.5194030000000  0.4015840000000  0.5507120000000 1.0
C      1  0.4405920000000  0.5423220000000  0.5505670000000 1.0
C      1  0.4164830000000  0.4918000000000  0.4222300000000 1.0
C      1  0.4792740000000  0.4704740000000  0.6028800000000 1.0
C      1  0.4139660000000  0.4385440000000  0.4815080000000 1.0
C      1  0.5042910000000  0.4762640000000  0.5179080000000 1.0
C      1  0.4120930000000  0.5616930000000  0.5195330000000 1.0
C      1  0.4790800000000  0.4113230000000  0.5741840000000 1.0
C      1  0.5577530000000  0.4364660000000  0.4500670000000 1.0
C      1  0.3978690000000  0.5302800000000  0.4778220000000 1.0
C      1  0.5496530000000  0.4744730000000  0.5743850000000 1.0
C      1  0.4416830000000  0.4628830000000  0.5099130000000 1.0
C      1  0.4474150000000  0.5390330000000  0.5968750000000 1.0
C      1  0.5234530000000  0.4866350000000  0.6027560000000 1.0
C      1  0.5243810000000  0.5380410000000  0.3957510000000 1.0
C      1  0.6156990000000  0.4977440000000  0.4987060000000 1.0
C      1  0.5865980000000  0.5392470000000  0.4367340000000 1.0
C      1  0.5674390000000  0.5082720000000  0.4894500000000 1.0
C      1  0.4683070000000  0.5379270000000  0.5407530000000 1.0
C      1  0.4360630000000  0.4578000000000  0.4821140000000 1.0
C      1  0.5908650000000  0.4694480000000  0.5230190000000 1.0
C      1  0.4394790000000  0.4253970000000  0.5634130000000 1.0
C      1  0.5405920000000  0.5956500000000  0.5652340000000 1.0
C      1  0.5282590000000  0.5996160000000  0.4270710000000 1.0
C      1  0.4327510000000  0.4982710000000  0.5676550000000 1.0
C      1  0.4432930000000  0.4890090000000  0.5166600000000 1.0
C      1  0.5641690000000  0.4918850000000  0.5155140000000 1.0
C      1  0.5428070000000  0.4302240000000  0.5065080000000 1.0
C      1  0.5642090000000  0.4745150000000  0.4132130000000 1.0
C      1  0.5303120000000  0.6107430000000  0.4894320000000 1.0
C      1  0.5182760000000  0.4482850000000  0.4772860000000 1.0
C      1  0.5109420000000  0.4077060000000  0.4555590000000 1.0
C      1  0.4423480000000  0.5689030000000  0.4179690000000 1.0
C      1  0.4628450000000  0.5596460000000  0.4117440000000 1.0
C      1  0.4669010000000  0.4819240000000  0.4436010000000 1.0
C      1  0.4343490000000  0.5719980000000  0.4660630000000 1.0
C      1  0.5467180000000  0.5274550000000  0.5903140000000 1.0
C      1  0.5045980000000  0.5172810000000  0.5014690000000 1.0
C      1  0.4016180000000  0.4714750000000  0.5335560000000 1.0
C      1  0.4692620000000  0.5851990000000  0.5647870000000 1.0
C      1  0.4172920000000  0.5390660000000  0.4306510000000 1.0
C      1  0.5318680000000  0.5685250000000  0.5724110000000 1.0
C      1  0.4582350000000  0.4139050000000  0.4531130000000 1.0
C      1  0.5314480000000  0.5537580000000  0.4204610000000 1.0
C      1  0.4449240000000  0.4042140000000  0.5438750000000 1.0
C      1  0.4480180000000  0.6113620000000  0.4942700000000 1.0
C      1  0.4970900000000  0.5340820000000  0.4388710000000 1.0
C      1  0.5213170000000  0.5149730000000  0.6018020000000 1.0
END
