TITL C-4164233-775-559 9.6795687365769 125000 -7142.77874158898 0 0 49 (C1) n - 1
REM
REM in /home/nfs/bkarasulu/CARBON/AIRSS/Generating-Clusters/ReaxFF-fromJPCA2015/Units_Real/with-SteepDescent/Only-C1/SD-CG/Try1-3A/FIRE-CG
REM
REM
REM
REM
REM
REM ./C.cell (11c1c37f851c82e70ff6c80c92926a4b)
REM
REM compiler GCC version 9.2.1 20190827 (Red Hat 9.2.1-1)
REM options -cpp -mtune=generic -march=x86-64 -g -O0 -fpre-include=/usr/include/finclude/math-vector-fortran.h
REM seed -1464953430 -1610696447 -1083749273 -171960421 -424922307 1856043172 1140541633 1739724678 -1863501901 2052623940 1998460117 -912125957 1510668767 1367798512 289502991 -1319350391 -158426002 -1854285664 -971078689 550971052 607977475 395546989 -1039887976 200642747 910489735 2146721037 -1789263708 530279366 -671706307 -86411661 -273677910 -259547910 -914985111
REM
CELL 1.54180   50.00000   50.00000   50.00000   90.00000   90.00000   90.00000
LATT -1
SFAC C  
C      1  0.4795140000000  0.5213030000000  0.5615500000000 1.0
C      1  0.5199950000000  0.4934810000000  0.5520430000000 1.0
C      1  0.4751500000000  0.5456380000000  0.5137460000000 1.0
C      1  0.5553750000000  0.5348950000000  0.4944550000000 1.0
C      1  0.4562350000000  0.4480350000000  0.4772910000000 1.0
C      1  0.4364900000000  0.4593180000000  0.4574410000000 1.0
C      1  0.4989570000000  0.5033830000000  0.4821940000000 1.0
C      1  0.5288270000000  0.4801090000000  0.4524340000000 1.0
C      1  0.4833390000000  0.4388890000000  0.4700030000000 1.0
C      1  0.4646610000000  0.5325630000000  0.5377520000000 1.0
C      1  0.5076210000000  0.4926140000000  0.4364250000000 1.0
C      1  0.4689710000000  0.4937300000000  0.5648670000000 1.0
C      1  0.5019150000000  0.5558720000000  0.5112930000000 1.0
C      1  0.5061400000000  0.5297900000000  0.4671400000000 1.0
C      1  0.4551050000000  0.4716540000000  0.4958680000000 1.0
C      1  0.5104940000000  0.4416670000000  0.4822470000000 1.0
C      1  0.4334610000000  0.4921280000000  0.4924280000000 1.0
C      1  0.5079850000000  0.5202560000000  0.5639020000000 1.0
C      1  0.5113890000000  0.5537250000000  0.4834650000000 1.0
C      1  0.5529910000000  0.4949330000000  0.4635240000000 1.0
C      1  0.5120980000000  0.4679230000000  0.5698100000000 1.0
C      1  0.5267760000000  0.5406790000000  0.5560650000000 1.0
C      1  0.4623680000000  0.5251580000000  0.4664490000000 1.0
C      1  0.4941410000000  0.4475010000000  0.5655280000000 1.0
C      1  0.4866740000000  0.4742020000000  0.4305230000000 1.0
C      1  0.5401630000000  0.5514100000000  0.4750640000000 1.0
C      1  0.5518570000000  0.5273040000000  0.5454230000000 1.0
C      1  0.4992390000000  0.4911400000000  0.5298730000000 1.0
C      1  0.5135960000000  0.4893610000000  0.5047770000000 1.0
C      1  0.4711120000000  0.4886700000000  0.5363320000000 1.0
C      1  0.4837810000000  0.4708570000000  0.5779480000000 1.0
C      1  0.4511920000000  0.5089780000000  0.5321320000000 1.0
C      1  0.4582120000000  0.5357390000000  0.4915050000000 1.0
C      1  0.5590690000000  0.5065870000000  0.4903250000000 1.0
C      1  0.4335660000000  0.4884160000000  0.4634100000000 1.0
C      1  0.5312370000000  0.5353110000000  0.4515670000000 1.0
C      1  0.5244310000000  0.5556300000000  0.5304330000000 1.0
C      1  0.5508510000000  0.5451570000000  0.5218110000000 1.0
C      1  0.5520210000000  0.5149740000000  0.4414210000000 1.0
C      1  0.5608520000000  0.4895820000000  0.5153510000000 1.0
C      1  0.5206230000000  0.4588030000000  0.5044600000000 1.0
C      1  0.4787280000000  0.5023680000000  0.4364310000000 1.0
C      1  0.4941950000000  0.4490810000000  0.4443410000000 1.0
C      1  0.5210560000000  0.4518740000000  0.4566410000000 1.0
C      1  0.5491170000000  0.4987460000000  0.5405580000000 1.0
C      1  0.4757520000000  0.4896410000000  0.4875540000000 1.0
C      1  0.4416950000000  0.5165530000000  0.5072250000000 1.0
C      1  0.4557020000000  0.5085500000000  0.4516710000000 1.0
C      1  0.5452800000000  0.4658220000000  0.5153020000000 1.0
END
