TITL C-4164233-775-28 38.940912672309 125000 -28284.1928700195 0 0 188 (C1) n - 1
REM
REM in /home/nfs/bkarasulu/CARBON/AIRSS/Generating-Clusters/ReaxFF-fromJPCA2015/Units_Real/with-SteepDescent/Only-C1/SD-CG/Try1-3A/FIRE-CG
REM
REM
REM
REM
REM
REM ./C.cell (11c1c37f851c82e70ff6c80c92926a4b)
REM
REM compiler GCC version 9.2.1 20190827 (Red Hat 9.2.1-1)
REM options -cpp -mtune=generic -march=x86-64 -g -O0 -fpre-include=/usr/include/finclude/math-vector-fortran.h
REM seed -1266773019 -1264960388 1483309704 -1681932230 20694452 -2055419667 -1642800913 -185710111 -1473515810 1400032089 -68265896 -199919678 979318745 801361819 1272538528 953240395 407383933 1165253505 541228512 847855621 435486401 -1082767721 559102825 -1322373681 -2620877 -1280032155 266997402 1078567366 816753360 1346901389 64242946 2077439963 750145328
REM
CELL 1.54180   50.00000   50.00000   50.00000   90.00000   90.00000   90.00000
LATT -1
SFAC C  
C      1  0.4748520000000  0.6002620000000  0.5492310000000 1.0
C      1  0.4582730000000  0.5455030000000  0.4025760000000 1.0
C      1  0.5466210000000  0.4232640000000  0.5382320000000 1.0
C      1  0.4411870000000  0.5572240000000  0.5725500000000 1.0
C      1  0.6087960000000  0.4829420000000  0.4829050000000 1.0
C      1  0.4863330000000  0.4669770000000  0.4334740000000 1.0
C      1  0.4312890000000  0.5115120000000  0.5264840000000 1.0
C      1  0.4605560000000  0.4529190000000  0.5098050000000 1.0
C      1  0.5069080000000  0.5402900000000  0.6084070000000 1.0
C      1  0.5330860000000  0.5499560000000  0.4141620000000 1.0
C      1  0.5175440000000  0.4602550000000  0.5362060000000 1.0
C      1  0.4104110000000  0.5140770000000  0.4915330000000 1.0
C      1  0.6064540000000  0.4991450000000  0.5396120000000 1.0
C      1  0.4472650000000  0.6018670000000  0.4938120000000 1.0
C      1  0.4836330000000  0.4689770000000  0.5563310000000 1.0
C      1  0.4954720000000  0.4451040000000  0.5463830000000 1.0
C      1  0.4952340000000  0.4119360000000  0.5073940000000 1.0
C      1  0.5525310000000  0.4812500000000  0.5432410000000 1.0
C      1  0.4789260000000  0.4792350000000  0.4741850000000 1.0
C      1  0.4661590000000  0.6195760000000  0.4492560000000 1.0
C      1  0.5219640000000  0.5173070000000  0.6089030000000 1.0
C      1  0.4428900000000  0.4070150000000  0.5435440000000 1.0
C      1  0.4201100000000  0.5663540000000  0.5384550000000 1.0
C      1  0.5848750000000  0.4388370000000  0.4839410000000 1.0
C      1  0.4177030000000  0.4548740000000  0.4349440000000 1.0
C      1  0.5429570000000  0.5284960000000  0.5598700000000 1.0
C      1  0.4892080000000  0.4345530000000  0.5956900000000 1.0
C      1  0.5784700000000  0.4706570000000  0.5522170000000 1.0
C      1  0.5061550000000  0.4306550000000  0.4100540000000 1.0
C      1  0.4727720000000  0.5239410000000  0.5375010000000 1.0
C      1  0.5498510000000  0.4229740000000  0.4395920000000 1.0
C      1  0.5313780000000  0.4757950000000  0.4091580000000 1.0
C      1  0.5024640000000  0.5597950000000  0.5112840000000 1.0
C      1  0.5227530000000  0.4152360000000  0.4260280000000 1.0
C      1  0.4842950000000  0.5502190000000  0.5311300000000 1.0
C      1  0.5152580000000  0.4841390000000  0.3867990000000 1.0
C      1  0.5810060000000  0.4870980000000  0.5773860000000 1.0
C      1  0.4541570000000  0.5992170000000  0.4297600000000 1.0
C      1  0.4084490000000  0.4431830000000  0.4603590000000 1.0
C      1  0.5915070000000  0.5432880000000  0.5260730000000 1.0
C      1  0.5981620000000  0.4725590000000  0.5318260000000 1.0
C      1  0.4568420000000  0.5212110000000  0.5968080000000 1.0
C      1  0.4905140000000  0.5381110000000  0.5560210000000 1.0
C      1  0.4544320000000  0.4692990000000  0.4624720000000 1.0
C      1  0.5435500000000  0.4582130000000  0.4981860000000 1.0
C      1  0.5242050000000  0.5635300000000  0.5978450000000 1.0
C      1  0.5109440000000  0.4493270000000  0.6027890000000 1.0
C      1  0.4461670000000  0.5210380000000  0.5465090000000 1.0
C      1  0.4192890000000  0.5409690000000  0.4262400000000 1.0
C      1  0.4666890000000  0.4197060000000  0.4470120000000 1.0
C      1  0.5268770000000  0.4552700000000  0.4756880000000 1.0
C      1  0.6110860000000  0.5325670000000  0.4719960000000 1.0
C      1  0.4967690000000  0.4505330000000  0.4759520000000 1.0
C      1  0.6124870000000  0.5588030000000  0.4835070000000 1.0
C      1  0.6061270000000  0.5184600000000  0.5180980000000 1.0
C      1  0.4631760000000  0.5016940000000  0.6103560000000 1.0
C      1  0.5518070000000  0.5024860000000  0.4881370000000 1.0
C      1  0.4001710000000  0.4549980000000  0.5062840000000 1.0
C      1  0.5335680000000  0.4351240000000  0.5869090000000 1.0
C      1  0.5979220000000  0.5265060000000  0.4471150000000 1.0
C      1  0.4110010000000  0.4661960000000  0.4793110000000 1.0
C      1  0.5158690000000  0.3757260000000  0.5335220000000 1.0
C      1  0.5054170000000  0.5031910000000  0.4736680000000 1.0
C      1  0.4850520000000  0.5848320000000  0.5712900000000 1.0
C      1  0.4604010000000  0.3869660000000  0.4721080000000 1.0
C      1  0.5949880000000  0.5796430000000  0.4737500000000 1.0
C      1  0.5269520000000  0.3959100000000  0.4682080000000 1.0
C      1  0.5396480000000  0.4478740000000  0.5239490000000 1.0
C      1  0.5671700000000  0.4173870000000  0.4901340000000 1.0
C      1  0.5747420000000  0.5680480000000  0.4556150000000 1.0
C      1  0.5361230000000  0.3844250000000  0.5149090000000 1.0
C      1  0.4721680000000  0.5014680000000  0.4945810000000 1.0
C      1  0.4590640000000  0.4395440000000  0.4122470000000 1.0
C      1  0.4891000000000  0.5702540000000  0.4827390000000 1.0
C      1  0.5078140000000  0.6287070000000  0.5125310000000 1.0
C      1  0.5151480000000  0.3946350000000  0.4952020000000 1.0
C      1  0.5864970000000  0.4492360000000  0.4568780000000 1.0
C      1  0.5603360000000  0.4806130000000  0.5969260000000 1.0
C      1  0.4858810000000  0.4455450000000  0.3969660000000 1.0
C      1  0.4933630000000  0.5338460000000  0.4181200000000 1.0
C      1  0.5131760000000  0.5190250000000  0.5582300000000 1.0
C      1  0.3950390000000  0.5076010000000  0.5081830000000 1.0
C      1  0.5623780000000  0.5805300000000  0.5089400000000 1.0
C      1  0.5484100000000  0.5562900000000  0.5480110000000 1.0
C      1  0.5880470000000  0.5862050000000  0.5013410000000 1.0
C      1  0.4035760000000  0.4988970000000  0.5348040000000 1.0
C      1  0.4857490000000  0.5266350000000  0.4450740000000 1.0
C      1  0.4995510000000  0.4184290000000  0.5581880000000 1.0
C      1  0.5387910000000  0.5952260000000  0.5088090000000 1.0
C      1  0.6000240000000  0.4753670000000  0.4570660000000 1.0
C      1  0.5173830000000  0.5844500000000  0.5255470000000 1.0
C      1  0.4584950000000  0.3764510000000  0.5033700000000 1.0
C      1  0.5640430000000  0.4769470000000  0.4974240000000 1.0
C      1  0.4108040000000  0.4276800000000  0.5043070000000 1.0
C      1  0.4756980000000  0.4180100000000  0.5801630000000 1.0
C      1  0.5181530000000  0.5354090000000  0.5047960000000 1.0
C      1  0.4280730000000  0.5607040000000  0.4875080000000 1.0
C      1  0.4188990000000  0.4214310000000  0.4762660000000 1.0
C      1  0.4805790000000  0.4954140000000  0.5211370000000 1.0
C      1  0.4145450000000  0.4453000000000  0.5479100000000 1.0
C      1  0.5428200000000  0.5467330000000  0.4407520000000 1.0
C      1  0.5100290000000  0.4788900000000  0.5981800000000 1.0
C      1  0.5105620000000  0.4877240000000  0.5179200000000 1.0
C      1  0.5277650000000  0.5763340000000  0.5508270000000 1.0
C      1  0.4927520000000  0.5741790000000  0.4344760000000 1.0
C      1  0.4288370000000  0.4662720000000  0.5924560000000 1.0
C      1  0.4699620000000  0.4814420000000  0.4133730000000 1.0
C      1  0.6126440000000  0.5106230000000  0.4909880000000 1.0
C      1  0.5595330000000  0.4663580000000  0.4137440000000 1.0
C      1  0.4637150000000  0.5713310000000  0.4247560000000 1.0
C      1  0.5562060000000  0.4067300000000  0.5164540000000 1.0
C      1  0.4747270000000  0.5961990000000  0.4952940000000 1.0
C      1  0.4599150000000  0.3527490000000  0.4944780000000 1.0
C      1  0.4668120000000  0.4715070000000  0.5328160000000 1.0
C      1  0.5509270000000  0.4577720000000  0.5821200000000 1.0
C      1  0.5840310000000  0.5368050000000  0.5575300000000 1.0
C      1  0.5266640000000  0.6166940000000  0.4930570000000 1.0
C      1  0.4874950000000  0.4745630000000  0.3905890000000 1.0
C      1  0.5519480000000  0.5507520000000  0.4660850000000 1.0
C      1  0.4184670000000  0.4883690000000  0.5787150000000 1.0
C      1  0.5533220000000  0.5595760000000  0.5967190000000 1.0
C      1  0.5312350000000  0.4719140000000  0.5608510000000 1.0
C      1  0.4104430000000  0.5094210000000  0.5652620000000 1.0
C      1  0.5609520000000  0.5524360000000  0.5169560000000 1.0
C      1  0.5056600000000  0.5342140000000  0.3748190000000 1.0
C      1  0.4482410000000  0.4210630000000  0.5694230000000 1.0
C      1  0.4335750000000  0.5989610000000  0.5176940000000 1.0
C      1  0.5669840000000  0.4445100000000  0.4346920000000 1.0
C      1  0.5094890000000  0.3969850000000  0.4453710000000 1.0
C      1  0.4846600000000  0.4431850000000  0.4486800000000 1.0
C      1  0.5463650000000  0.5377930000000  0.4945300000000 1.0
C      1  0.4913420000000  0.6057130000000  0.5240430000000 1.0
C      1  0.4194970000000  0.4844960000000  0.4320050000000 1.0
C      1  0.5163680000000  0.6088780000000  0.4650820000000 1.0
C      1  0.4828010000000  0.4361870000000  0.4993900000000 1.0
C      1  0.4430910000000  0.4621800000000  0.4875810000000 1.0
C      1  0.4435860000000  0.4960400000000  0.4178830000000 1.0
C      1  0.4491750000000  0.4813100000000  0.6063110000000 1.0
C      1  0.4760720000000  0.5431260000000  0.4711120000000 1.0
C      1  0.4154440000000  0.5640030000000  0.4609020000000 1.0
C      1  0.5065760000000  0.5085750000000  0.4469320000000 1.0
C      1  0.4621230000000  0.3897880000000  0.5309550000000 1.0
C      1  0.4713240000000  0.5585990000000  0.5784070000000 1.0
C      1  0.5363330000000  0.4723050000000  0.4553570000000 1.0
C      1  0.4185440000000  0.5745990000000  0.5122140000000 1.0
C      1  0.5563950000000  0.4924680000000  0.4600200000000 1.0
C      1  0.5295040000000  0.4198200000000  0.5626480000000 1.0
C      1  0.5135600000000  0.5796340000000  0.5750750000000 1.0
C      1  0.4807200000000  0.5322430000000  0.3908410000000 1.0
C      1  0.4311860000000  0.5776230000000  0.5579740000000 1.0
C      1  0.5147110000000  0.4816270000000  0.4343460000000 1.0
C      1  0.4461750000000  0.5980670000000  0.5443350000000 1.0
C      1  0.5880320000000  0.5508570000000  0.4339200000000 1.0
C      1  0.4444620000000  0.4099860000000  0.4665090000000 1.0
C      1  0.4064080000000  0.4888890000000  0.4573770000000 1.0
C      1  0.5835180000000  0.4975160000000  0.4433860000000 1.0
C      1  0.5523190000000  0.4097890000000  0.4653480000000 1.0
C      1  0.5065150000000  0.5577710000000  0.4183570000000 1.0
C      1  0.5777270000000  0.4887770000000  0.4136340000000 1.0
C      1  0.4319070000000  0.5649810000000  0.4364860000000 1.0
C      1  0.4632900000000  0.6181410000000  0.4789640000000 1.0
C      1  0.5917190000000  0.4656030000000  0.5017430000000 1.0
C      1  0.4776540000000  0.5403200000000  0.6017270000000 1.0
C      1  0.4034510000000  0.5384130000000  0.4510540000000 1.0
C      1  0.4034800000000  0.4668380000000  0.5317650000000 1.0
C      1  0.5936150000000  0.5106300000000  0.5643580000000 1.0
C      1  0.4339430000000  0.5281860000000  0.5712500000000 1.0
C      1  0.4944890000000  0.6215940000000  0.4527030000000 1.0
C      1  0.4470950000000  0.4541410000000  0.4348770000000 1.0
C      1  0.3969690000000  0.5144320000000  0.4678100000000 1.0
C      1  0.4405430000000  0.5243480000000  0.4120670000000 1.0
C      1  0.4426670000000  0.5157780000000  0.4984880000000 1.0
C      1  0.5230140000000  0.5107720000000  0.3753200000000 1.0
C      1  0.5696240000000  0.5580490000000  0.5714350000000 1.0
C      1  0.4911290000000  0.3965250000000  0.5344890000000 1.0
C      1  0.4914050000000  0.5232890000000  0.4875950000000 1.0
C      1  0.5342330000000  0.4926980000000  0.6085190000000 1.0
C      1  0.5236750000000  0.4924210000000  0.4922150000000 1.0
C      1  0.4494080000000  0.5414140000000  0.4859440000000 1.0
C      1  0.4808510000000  0.3942480000000  0.4513280000000 1.0
C      1  0.5481310000000  0.5092230000000  0.5387400000000 1.0
C      1  0.4206130000000  0.4217850000000  0.5309920000000 1.0
C      1  0.4308020000000  0.4436010000000  0.5723460000000 1.0
C      1  0.5319660000000  0.5354800000000  0.3877300000000 1.0
C      1  0.5044170000000  0.4870710000000  0.5699480000000 1.0
C      1  0.5044340000000  0.5818630000000  0.4602010000000 1.0
C      1  0.5209090000000  0.5136250000000  0.5296660000000 1.0
C      1  0.6056370000000  0.5652290000000  0.5107460000000 1.0
END
