TITL C-4164246-3563-2 -1.28761107228508 125000 -11488.5613259953 0 0 77 (C1) n - 1
REM
REM in /home/nfs/bkarasulu/CARBON/AIRSS/Generating-Clusters/ReaxFF-fromJPCA2015/Units_Real/with-SteepDescent/Only-C1/SD-CG/Try1-3A/FIRE-CG
REM
REM
REM
REM
REM
REM ./C.cell (11c1c37f851c82e70ff6c80c92926a4b)
REM
REM compiler GCC version 9.2.1 20190827 (Red Hat 9.2.1-1)
REM options -cpp -mtune=generic -march=x86-64 -g -O0 -fpre-include=/usr/include/finclude/math-vector-fortran.h
REM seed -1270075405 -1655389224 -1954212648 1365014029 -283132568 1506218770 -704479340 1651807437 -234727354 1355473141 -290601767 156094265 -1807888835 931800872 231608140 -1665539197 -490317165 -1862887045 -1397710032 -1255085012 1423237468 835870642 -1400394656 510506875 -74300248 -205455596 -1583523051 379202417 -1953937091 1521254594 -1693497431 416642560 1748040702
REM
CELL 1.54180   50.00000   50.00000   50.00000   90.00000   90.00000   90.00000
LATT -1
SFAC C  
C      1  0.5301140000000  0.5030380000000  0.4184150000000 1.0
C      1  0.5492110000000  0.5414460000000  0.4607500000000 1.0
C      1  0.5479180000000  0.5071040000000  0.5224140000000 1.0
C      1  0.5165150000000  0.5284680000000  0.4255780000000 1.0
C      1  0.4199210000000  0.5032920000000  0.5276840000000 1.0
C      1  0.5450820000000  0.4614330000000  0.5391100000000 1.0
C      1  0.4853760000000  0.4680770000000  0.5105690000000 1.0
C      1  0.5642880000000  0.4548980000000  0.4730890000000 1.0
C      1  0.5607540000000  0.4346230000000  0.4939170000000 1.0
C      1  0.4893420000000  0.4368890000000  0.5015350000000 1.0
C      1  0.4960330000000  0.4612070000000  0.5668930000000 1.0
C      1  0.4239630000000  0.4674760000000  0.4576980000000 1.0
C      1  0.5074700000000  0.5005550000000  0.4785510000000 1.0
C      1  0.4893420000000  0.5195930000000  0.4302060000000 1.0
C      1  0.4878820000000  0.5287250000000  0.5176200000000 1.0
C      1  0.5540410000000  0.5126980000000  0.4568660000000 1.0
C      1  0.5745730000000  0.4883720000000  0.5144480000000 1.0
C      1  0.5336010000000  0.4938280000000  0.4685910000000 1.0
C      1  0.4685310000000  0.4257620000000  0.4897250000000 1.0
C      1  0.4215040000000  0.5194020000000  0.4668920000000 1.0
C      1  0.5230960000000  0.4544950000000  0.4400340000000 1.0
C      1  0.5311990000000  0.4829300000000  0.5231730000000 1.0
C      1  0.4613930000000  0.4623840000000  0.5290070000000 1.0
C      1  0.5831490000000  0.4474740000000  0.5096720000000 1.0
C      1  0.5442640000000  0.5144960000000  0.5541780000000 1.0
C      1  0.5360770000000  0.5279450000000  0.5029160000000 1.0
C      1  0.5487900000000  0.5498980000000  0.4893410000000 1.0
C      1  0.4895270000000  0.4908100000000  0.4278940000000 1.0
C      1  0.5140680000000  0.4778770000000  0.4233000000000 1.0
C      1  0.5762800000000  0.4657130000000  0.5317660000000 1.0
C      1  0.5335750000000  0.4276580000000  0.5033020000000 1.0
C      1  0.5370100000000  0.4663480000000  0.5672360000000 1.0
C      1  0.4598640000000  0.5228830000000  0.5061040000000 1.0
C      1  0.5176410000000  0.5766620000000  0.4472590000000 1.0
C      1  0.4390980000000  0.5339840000000  0.5498710000000 1.0
C      1  0.4836920000000  0.4441230000000  0.4476440000000 1.0
C      1  0.5411960000000  0.4667900000000  0.4594600000000 1.0
C      1  0.4479370000000  0.4600930000000  0.4482050000000 1.0
C      1  0.5342470000000  0.4938930000000  0.5734460000000 1.0
C      1  0.4716870000000  0.5708420000000  0.5364840000000 1.0
C      1  0.4356750000000  0.4571970000000  0.5150300000000 1.0
C      1  0.5040730000000  0.4840700000000  0.5248490000000 1.0
C      1  0.4893330000000  0.5101150000000  0.5637730000000 1.0
C      1  0.4762830000000  0.5718010000000  0.4816760000000 1.0
C      1  0.5173280000000  0.5687860000000  0.5140680000000 1.0
C      1  0.4819890000000  0.4855300000000  0.4817460000000 1.0
C      1  0.5303590000000  0.5350000000000  0.5642340000000 1.0
C      1  0.4301500000000  0.5053510000000  0.5565340000000 1.0
C      1  0.4476860000000  0.4372880000000  0.4983390000000 1.0
C      1  0.5107060000000  0.4256980000000  0.4853860000000 1.0
C      1  0.5046920000000  0.4883270000000  0.5765270000000 1.0
C      1  0.4686150000000  0.5754590000000  0.5091290000000 1.0
C      1  0.4965090000000  0.5875660000000  0.4649290000000 1.0
C      1  0.4833620000000  0.5377270000000  0.5716200000000 1.0
C      1  0.4657630000000  0.4638500000000  0.5582940000000 1.0
C      1  0.4617630000000  0.5505880000000  0.5570230000000 1.0
C      1  0.4982280000000  0.5576910000000  0.5303390000000 1.0
C      1  0.5244540000000  0.5907910000000  0.4720070000000 1.0
C      1  0.4209690000000  0.4819990000000  0.5082660000000 1.0
C      1  0.5294150000000  0.4342760000000  0.5320720000000 1.0
C      1  0.4433190000000  0.5315320000000  0.4526680000000 1.0
C      1  0.5586070000000  0.5041250000000  0.4283910000000 1.0
C      1  0.5103090000000  0.5521990000000  0.5767010000000 1.0
C      1  0.5821350000000  0.4716310000000  0.4912820000000 1.0
C      1  0.4934670000000  0.5070070000000  0.5357460000000 1.0
C      1  0.4349860000000  0.5281000000000  0.5214110000000 1.0
C      1  0.4480920000000  0.4843950000000  0.5614650000000 1.0
C      1  0.5098900000000  0.4429040000000  0.5499760000000 1.0
C      1  0.5080430000000  0.4329180000000  0.4551580000000 1.0
C      1  0.5070020000000  0.5273650000000  0.4918990000000 1.0
C      1  0.5362220000000  0.5769340000000  0.4958780000000 1.0
C      1  0.4579970000000  0.5020220000000  0.4874400000000 1.0
C      1  0.4288190000000  0.4919360000000  0.4808960000000 1.0
C      1  0.4876660000000  0.5464170000000  0.4725480000000 1.0
C      1  0.5290260000000  0.5501240000000  0.4415440000000 1.0
C      1  0.4731640000000  0.5351650000000  0.4502210000000 1.0
C      1  0.4746540000000  0.4719340000000  0.4500890000000 1.0
END
