TITL C-4164246-3563-478 24.8873652823891 125000 -18956.0590555491 0 0 127 (C1) n - 1
REM
REM in /home/nfs/bkarasulu/CARBON/AIRSS/Generating-Clusters/ReaxFF-fromJPCA2015/Units_Real/with-SteepDescent/Only-C1/SD-CG/Try1-3A/FIRE-CG
REM
REM
REM
REM
REM
REM ./C.cell (11c1c37f851c82e70ff6c80c92926a4b)
REM
REM compiler GCC version 9.2.1 20190827 (Red Hat 9.2.1-1)
REM options -cpp -mtune=generic -march=x86-64 -g -O0 -fpre-include=/usr/include/finclude/math-vector-fortran.h
REM seed 1800591731 -550197519 -1128833042 -505613515 1398233862 -1387984877 -578235414 1785049730 2147068030 748703593 1344537119 2057792743 -979443895 119989375 -55346997 -1667005393 1043762138 -935438625 318912915 -2125441876 1369701506 -1234952753 973338143 733560300 -1018168809 700221954 -1580696292 2060128640 956161864 647102955 1736323698 449466776 1142596145
REM
CELL 1.54180   50.00000   50.00000   50.00000   90.00000   90.00000   90.00000
LATT -1
SFAC C  
C      1  0.5079870000000  0.4560920000000  0.4876990000000 1.0
C      1  0.4186860000000  0.5433490000000  0.4772970000000 1.0
C      1  0.5624860000000  0.5064630000000  0.5851900000000 1.0
C      1  0.5404060000000  0.5906590000000  0.4977100000000 1.0
C      1  0.5521330000000  0.5800880000000  0.5573590000000 1.0
C      1  0.5050960000000  0.5614590000000  0.4371520000000 1.0
C      1  0.4241910000000  0.5442300000000  0.5513240000000 1.0
C      1  0.5367170000000  0.5241830000000  0.4266530000000 1.0
C      1  0.4852460000000  0.4144840000000  0.5342620000000 1.0
C      1  0.5124340000000  0.5560600000000  0.5488680000000 1.0
C      1  0.5524810000000  0.4293560000000  0.4861430000000 1.0
C      1  0.4881660000000  0.5252910000000  0.4075090000000 1.0
C      1  0.4330320000000  0.5247270000000  0.5723530000000 1.0
C      1  0.4877520000000  0.4480330000000  0.5900440000000 1.0
C      1  0.4554320000000  0.4942130000000  0.4952420000000 1.0
C      1  0.4515520000000  0.5743490000000  0.4481640000000 1.0
C      1  0.4680050000000  0.4817720000000  0.4555520000000 1.0
C      1  0.4977260000000  0.5080540000000  0.4860050000000 1.0
C      1  0.5077600000000  0.4144060000000  0.5531220000000 1.0
C      1  0.5025100000000  0.4114600000000  0.4805620000000 1.0
C      1  0.5169630000000  0.5920220000000  0.5179570000000 1.0
C      1  0.4418920000000  0.5326270000000  0.4579080000000 1.0
C      1  0.4823630000000  0.4885290000000  0.5355090000000 1.0
C      1  0.5242660000000  0.5219990000000  0.5856900000000 1.0
C      1  0.5301750000000  0.5131730000000  0.4541280000000 1.0
C      1  0.5249050000000  0.5817050000000  0.5452200000000 1.0
C      1  0.5150160000000  0.4874650000000  0.4492330000000 1.0
C      1  0.4405530000000  0.5685140000000  0.5456420000000 1.0
C      1  0.5533900000000  0.4741380000000  0.4999340000000 1.0
C      1  0.4569820000000  0.4847390000000  0.4108850000000 1.0
C      1  0.5274990000000  0.5397030000000  0.5020030000000 1.0
C      1  0.4575140000000  0.5896400000000  0.4701660000000 1.0
C      1  0.5319130000000  0.5057170000000  0.5300760000000 1.0
C      1  0.5241280000000  0.4909720000000  0.5869920000000 1.0
C      1  0.5719840000000  0.4758430000000  0.4625690000000 1.0
C      1  0.5733910000000  0.5148190000000  0.5035730000000 1.0
C      1  0.5895880000000  0.5282280000000  0.4386530000000 1.0
C      1  0.4803080000000  0.4534900000000  0.4962710000000 1.0
C      1  0.5890540000000  0.5286210000000  0.5397320000000 1.0
C      1  0.5424110000000  0.5828000000000  0.4679430000000 1.0
C      1  0.5249840000000  0.4706230000000  0.5054290000000 1.0
C      1  0.5283310000000  0.4188910000000  0.4845310000000 1.0
C      1  0.5510200000000  0.4738720000000  0.4162420000000 1.0
C      1  0.4461310000000  0.5512430000000  0.4315600000000 1.0
C      1  0.5183070000000  0.4619230000000  0.5450210000000 1.0
C      1  0.5489400000000  0.5254130000000  0.5158970000000 1.0
C      1  0.4217090000000  0.4409970000000  0.4824900000000 1.0
C      1  0.4459920000000  0.5025280000000  0.4547830000000 1.0
C      1  0.4412670000000  0.4190900000000  0.4743440000000 1.0
C      1  0.6237390000000  0.4814370000000  0.4796210000000 1.0
C      1  0.4924670000000  0.4702400000000  0.5555240000000 1.0
C      1  0.5998540000000  0.4688950000000  0.4632880000000 1.0
C      1  0.4665860000000  0.5427550000000  0.4727930000000 1.0
C      1  0.4110830000000  0.5374720000000  0.5263510000000 1.0
C      1  0.4592210000000  0.4788050000000  0.5195200000000 1.0
C      1  0.5100980000000  0.4817840000000  0.4140660000000 1.0
C      1  0.5561660000000  0.4384220000000  0.5391190000000 1.0
C      1  0.4629630000000  0.4704590000000  0.4799600000000 1.0
C      1  0.5629900000000  0.5620660000000  0.4586900000000 1.0
C      1  0.5199850000000  0.5267450000000  0.4769470000000 1.0
C      1  0.4798240000000  0.5327350000000  0.5227390000000 1.0
C      1  0.4862710000000  0.5525840000000  0.4566000000000 1.0
C      1  0.3872520000000  0.5024870000000  0.4902860000000 1.0
C      1  0.5067000000000  0.5425780000000  0.5749120000000 1.0
C      1  0.5852020000000  0.4764440000000  0.5358990000000 1.0
C      1  0.5220970000000  0.5851440000000  0.4479670000000 1.0
C      1  0.5117760000000  0.5395350000000  0.4188560000000 1.0
C      1  0.4738950000000  0.5161940000000  0.5455880000000 1.0
C      1  0.5514360000000  0.4816420000000  0.5812130000000 1.0
C      1  0.4682200000000  0.4478360000000  0.4386140000000 1.0
C      1  0.5636520000000  0.4955040000000  0.4831780000000 1.0
C      1  0.4816590000000  0.4216320000000  0.5028150000000 1.0
C      1  0.4346130000000  0.4953630000000  0.4292370000000 1.0
C      1  0.4711480000000  0.5210850000000  0.4956350000000 1.0
C      1  0.5089520000000  0.4941280000000  0.5147630000000 1.0
C      1  0.4124330000000  0.4618430000000  0.4613600000000 1.0
C      1  0.4776790000000  0.5470920000000  0.5804690000000 1.0
C      1  0.5171530000000  0.4507190000000  0.4206920000000 1.0
C      1  0.5451220000000  0.4494790000000  0.4297780000000 1.0
C      1  0.4991830000000  0.4749070000000  0.5832020000000 1.0
C      1  0.5867050000000  0.5564680000000  0.4687990000000 1.0
C      1  0.4233810000000  0.5535880000000  0.5048660000000 1.0
C      1  0.4221420000000  0.4443600000000  0.5103400000000 1.0
C      1  0.5630970000000  0.4668470000000  0.5529100000000 1.0
C      1  0.6077880000000  0.5385880000000  0.4637330000000 1.0
C      1  0.4548940000000  0.4073100000000  0.4973720000000 1.0
C      1  0.4959860000000  0.4357010000000  0.4325280000000 1.0
C      1  0.5635910000000  0.5564390000000  0.5712180000000 1.0
C      1  0.5386140000000  0.4810790000000  0.5424730000000 1.0
C      1  0.5594880000000  0.5853260000000  0.5152800000000 1.0
C      1  0.4280710000000  0.4713770000000  0.5733590000000 1.0
C      1  0.4285110000000  0.4974560000000  0.5749990000000 1.0
C      1  0.6064900000000  0.4606130000000  0.4904560000000 1.0
C      1  0.4604540000000  0.5627180000000  0.5646240000000 1.0
C      1  0.5639160000000  0.5411540000000  0.4375070000000 1.0
C      1  0.5515010000000  0.4519800000000  0.4612560000000 1.0
C      1  0.4656810000000  0.5391940000000  0.4169120000000 1.0
C      1  0.5058540000000  0.5454250000000  0.5218250000000 1.0
C      1  0.5854660000000  0.5535700000000  0.5517900000000 1.0
C      1  0.4904430000000  0.4153410000000  0.4539540000000 1.0
C      1  0.4247420000000  0.4680880000000  0.4341730000000 1.0
C      1  0.5657910000000  0.4336910000000  0.5125750000000 1.0
C      1  0.4428620000000  0.5719270000000  0.5156520000000 1.0
C      1  0.5020610000000  0.4237970000000  0.5815450000000 1.0
C      1  0.4332570000000  0.4771480000000  0.5310000000000 1.0
C      1  0.3986970000000  0.4823450000000  0.4741720000000 1.0
C      1  0.5819000000000  0.4597170000000  0.5118050000000 1.0
C      1  0.4337630000000  0.4450010000000  0.5661930000000 1.0
C      1  0.3993140000000  0.5108130000000  0.5192500000000 1.0
C      1  0.4914710000000  0.4927430000000  0.4629100000000 1.0
C      1  0.4628270000000  0.5217470000000  0.5723290000000 1.0
C      1  0.4615340000000  0.4374280000000  0.5734970000000 1.0
C      1  0.5362640000000  0.4965570000000  0.4105760000000 1.0
C      1  0.4903480000000  0.5893660000000  0.5092470000000 1.0
C      1  0.4838470000000  0.4953120000000  0.4076920000000 1.0
C      1  0.5521070000000  0.5323400000000  0.5851450000000 1.0
C      1  0.4477460000000  0.4576510000000  0.4189410000000 1.0
C      1  0.4671440000000  0.4252180000000  0.5508720000000 1.0
C      1  0.4640310000000  0.5864660000000  0.5010930000000 1.0
C      1  0.5281290000000  0.4347980000000  0.5442070000000 1.0
C      1  0.5746370000000  0.5802240000000  0.5378970000000 1.0
C      1  0.4226590000000  0.4502120000000  0.5375500000000 1.0
C      1  0.4157660000000  0.4960090000000  0.5258870000000 1.0
C      1  0.4009130000000  0.5228030000000  0.4781640000000 1.0
C      1  0.4618890000000  0.4221610000000  0.4530350000000 1.0
C      1  0.5236370000000  0.4616250000000  0.4636830000000 1.0
C      1  0.5903950000000  0.5042170000000  0.5264390000000 1.0
END
