TITL C-4164239-2837-71 15.6712540502784 125000 -29929.7852569727 0 0 198 (C1) n - 1
REM
REM in /home/nfs/bkarasulu/CARBON/AIRSS/Generating-Clusters/ReaxFF-fromJPCA2015/Units_Real/with-SteepDescent/Only-C1/SD-CG/Try1-3A/FIRE-CG
REM
REM
REM
REM
REM
REM ./C.cell (11c1c37f851c82e70ff6c80c92926a4b)
REM
REM compiler GCC version 9.2.1 20190827 (Red Hat 9.2.1-1)
REM options -cpp -mtune=generic -march=x86-64 -g -O0 -fpre-include=/usr/include/finclude/math-vector-fortran.h
REM seed -1622870022 881633367 897202826 -643935354 1320527605 -1452396235 1432951981 1332658720 449632502 -1916536894 405331200 782513114 1953601771 -196451483 1441824468 1206991539 1150931002 1334755642 1480304422 1764966361 679743611 564182187 -1335725562 521662503 888436324 -1507371059 -96860188 -380266221 292117322 1362547221 2126387610 -174205013 -633469755
REM
CELL 1.54180   50.00000   50.00000   50.00000   90.00000   90.00000   90.00000
LATT -1
SFAC C  
C      1  0.4184620000000  0.4585210000000  0.5435950000000 1.0
C      1  0.4792360000000  0.4047800000000  0.5746570000000 1.0
C      1  0.4482890000000  0.5894530000000  0.4865510000000 1.0
C      1  0.5100150000000  0.6103410000000  0.5216580000000 1.0
C      1  0.4445600000000  0.4413750000000  0.4958890000000 1.0
C      1  0.5959970000000  0.5718360000000  0.4997900000000 1.0
C      1  0.4231520000000  0.4546010000000  0.5719960000000 1.0
C      1  0.5420480000000  0.4259990000000  0.4480410000000 1.0
C      1  0.4691900000000  0.5406470000000  0.3994210000000 1.0
C      1  0.4698550000000  0.4448610000000  0.5951510000000 1.0
C      1  0.5098390000000  0.4830200000000  0.5286280000000 1.0
C      1  0.5761400000000  0.5927640000000  0.4968950000000 1.0
C      1  0.5257800000000  0.5348120000000  0.5669050000000 1.0
C      1  0.6119180000000  0.5298580000000  0.4684460000000 1.0
C      1  0.3960100000000  0.5619160000000  0.4927720000000 1.0
C      1  0.4980300000000  0.4446020000000  0.3903820000000 1.0
C      1  0.5645420000000  0.5669510000000  0.4252360000000 1.0
C      1  0.5611470000000  0.4851670000000  0.4276950000000 1.0
C      1  0.5498840000000  0.4222030000000  0.5575910000000 1.0
C      1  0.4786910000000  0.4649680000000  0.4730490000000 1.0
C      1  0.4810350000000  0.5849240000000  0.5780980000000 1.0
C      1  0.5677580000000  0.5242920000000  0.4991290000000 1.0
C      1  0.5419950000000  0.3783100000000  0.4970120000000 1.0
C      1  0.4765330000000  0.5453320000000  0.4655450000000 1.0
C      1  0.6153880000000  0.5034780000000  0.4818310000000 1.0
C      1  0.4255550000000  0.5699030000000  0.4883260000000 1.0
C      1  0.5754490000000  0.5584620000000  0.5468050000000 1.0
C      1  0.4613640000000  0.4852900000000  0.4382120000000 1.0
C      1  0.5310010000000  0.4827280000000  0.5749050000000 1.0
C      1  0.5959380000000  0.5561080000000  0.5244390000000 1.0
C      1  0.5695290000000  0.5882660000000  0.5473040000000 1.0
C      1  0.4949780000000  0.5364690000000  0.5675620000000 1.0
C      1  0.5361100000000  0.6125190000000  0.4840860000000 1.0
C      1  0.5136150000000  0.5197060000000  0.4395610000000 1.0
C      1  0.4585820000000  0.4706810000000  0.4131150000000 1.0
C      1  0.4847820000000  0.4804900000000  0.4513830000000 1.0
C      1  0.4599670000000  0.5236420000000  0.5366830000000 1.0
C      1  0.5202070000000  0.4161110000000  0.5151210000000 1.0
C      1  0.4860870000000  0.4680410000000  0.4016740000000 1.0
C      1  0.5668030000000  0.5350710000000  0.5929860000000 1.0
C      1  0.3783730000000  0.4327500000000  0.5180710000000 1.0
C      1  0.4080860000000  0.4367140000000  0.4642740000000 1.0
C      1  0.5939250000000  0.4585030000000  0.4519360000000 1.0
C      1  0.5313440000000  0.4614440000000  0.4817310000000 1.0
C      1  0.4967310000000  0.4861750000000  0.6134520000000 1.0
C      1  0.4411920000000  0.4448360000000  0.4267160000000 1.0
C      1  0.5552810000000  0.4369670000000  0.4270380000000 1.0
C      1  0.4475460000000  0.5254770000000  0.4874160000000 1.0
C      1  0.5230500000000  0.4406810000000  0.4630630000000 1.0
C      1  0.5157970000000  0.4834420000000  0.4022530000000 1.0
C      1  0.5381360000000  0.3990820000000  0.4530680000000 1.0
C      1  0.4726690000000  0.4202300000000  0.4328540000000 1.0
C      1  0.3954180000000  0.5006330000000  0.5189570000000 1.0
C      1  0.5713410000000  0.4312040000000  0.5399480000000 1.0
C      1  0.6037970000000  0.4846520000000  0.4609350000000 1.0
C      1  0.5389050000000  0.5338860000000  0.4389140000000 1.0
C      1  0.5087580000000  0.5923380000000  0.5910400000000 1.0
C      1  0.4939660000000  0.3828590000000  0.4803170000000 1.0
C      1  0.4977430000000  0.5890300000000  0.4647430000000 1.0
C      1  0.5272440000000  0.4878700000000  0.4765520000000 1.0
C      1  0.5168390000000  0.4389270000000  0.5839600000000 1.0
C      1  0.5316320000000  0.4853070000000  0.4264480000000 1.0
C      1  0.4788070000000  0.5719130000000  0.4814630000000 1.0
C      1  0.5245180000000  0.4835220000000  0.6048940000000 1.0
C      1  0.5211120000000  0.5371880000000  0.4774480000000 1.0
C      1  0.4419300000000  0.4744500000000  0.5368500000000 1.0
C      1  0.4006380000000  0.5373680000000  0.4754140000000 1.0
C      1  0.4158410000000  0.4482900000000  0.4393580000000 1.0
C      1  0.4420740000000  0.4936800000000  0.3980260000000 1.0
C      1  0.5378570000000  0.4446410000000  0.5063130000000 1.0
C      1  0.3975370000000  0.5132200000000  0.5438280000000 1.0
C      1  0.4261830000000  0.4149490000000  0.4628110000000 1.0
C      1  0.4546510000000  0.5611800000000  0.4460050000000 1.0
C      1  0.5938350000000  0.4361330000000  0.4717460000000 1.0
C      1  0.4385030000000  0.3987030000000  0.4840290000000 1.0
C      1  0.5619080000000  0.5827920000000  0.4482130000000 1.0
C      1  0.4883040000000  0.3949180000000  0.5497930000000 1.0
C      1  0.5068110000000  0.6122650000000  0.4793350000000 1.0
C      1  0.5597180000000  0.5978740000000  0.4723810000000 1.0
C      1  0.5822730000000  0.5358450000000  0.5692540000000 1.0
C      1  0.5634850000000  0.6020290000000  0.5219390000000 1.0
C      1  0.4534290000000  0.4070880000000  0.5319120000000 1.0
C      1  0.4662000000000  0.4672840000000  0.5510300000000 1.0
C      1  0.5232850000000  0.5258870000000  0.6173870000000 1.0
C      1  0.4579600000000  0.5163880000000  0.3964800000000 1.0
C      1  0.5966880000000  0.5262280000000  0.4441260000000 1.0
C      1  0.4462830000000  0.5509410000000  0.4195120000000 1.0
C      1  0.5777460000000  0.4904270000000  0.5833120000000 1.0
C      1  0.4253920000000  0.4606840000000  0.4923380000000 1.0
C      1  0.4381840000000  0.4153300000000  0.5082360000000 1.0
C      1  0.3986050000000  0.4555140000000  0.4907280000000 1.0
C      1  0.3861800000000  0.5421550000000  0.5437610000000 1.0
C      1  0.4694700000000  0.5296970000000  0.6178470000000 1.0
C      1  0.6141370000000  0.5076060000000  0.5109790000000 1.0
C      1  0.5221980000000  0.5391910000000  0.3951490000000 1.0
C      1  0.4613940000000  0.6073650000000  0.5068490000000 1.0
C      1  0.5843880000000  0.4499300000000  0.4965270000000 1.0
C      1  0.4851020000000  0.4488250000000  0.5414690000000 1.0
C      1  0.4224270000000  0.5768400000000  0.5486610000000 1.0
C      1  0.5418420000000  0.5500930000000  0.4156320000000 1.0
C      1  0.4771230000000  0.4727980000000  0.5969730000000 1.0
C      1  0.4233750000000  0.5352510000000  0.4203310000000 1.0
C      1  0.4313090000000  0.4847010000000  0.4802580000000 1.0
C      1  0.5249850000000  0.4183000000000  0.5431600000000 1.0
C      1  0.4160310000000  0.5072310000000  0.5668230000000 1.0
C      1  0.5796110000000  0.5005170000000  0.4526420000000 1.0
C      1  0.5444600000000  0.5229840000000  0.5174180000000 1.0
C      1  0.5963230000000  0.5540750000000  0.4761570000000 1.0
C      1  0.4950880000000  0.4238390000000  0.5036550000000 1.0
C      1  0.4522220000000  0.4293390000000  0.4474080000000 1.0
C      1  0.5245670000000  0.4578470000000  0.3895210000000 1.0
C      1  0.4438560000000  0.5017390000000  0.5256120000000 1.0
C      1  0.6081600000000  0.4684440000000  0.5451490000000 1.0
C      1  0.4150740000000  0.4953300000000  0.4089330000000 1.0
C      1  0.3934090000000  0.4891500000000  0.4937900000000 1.0
C      1  0.5704660000000  0.4985100000000  0.4816940000000 1.0
C      1  0.5367540000000  0.5446570000000  0.5961680000000 1.0
C      1  0.5608470000000  0.4798420000000  0.5273900000000 1.0
C      1  0.4748670000000  0.5548060000000  0.5782220000000 1.0
C      1  0.5073780000000  0.4363620000000  0.5559710000000 1.0
C      1  0.5685100000000  0.5461270000000  0.4804770000000 1.0
C      1  0.4613810000000  0.4437710000000  0.4724120000000 1.0
C      1  0.5039070000000  0.4228350000000  0.4737180000000 1.0
C      1  0.4010220000000  0.5186460000000  0.4208970000000 1.0
C      1  0.5906390000000  0.5086490000000  0.5644790000000 1.0
C      1  0.5727050000000  0.4589170000000  0.4325790000000 1.0
C      1  0.4743750000000  0.5229370000000  0.4857270000000 1.0
C      1  0.4299020000000  0.4991070000000  0.6060930000000 1.0
C      1  0.5210410000000  0.5118800000000  0.4943360000000 1.0
C      1  0.4437330000000  0.5734250000000  0.5335450000000 1.0
C      1  0.4537890000000  0.5070580000000  0.6187850000000 1.0
C      1  0.4540650000000  0.5405390000000  0.5940480000000 1.0
C      1  0.4202410000000  0.4825390000000  0.5816230000000 1.0
C      1  0.5772890000000  0.4134120000000  0.4761080000000 1.0
C      1  0.3873880000000  0.5541410000000  0.5184230000000 1.0
C      1  0.4456420000000  0.5877010000000  0.4541110000000 1.0
C      1  0.4817710000000  0.6023190000000  0.4172480000000 1.0
C      1  0.4885300000000  0.6170260000000  0.5031010000000 1.0
C      1  0.5381140000000  0.5087100000000  0.5612560000000 1.0
C      1  0.4762580000000  0.5165720000000  0.5587620000000 1.0
C      1  0.5820760000000  0.5257940000000  0.4047510000000 1.0
C      1  0.5746470000000  0.4776150000000  0.4992490000000 1.0
C      1  0.5360640000000  0.4358160000000  0.4054270000000 1.0
C      1  0.6082660000000  0.4966070000000  0.5405980000000 1.0
C      1  0.4954290000000  0.4092310000000  0.4282470000000 1.0
C      1  0.5374300000000  0.6147130000000  0.5125720000000 1.0
C      1  0.5070920000000  0.4807360000000  0.5562090000000 1.0
C      1  0.3909700000000  0.5096020000000  0.4718460000000 1.0
C      1  0.4963320000000  0.5525350000000  0.3989390000000 1.0
C      1  0.4288430000000  0.5443100000000  0.4749330000000 1.0
C      1  0.5424540000000  0.5472100000000  0.5391680000000 1.0
C      1  0.4620680000000  0.5513080000000  0.5249490000000 1.0
C      1  0.5144490000000  0.4914010000000  0.4491580000000 1.0
C      1  0.5623640000000  0.4649050000000  0.5753330000000 1.0
C      1  0.4598200000000  0.5998630000000  0.4335930000000 1.0
C      1  0.5414630000000  0.5032930000000  0.6177320000000 1.0
C      1  0.4658900000000  0.3868130000000  0.4813510000000 1.0
C      1  0.4795010000000  0.4856520000000  0.5682550000000 1.0
C      1  0.5676000000000  0.5081590000000  0.6038620000000 1.0
C      1  0.4009690000000  0.5640000000000  0.5547310000000 1.0
C      1  0.5025480000000  0.5400440000000  0.4559480000000 1.0
C      1  0.5779170000000  0.4589780000000  0.5490810000000 1.0
C      1  0.4368730000000  0.5047110000000  0.4991450000000 1.0
C      1  0.5717950000000  0.4998380000000  0.4014890000000 1.0
C      1  0.4520640000000  0.6024520000000  0.5352730000000 1.0
C      1  0.4831540000000  0.5643620000000  0.5099510000000 1.0
C      1  0.5572970000000  0.3928810000000  0.4739330000000 1.0
C      1  0.4538120000000  0.4139100000000  0.5623270000000 1.0
C      1  0.5662050000000  0.4324500000000  0.5115060000000 1.0
C      1  0.5236340000000  0.5636530000000  0.5321800000000 1.0
C      1  0.4921400000000  0.4254210000000  0.5927730000000 1.0
C      1  0.4463480000000  0.4369220000000  0.5782270000000 1.0
C      1  0.4376630000000  0.4878170000000  0.4516380000000 1.0
C      1  0.5101150000000  0.4222720000000  0.4064030000000 1.0
C      1  0.5337330000000  0.4685410000000  0.5230200000000 1.0
C      1  0.3992000000000  0.4464300000000  0.5214800000000 1.0
C      1  0.5505210000000  0.5046500000000  0.5365360000000 1.0
C      1  0.5508510000000  0.5102790000000  0.3856250000000 1.0
C      1  0.5231670000000  0.5106810000000  0.3868990000000 1.0
C      1  0.4806900000000  0.4002130000000  0.5233340000000 1.0
C      1  0.5295800000000  0.5748160000000  0.5983030000000 1.0
C      1  0.5085310000000  0.3985350000000  0.4564580000000 1.0
C      1  0.4917480000000  0.5044740000000  0.5005890000000 1.0
C      1  0.4299980000000  0.5234170000000  0.5884410000000 1.0
C      1  0.5046760000000  0.5801600000000  0.5249480000000 1.0
C      1  0.5153630000000  0.3873640000000  0.5029160000000 1.0
C      1  0.5952090000000  0.5281880000000  0.5168830000000 1.0
C      1  0.5460280000000  0.4398860000000  0.5805640000000 1.0
C      1  0.4998640000000  0.5794600000000  0.4096970000000 1.0
C      1  0.5448550000000  0.5460510000000  0.4651520000000 1.0
C      1  0.4879510000000  0.4505300000000  0.5137540000000 1.0
C      1  0.3927440000000  0.5017140000000  0.4442230000000 1.0
C      1  0.4846230000000  0.4752980000000  0.4991120000000 1.0
C      1  0.4961400000000  0.5158390000000  0.6195590000000 1.0
C      1  0.5876580000000  0.5456760000000  0.4237200000000 1.0
C      1  0.4131610000000  0.4812860000000  0.4361130000000 1.0
C      1  0.5032420000000  0.5916170000000  0.4360710000000 1.0
C      1  0.4688440000000  0.5976500000000  0.5579730000000 1.0
END
