TITL C-4164247-2821-467 20.4459161459319 125000 -30212.778231994 0 0 200 (C1) n - 1
REM
REM in /home/nfs/bkarasulu/CARBON/AIRSS/Generating-Clusters/ReaxFF-fromJPCA2015/Units_Real/with-SteepDescent/Only-C1/SD-CG/Try1-3A/FIRE-CG
REM
REM
REM
REM
REM
REM ./C.cell (11c1c37f851c82e70ff6c80c92926a4b)
REM
REM compiler GCC version 9.2.1 20190827 (Red Hat 9.2.1-1)
REM options -cpp -mtune=generic -march=x86-64 -g -O0 -fpre-include=/usr/include/finclude/math-vector-fortran.h
REM seed 7915025 355233902 1977903608 710332571 -1435944372 -506610219 -1084220928 1318120554 -73409431 782036833 -838280270 -1319580114 -1920833259 218668272 -542469489 -1826379336 578313472 1410084690 965949105 -571604960 -138394018 216107340 374590631 1847253479 -1176326155 -947475580 -963058805 850145131 1431619685 2067815501 -1180989167 925837272 -1736190899
REM
CELL 1.54180   50.00000   50.00000   50.00000   90.00000   90.00000   90.00000
LATT -1
SFAC C  
C      1  0.5151780000000  0.5650210000000  0.5180760000000 1.0
C      1  0.4487630000000  0.4891230000000  0.4765570000000 1.0
C      1  0.4254870000000  0.5826720000000  0.5213990000000 1.0
C      1  0.4781190000000  0.6037820000000  0.4433140000000 1.0
C      1  0.5482580000000  0.5808000000000  0.4128330000000 1.0
C      1  0.4448230000000  0.5905760000000  0.4982500000000 1.0
C      1  0.4440830000000  0.4115620000000  0.5291110000000 1.0
C      1  0.5154530000000  0.4140780000000  0.4838430000000 1.0
C      1  0.4571320000000  0.5999390000000  0.4528760000000 1.0
C      1  0.6225800000000  0.4714410000000  0.4473770000000 1.0
C      1  0.6098940000000  0.4833850000000  0.4935810000000 1.0
C      1  0.6005420000000  0.4564020000000  0.4882990000000 1.0
C      1  0.5125290000000  0.3896450000000  0.4509520000000 1.0
C      1  0.4998020000000  0.4841550000000  0.5508420000000 1.0
C      1  0.4561770000000  0.4856790000000  0.3864330000000 1.0
C      1  0.4210760000000  0.5689100000000  0.4531550000000 1.0
C      1  0.5127180000000  0.4518080000000  0.3941560000000 1.0
C      1  0.4088060000000  0.5596560000000  0.5169490000000 1.0
C      1  0.4280290000000  0.5262370000000  0.5976250000000 1.0
C      1  0.5596250000000  0.5508910000000  0.5821430000000 1.0
C      1  0.4950760000000  0.5766090000000  0.5352080000000 1.0
C      1  0.5780490000000  0.5556260000000  0.4790250000000 1.0
C      1  0.4598600000000  0.4011410000000  0.4426140000000 1.0
C      1  0.5540290000000  0.4923000000000  0.4728960000000 1.0
C      1  0.5797730000000  0.4784880000000  0.4226970000000 1.0
C      1  0.5058940000000  0.4163600000000  0.5816040000000 1.0
C      1  0.5440590000000  0.4674970000000  0.5479780000000 1.0
C      1  0.4948310000000  0.5034960000000  0.4661560000000 1.0
C      1  0.4495940000000  0.4318020000000  0.5709000000000 1.0
C      1  0.5379050000000  0.5531940000000  0.5310250000000 1.0
C      1  0.4096620000000  0.4551960000000  0.4764000000000 1.0
C      1  0.5074250000000  0.4545920000000  0.4550450000000 1.0
C      1  0.3943880000000  0.5527330000000  0.4554980000000 1.0
C      1  0.4125140000000  0.4686170000000  0.5669970000000 1.0
C      1  0.4714170000000  0.5101000000000  0.3832740000000 1.0
C      1  0.4569630000000  0.5401660000000  0.5466710000000 1.0
C      1  0.4611470000000  0.5926100000000  0.5518370000000 1.0
C      1  0.5000170000000  0.5078900000000  0.3881520000000 1.0
C      1  0.4846510000000  0.5720850000000  0.4875700000000 1.0
C      1  0.4573970000000  0.4721480000000  0.5281090000000 1.0
C      1  0.5578550000000  0.5682260000000  0.4378620000000 1.0
C      1  0.5332770000000  0.3855930000000  0.5332220000000 1.0
C      1  0.3795020000000  0.5324260000000  0.5046380000000 1.0
C      1  0.5374340000000  0.5130530000000  0.5525420000000 1.0
C      1  0.5608880000000  0.4474760000000  0.5607290000000 1.0
C      1  0.4125840000000  0.4864740000000  0.4385760000000 1.0
C      1  0.5200950000000  0.4583830000000  0.5916490000000 1.0
C      1  0.4546690000000  0.5249470000000  0.4026240000000 1.0
C      1  0.4275990000000  0.5141850000000  0.4040680000000 1.0
C      1  0.4924420000000  0.4117310000000  0.5540830000000 1.0
C      1  0.3812730000000  0.5475690000000  0.4800150000000 1.0
C      1  0.5430030000000  0.5319660000000  0.5974840000000 1.0
C      1  0.5192570000000  0.5833670000000  0.4133010000000 1.0
C      1  0.4231370000000  0.4732820000000  0.5945030000000 1.0
C      1  0.4752910000000  0.5105300000000  0.6135560000000 1.0
C      1  0.4566630000000  0.5318860000000  0.6078540000000 1.0
C      1  0.4698200000000  0.4726510000000  0.4364940000000 1.0
C      1  0.4998570000000  0.3813080000000  0.5090060000000 1.0
C      1  0.4168450000000  0.5120150000000  0.4303910000000 1.0
C      1  0.4973410000000  0.5804200000000  0.5640950000000 1.0
C      1  0.4479390000000  0.5130500000000  0.5479270000000 1.0
C      1  0.5622080000000  0.5939280000000  0.5408820000000 1.0
C      1  0.5749450000000  0.5192090000000  0.4112050000000 1.0
C      1  0.5651830000000  0.5815610000000  0.4618730000000 1.0
C      1  0.4827290000000  0.5365910000000  0.5345960000000 1.0
C      1  0.5494740000000  0.5787910000000  0.5786980000000 1.0
C      1  0.6010740000000  0.4696550000000  0.5559580000000 1.0
C      1  0.4170770000000  0.4149950000000  0.4900120000000 1.0
C      1  0.5324960000000  0.4879700000000  0.4093780000000 1.0
C      1  0.4611290000000  0.4454940000000  0.4568600000000 1.0
C      1  0.5360780000000  0.5136730000000  0.4817210000000 1.0
C      1  0.4008910000000  0.5132940000000  0.4671060000000 1.0
C      1  0.5467930000000  0.5022390000000  0.5989870000000 1.0
C      1  0.4532510000000  0.5566840000000  0.5701560000000 1.0
C      1  0.5552850000000  0.4633220000000  0.4717850000000 1.0
C      1  0.4961410000000  0.5521190000000  0.5826150000000 1.0
C      1  0.5226030000000  0.6059890000000  0.5112750000000 1.0
C      1  0.4290830000000  0.4864330000000  0.3958230000000 1.0
C      1  0.4879700000000  0.5196090000000  0.5114930000000 1.0
C      1  0.5760680000000  0.5092170000000  0.4786550000000 1.0
C      1  0.4596700000000  0.4402370000000  0.4005490000000 1.0
C      1  0.4465410000000  0.5393450000000  0.4922640000000 1.0
C      1  0.4456290000000  0.4142100000000  0.4991370000000 1.0
C      1  0.5402720000000  0.5452290000000  0.4489530000000 1.0
C      1  0.5152050000000  0.5362110000000  0.6019710000000 1.0
C      1  0.5235590000000  0.4874010000000  0.6039150000000 1.0
C      1  0.5545940000000  0.4684710000000  0.4110010000000 1.0
C      1  0.5163440000000  0.5600920000000  0.3956880000000 1.0
C      1  0.5750160000000  0.4175630000000  0.5152410000000 1.0
C      1  0.5794990000000  0.4634230000000  0.5756300000000 1.0
C      1  0.4845990000000  0.4987310000000  0.4381360000000 1.0
C      1  0.6063370000000  0.5165670000000  0.4522900000000 1.0
C      1  0.5713270000000  0.5973580000000  0.5696270000000 1.0
C      1  0.5627970000000  0.3995310000000  0.4940500000000 1.0
C      1  0.5428210000000  0.4259210000000  0.4301360000000 1.0
C      1  0.5825250000000  0.4540480000000  0.4668070000000 1.0
C      1  0.4215770000000  0.5006120000000  0.5936040000000 1.0
C      1  0.4238930000000  0.4780340000000  0.4647800000000 1.0
C      1  0.4386810000000  0.4255920000000  0.4432190000000 1.0
C      1  0.5704020000000  0.4918000000000  0.5809040000000 1.0
C      1  0.4565010000000  0.4947000000000  0.5682340000000 1.0
C      1  0.5334820000000  0.6030360000000  0.5379330000000 1.0
C      1  0.5116630000000  0.5317470000000  0.4033960000000 1.0
C      1  0.4509080000000  0.4649870000000  0.6039930000000 1.0
C      1  0.5566350000000  0.4935360000000  0.5497660000000 1.0
C      1  0.6029240000000  0.5416510000000  0.4664830000000 1.0
C      1  0.5899640000000  0.5022850000000  0.5033220000000 1.0
C      1  0.5374960000000  0.4551800000000  0.4981840000000 1.0
C      1  0.4699550000000  0.5485140000000  0.4442450000000 1.0
C      1  0.5617020000000  0.5374660000000  0.3990420000000 1.0
C      1  0.5448130000000  0.4420820000000  0.5856750000000 1.0
C      1  0.4873460000000  0.4364980000000  0.4467910000000 1.0
C      1  0.4164100000000  0.4295170000000  0.4651300000000 1.0
C      1  0.5211200000000  0.4726380000000  0.5081650000000 1.0
C      1  0.5039480000000  0.3868900000000  0.5355920000000 1.0
C      1  0.4715290000000  0.4767210000000  0.5523370000000 1.0
C      1  0.5408440000000  0.3849010000000  0.5047310000000 1.0
C      1  0.4976220000000  0.4757350000000  0.4721470000000 1.0
C      1  0.6022510000000  0.4992120000000  0.5503980000000 1.0
C      1  0.5821020000000  0.5096900000000  0.5309630000000 1.0
C      1  0.4595470000000  0.5645330000000  0.4959820000000 1.0
C      1  0.4784190000000  0.6025770000000  0.5316270000000 1.0
C      1  0.4875010000000  0.5242660000000  0.4841930000000 1.0
C      1  0.5284760000000  0.5125210000000  0.5094710000000 1.0
C      1  0.3998470000000  0.4753880000000  0.5265120000000 1.0
C      1  0.5052610000000  0.5103630000000  0.6103310000000 1.0
C      1  0.4717540000000  0.4548960000000  0.5075070000000 1.0
C      1  0.5052720000000  0.6000970000000  0.4359530000000 1.0
C      1  0.5133060000000  0.4819150000000  0.3884990000000 1.0
C      1  0.4015090000000  0.5150810000000  0.4945670000000 1.0
C      1  0.5467620000000  0.4031170000000  0.5537680000000 1.0
C      1  0.5150270000000  0.6042930000000  0.4621300000000 1.0
C      1  0.3906900000000  0.5402460000000  0.5311520000000 1.0
C      1  0.4954470000000  0.4412390000000  0.5186950000000 1.0
C      1  0.5821750000000  0.5398250000000  0.5665730000000 1.0
C      1  0.4663850000000  0.4432250000000  0.5929600000000 1.0
C      1  0.5912510000000  0.5132290000000  0.5733630000000 1.0
C      1  0.5246680000000  0.5895500000000  0.5629900000000 1.0
C      1  0.5656610000000  0.4193220000000  0.5416080000000 1.0
C      1  0.5171640000000  0.4609500000000  0.5569230000000 1.0
C      1  0.4960100000000  0.5328190000000  0.5597020000000 1.0
C      1  0.4919290000000  0.5510160000000  0.4696680000000 1.0
C      1  0.5836650000000  0.5426120000000  0.5364590000000 1.0
C      1  0.5463670000000  0.5597740000000  0.3912850000000 1.0
C      1  0.6193200000000  0.5475350000000  0.4922900000000 1.0
C      1  0.5943470000000  0.5552440000000  0.5054460000000 1.0
C      1  0.5576130000000  0.4059200000000  0.4649410000000 1.0
C      1  0.4613050000000  0.4141350000000  0.5519210000000 1.0
C      1  0.5185910000000  0.4323330000000  0.5049100000000 1.0
C      1  0.4958520000000  0.4395580000000  0.5949540000000 1.0
C      1  0.5644820000000  0.5649850000000  0.5318400000000 1.0
C      1  0.4440100000000  0.5562210000000  0.4455410000000 1.0
C      1  0.4347510000000  0.5914260000000  0.4666860000000 1.0
C      1  0.4035830000000  0.4288790000000  0.5126780000000 1.0
C      1  0.5383740000000  0.5265120000000  0.5300250000000 1.0
C      1  0.4132200000000  0.5375950000000  0.5731550000000 1.0
C      1  0.4240920000000  0.4425110000000  0.5598900000000 1.0
C      1  0.4627720000000  0.4905020000000  0.5964280000000 1.0
C      1  0.4480090000000  0.4985830000000  0.5231920000000 1.0
C      1  0.5440820000000  0.6019720000000  0.4662810000000 1.0
C      1  0.5440390000000  0.5954860000000  0.4949710000000 1.0
C      1  0.4878730000000  0.4395200000000  0.3966360000000 1.0
C      1  0.4635150000000  0.4693270000000  0.4094310000000 1.0
C      1  0.5150770000000  0.3831790000000  0.4844030000000 1.0
C      1  0.5172150000000  0.4993130000000  0.4320610000000 1.0
C      1  0.4197270000000  0.5382810000000  0.4996210000000 1.0
C      1  0.4351110000000  0.4415170000000  0.4176800000000 1.0
C      1  0.6011990000000  0.4627930000000  0.5287180000000 1.0
C      1  0.3985730000000  0.4565280000000  0.5054670000000 1.0
C      1  0.4724850000000  0.4736180000000  0.4844850000000 1.0
C      1  0.5346720000000  0.4161720000000  0.5782110000000 1.0
C      1  0.5206400000000  0.5570010000000  0.4675030000000 1.0
C      1  0.4001860000000  0.5221970000000  0.5517390000000 1.0
C      1  0.4190480000000  0.4249160000000  0.5370790000000 1.0
C      1  0.5386190000000  0.3990460000000  0.4420410000000 1.0
C      1  0.4220640000000  0.4674930000000  0.4171230000000 1.0
C      1  0.4251870000000  0.5642250000000  0.5695410000000 1.0
C      1  0.5354650000000  0.4474550000000  0.4527920000000 1.0
C      1  0.4709780000000  0.6070950000000  0.5033910000000 1.0
C      1  0.5050210000000  0.4948700000000  0.5185260000000 1.0
C      1  0.4492790000000  0.5105440000000  0.4967750000000 1.0
C      1  0.4020300000000  0.4908190000000  0.5486500000000 1.0
C      1  0.5376180000000  0.4256370000000  0.4707560000000 1.0
C      1  0.5948220000000  0.4609780000000  0.4416220000000 1.0
C      1  0.5593360000000  0.5324370000000  0.4754010000000 1.0
C      1  0.5898090000000  0.5058660000000  0.4282320000000 1.0
C      1  0.5111340000000  0.5086660000000  0.5623150000000 1.0
C      1  0.4968180000000  0.6001440000000  0.4908320000000 1.0
C      1  0.4685840000000  0.5254590000000  0.4281860000000 1.0
C      1  0.6187550000000  0.4938510000000  0.4668750000000 1.0
C      1  0.5250770000000  0.5267150000000  0.4284190000000 1.0
C      1  0.4331170000000  0.5857130000000  0.5493240000000 1.0
C      1  0.5029110000000  0.4382860000000  0.5452700000000 1.0
C      1  0.4594100000000  0.4353840000000  0.4856920000000 1.0
C      1  0.5939620000000  0.4414570000000  0.5121610000000 1.0
C      1  0.4875600000000  0.4048570000000  0.4433200000000 1.0
C      1  0.4692790000000  0.5526190000000  0.5936230000000 1.0
C      1  0.5392310000000  0.4434280000000  0.4074820000000 1.0
C      1  0.3966530000000  0.5236020000000  0.4436110000000 1.0
C      1  0.5279450000000  0.5696520000000  0.4923850000000 1.0
END
