TITL C-4164237-1827-95 -1.62087021695448e-08 125000 -1428.73140239958 0 0 11 (C1) n - 1
REM
REM in /home/nfs/bkarasulu/CARBON/AIRSS/Generating-Clusters/ReaxFF-fromJPCA2015/Units_Real/with-SteepDescent/Only-C1/SD-CG/Try1-3A/FIRE-CG
REM
REM
REM
REM
REM
REM ./C.cell (11c1c37f851c82e70ff6c80c92926a4b)
REM
REM compiler GCC version 9.2.1 20190827 (Red Hat 9.2.1-1)
REM options -cpp -mtune=generic -march=x86-64 -g -O0 -fpre-include=/usr/include/finclude/math-vector-fortran.h
REM seed -1508920123 -233875789 -1115924493 -1288273170 -1089664154 -224472163 1159435435 -841211994 -2065172616 1153096486 -1868449380 -1988307606 263152583 -1925028007 -1297414170 -1334786706 843156751 -1953096067 370496106 -427925081 1732476414 1861609420 -1939408452 -1926449999 -2005157000 -25259965 1644910030 -1224971010 -1166379167 1520994817 -361446274 -40418830 1859328781
REM
CELL 1.54180   50.00000   50.00000   50.00000   90.00000   90.00000   90.00000
LATT -1
SFAC C  
C      1  0.5299760000000  0.5081050000000  0.5218720000000 1.0
C      1  0.4957180000000  0.5309440000000  0.4631290000000 1.0
C      1  0.5350430000000  0.5086040000000  0.4929140000000 1.0
C      1  0.4884670000000  0.5330020000000  0.4900510000000 1.0
C      1  0.4780910000000  0.4469830000000  0.4940820000000 1.0
C      1  0.5011810000000  0.5072510000000  0.5318580000000 1.0
C      1  0.4980870000000  0.4800180000000  0.4776680000000 1.0
C      1  0.4872530000000  0.4678940000000  0.5044410000000 1.0
C      1  0.4887580000000  0.4820670000000  0.5338080000000 1.0
C      1  0.5128910000000  0.5043340000000  0.4725420000000 1.0
C      1  0.4845340000000  0.5307990000000  0.5176350000000 1.0
END
