TITL C-4164237-1827-93 5.79332119630489 125000 -12476.9493389761 0 0 83 (C1) n - 1
REM
REM in /home/nfs/bkarasulu/CARBON/AIRSS/Generating-Clusters/ReaxFF-fromJPCA2015/Units_Real/with-SteepDescent/Only-C1/SD-CG/Try1-3A/FIRE-CG
REM
REM
REM
REM
REM
REM ./C.cell (11c1c37f851c82e70ff6c80c92926a4b)
REM
REM compiler GCC version 9.2.1 20190827 (Red Hat 9.2.1-1)
REM options -cpp -mtune=generic -march=x86-64 -g -O0 -fpre-include=/usr/include/finclude/math-vector-fortran.h
REM seed -1132623124 -1582952859 -1381855262 2049003730 865356973 392327724 -150192848 871828439 -1768302615 1433701617 -1174435119 -838642879 -1426617369 649240097 714036539 -427933688 1884481528 1419630220 1599870439 1133332027 1836888007 -1190760358 -972713786 -714008440 660606937 884431164 -1689820614 786515472 976680272 1732507629 -1835660294 -865645908 2014519044
REM
CELL 1.54180   50.00000   50.00000   50.00000   90.00000   90.00000   90.00000
LATT -1
SFAC C  
C      1  0.5092490000000  0.5071800000000  0.4716770000000 1.0
C      1  0.4465350000000  0.4818720000000  0.4288220000000 1.0
C      1  0.4872770000000  0.4384060000000  0.4816640000000 1.0
C      1  0.5592360000000  0.4892350000000  0.5419330000000 1.0
C      1  0.4970490000000  0.4439650000000  0.4372330000000 1.0
C      1  0.5787970000000  0.5191760000000  0.5109700000000 1.0
C      1  0.5255250000000  0.4878760000000  0.4243600000000 1.0
C      1  0.4606930000000  0.5082030000000  0.4361270000000 1.0
C      1  0.4904240000000  0.5187510000000  0.5350400000000 1.0
C      1  0.4274250000000  0.5319940000000  0.4940400000000 1.0
C      1  0.4445590000000  0.5557140000000  0.4916620000000 1.0
C      1  0.4560050000000  0.5497920000000  0.5189460000000 1.0
C      1  0.4972190000000  0.4827590000000  0.4627390000000 1.0
C      1  0.5208730000000  0.5162580000000  0.5338720000000 1.0
C      1  0.4541310000000  0.5309560000000  0.5800120000000 1.0
C      1  0.4452930000000  0.4615730000000  0.5409120000000 1.0
C      1  0.4653980000000  0.5154680000000  0.4076640000000 1.0
C      1  0.5244860000000  0.4345030000000  0.4443150000000 1.0
C      1  0.4287220000000  0.5073780000000  0.5372410000000 1.0
C      1  0.4852400000000  0.4678380000000  0.4835070000000 1.0
C      1  0.5845800000000  0.4969280000000  0.5294920000000 1.0
C      1  0.5324830000000  0.4907070000000  0.5284720000000 1.0
C      1  0.4520850000000  0.4390790000000  0.5213130000000 1.0
C      1  0.4890730000000  0.4805440000000  0.5072810000000 1.0
C      1  0.5345240000000  0.5170260000000  0.4259480000000 1.0
C      1  0.5600220000000  0.5398050000000  0.5212780000000 1.0
C      1  0.4957230000000  0.5514720000000  0.4331550000000 1.0
C      1  0.4263530000000  0.4705270000000  0.4993020000000 1.0
C      1  0.5166590000000  0.4578680000000  0.5647210000000 1.0
C      1  0.5192650000000  0.5515100000000  0.5580630000000 1.0
C      1  0.4804680000000  0.5361880000000  0.4145790000000 1.0
C      1  0.4925310000000  0.5211810000000  0.4873130000000 1.0
C      1  0.4415120000000  0.4920760000000  0.4024740000000 1.0
C      1  0.4820900000000  0.5204440000000  0.5794180000000 1.0
C      1  0.5508250000000  0.4967720000000  0.5883530000000 1.0
C      1  0.5370330000000  0.5596850000000  0.4546340000000 1.0
C      1  0.4449270000000  0.5217980000000  0.5166130000000 1.0
C      1  0.4258840000000  0.5139610000000  0.4709470000000 1.0
C      1  0.5669830000000  0.4564690000000  0.5069020000000 1.0
C      1  0.5129550000000  0.4716690000000  0.5186860000000 1.0
C      1  0.4416380000000  0.4467520000000  0.4941260000000 1.0
C      1  0.5140350000000  0.5820220000000  0.5176770000000 1.0
C      1  0.4830570000000  0.4957530000000  0.5613610000000 1.0
C      1  0.4451540000000  0.5265470000000  0.4536170000000 1.0
C      1  0.5575110000000  0.4891390000000  0.4696960000000 1.0
C      1  0.5163120000000  0.4423750000000  0.5152130000000 1.0
C      1  0.5472150000000  0.5519440000000  0.4986020000000 1.0
C      1  0.4348590000000  0.4672080000000  0.4530030000000 1.0
C      1  0.5537620000000  0.4597860000000  0.4816000000000 1.0
C      1  0.4754220000000  0.4345440000000  0.4556560000000 1.0
C      1  0.4962590000000  0.5481860000000  0.4847760000000 1.0
C      1  0.4239580000000  0.4844720000000  0.4734220000000 1.0
C      1  0.5228000000000  0.5068640000000  0.5849690000000 1.0
C      1  0.5448510000000  0.4515390000000  0.5588080000000 1.0
C      1  0.5397590000000  0.5365900000000  0.5428730000000 1.0
C      1  0.5086750000000  0.5328280000000  0.5784950000000 1.0
C      1  0.5378190000000  0.5119970000000  0.4735570000000 1.0
C      1  0.5573380000000  0.4430640000000  0.5326270000000 1.0
C      1  0.5158700000000  0.5980110000000  0.4908090000000 1.0
C      1  0.5339980000000  0.4305910000000  0.5257440000000 1.0
C      1  0.5268940000000  0.5844600000000  0.4672180000000 1.0
C      1  0.4810640000000  0.5476810000000  0.5334150000000 1.0
C      1  0.4800990000000  0.5072900000000  0.5086240000000 1.0
C      1  0.4839640000000  0.5574990000000  0.4600860000000 1.0
C      1  0.5082080000000  0.4839920000000  0.5731000000000 1.0
C      1  0.5501340000000  0.4954340000000  0.4374410000000 1.0
C      1  0.5594070000000  0.4761700000000  0.5683990000000 1.0
C      1  0.5485640000000  0.5395520000000  0.4724080000000 1.0
C      1  0.4888930000000  0.4475830000000  0.5565510000000 1.0
C      1  0.4685670000000  0.4688900000000  0.5572000000000 1.0
C      1  0.4758160000000  0.4344610000000  0.5354930000000 1.0
C      1  0.5140800000000  0.4293810000000  0.4910220000000 1.0
C      1  0.5354180000000  0.4390510000000  0.4717440000000 1.0
C      1  0.5013650000000  0.5675840000000  0.5399240000000 1.0
C      1  0.5032440000000  0.4730810000000  0.4367360000000 1.0
C      1  0.4559260000000  0.5516450000000  0.4646570000000 1.0
C      1  0.4490410000000  0.4446480000000  0.4652330000000 1.0
C      1  0.4272610000000  0.4799350000000  0.5274700000000 1.0
C      1  0.4325190000000  0.5172300000000  0.5646660000000 1.0
C      1  0.5241470000000  0.5437840000000  0.4338080000000 1.0
C      1  0.5872860000000  0.4781020000000  0.5063490000000 1.0
C      1  0.5796210000000  0.4997700000000  0.4882280000000 1.0
C      1  0.5180780000000  0.5579590000000  0.5019170000000 1.0
END
