TITL C-4164240-4114-210 18.3848232626854 125000 -27295.5045245551 0 0 181 (C1) n - 1
REM
REM in /home/nfs/bkarasulu/CARBON/AIRSS/Generating-Clusters/ReaxFF-fromJPCA2015/Units_Real/with-SteepDescent/Only-C1/SD-CG/Try1-3A/FIRE-CG
REM
REM
REM
REM
REM
REM ./C.cell (11c1c37f851c82e70ff6c80c92926a4b)
REM
REM compiler GCC version 9.2.1 20190827 (Red Hat 9.2.1-1)
REM options -cpp -mtune=generic -march=x86-64 -g -O0 -fpre-include=/usr/include/finclude/math-vector-fortran.h
REM seed 236545589 2004439310 377463091 1058480798 -1967269461 1751291807 1995103438 1902078077 -126557315 1886524814 686691194 -297893919 -1874825663 1604281982 -1827751550 -948948910 1119779355 1788457688 1847230471 -332085448 -1476492525 810035121 1195028077 62802645 -1569403360 -1189127533 204825026 141234089 2005985485 -1129943147 -620636423 1357116952 803371453
REM
CELL 1.54180   50.00000   50.00000   50.00000   90.00000   90.00000   90.00000
LATT -1
SFAC C  
C      1  0.4801440000000  0.4151320000000  0.4248280000000 1.0
C      1  0.5245400000000  0.5151390000000  0.5790320000000 1.0
C      1  0.4370170000000  0.5641000000000  0.4249850000000 1.0
C      1  0.4971830000000  0.4286280000000  0.4070780000000 1.0
C      1  0.4929270000000  0.4242890000000  0.5737420000000 1.0
C      1  0.4952580000000  0.4556110000000  0.4094040000000 1.0
C      1  0.5099870000000  0.4717860000000  0.5047790000000 1.0
C      1  0.5107150000000  0.5469070000000  0.4086030000000 1.0
C      1  0.5349640000000  0.6046880000000  0.5572110000000 1.0
C      1  0.3888550000000  0.5375440000000  0.5039550000000 1.0
C      1  0.3960020000000  0.5377720000000  0.5516230000000 1.0
C      1  0.5757500000000  0.5351020000000  0.5901040000000 1.0
C      1  0.4615890000000  0.5700590000000  0.4219790000000 1.0
C      1  0.5231450000000  0.5444260000000  0.5264940000000 1.0
C      1  0.5525120000000  0.4231510000000  0.4762870000000 1.0
C      1  0.4189870000000  0.4458580000000  0.4766760000000 1.0
C      1  0.4725220000000  0.3977830000000  0.5388570000000 1.0
C      1  0.5014610000000  0.5958840000000  0.4941390000000 1.0
C      1  0.4491160000000  0.4109120000000  0.5458970000000 1.0
C      1  0.5547650000000  0.5214110000000  0.4112030000000 1.0
C      1  0.3915720000000  0.5535670000000  0.5289040000000 1.0
C      1  0.5771170000000  0.5379370000000  0.4234740000000 1.0
C      1  0.5901980000000  0.4438710000000  0.4990800000000 1.0
C      1  0.5094590000000  0.5299960000000  0.6168370000000 1.0
C      1  0.5340250000000  0.4449900000000  0.4602680000000 1.0
C      1  0.4763390000000  0.5614330000000  0.4657390000000 1.0
C      1  0.5438790000000  0.6046770000000  0.4949570000000 1.0
C      1  0.5114060000000  0.4266450000000  0.5505160000000 1.0
C      1  0.5231770000000  0.5665260000000  0.4509310000000 1.0
C      1  0.4240650000000  0.5284890000000  0.5921790000000 1.0
C      1  0.5578080000000  0.5286960000000  0.4601250000000 1.0
C      1  0.3966740000000  0.4917740000000  0.5283750000000 1.0
C      1  0.5936200000000  0.4763420000000  0.4369060000000 1.0
C      1  0.5242070000000  0.6076000000000  0.4745100000000 1.0
C      1  0.4038930000000  0.4760600000000  0.4381060000000 1.0
C      1  0.5127010000000  0.4976550000000  0.3908930000000 1.0
C      1  0.4793970000000  0.5499770000000  0.5092960000000 1.0
C      1  0.5619440000000  0.5806070000000  0.4463260000000 1.0
C      1  0.5552910000000  0.5976020000000  0.5401250000000 1.0
C      1  0.5227370000000  0.5730890000000  0.5330530000000 1.0
C      1  0.4025070000000  0.4641540000000  0.4907320000000 1.0
C      1  0.5937710000000  0.5419010000000  0.5035680000000 1.0
C      1  0.5638720000000  0.4622460000000  0.5754480000000 1.0
C      1  0.4956580000000  0.3982860000000  0.4968860000000 1.0
C      1  0.5054320000000  0.4950020000000  0.4347740000000 1.0
C      1  0.4634930000000  0.4575380000000  0.5612490000000 1.0
C      1  0.4396370000000  0.4735800000000  0.5711260000000 1.0
C      1  0.5233690000000  0.5455980000000  0.5934470000000 1.0
C      1  0.5401150000000  0.4930470000000  0.3989430000000 1.0
C      1  0.5351040000000  0.4984630000000  0.5421770000000 1.0
C      1  0.5530290000000  0.5053230000000  0.5051770000000 1.0
C      1  0.4786660000000  0.5530460000000  0.5762000000000 1.0
C      1  0.4850470000000  0.4624410000000  0.4597040000000 1.0
C      1  0.5713800000000  0.4440860000000  0.5225160000000 1.0
C      1  0.4387710000000  0.4167710000000  0.5187970000000 1.0
C      1  0.5918780000000  0.4871950000000  0.4792130000000 1.0
C      1  0.4647150000000  0.4817430000000  0.3948610000000 1.0
C      1  0.4018480000000  0.5202890000000  0.5718800000000 1.0
C      1  0.5351420000000  0.5929980000000  0.4516250000000 1.0
C      1  0.5623980000000  0.4342940000000  0.5690360000000 1.0
C      1  0.4513640000000  0.5967780000000  0.4986190000000 1.0
C      1  0.5870530000000  0.5295510000000  0.4520040000000 1.0
C      1  0.4516530000000  0.5041810000000  0.4503160000000 1.0
C      1  0.5619300000000  0.4923260000000  0.5353220000000 1.0
C      1  0.5810810000000  0.4350540000000  0.4735660000000 1.0
C      1  0.4811690000000  0.5353750000000  0.4606490000000 1.0
C      1  0.4759480000000  0.5204530000000  0.5764680000000 1.0
C      1  0.4193460000000  0.4834180000000  0.4139790000000 1.0
C      1  0.5618580000000  0.5422220000000  0.5470110000000 1.0
C      1  0.6036210000000  0.4995160000000  0.5385920000000 1.0
C      1  0.6083540000000  0.4671300000000  0.4961340000000 1.0
C      1  0.4430350000000  0.4667640000000  0.4093780000000 1.0
C      1  0.5787520000000  0.4891510000000  0.5593940000000 1.0
C      1  0.4953310000000  0.4795310000000  0.4806850000000 1.0
C      1  0.5372760000000  0.5442170000000  0.4736670000000 1.0
C      1  0.4407180000000  0.4751660000000  0.5193930000000 1.0
C      1  0.5528910000000  0.5523550000000  0.5932410000000 1.0
C      1  0.4092810000000  0.5247570000000  0.4402130000000 1.0
C      1  0.3888000000000  0.5085980000000  0.5046480000000 1.0
C      1  0.5703650000000  0.5831400000000  0.5204690000000 1.0
C      1  0.4368920000000  0.5492740000000  0.5800570000000 1.0
C      1  0.4915050000000  0.4700350000000  0.4334200000000 1.0
C      1  0.4971080000000  0.4764040000000  0.6182710000000 1.0
C      1  0.4922210000000  0.4754600000000  0.3880460000000 1.0
C      1  0.5398560000000  0.5480120000000  0.4076660000000 1.0
C      1  0.5430280000000  0.4728360000000  0.4660130000000 1.0
C      1  0.5457850000000  0.3918360000000  0.4741990000000 1.0
C      1  0.4309130000000  0.5217550000000  0.4607890000000 1.0
C      1  0.5676240000000  0.5521260000000  0.5195470000000 1.0
C      1  0.4763320000000  0.6042980000000  0.5121260000000 1.0
C      1  0.5731950000000  0.5067130000000  0.5836810000000 1.0
C      1  0.5236330000000  0.4512270000000  0.5416720000000 1.0
C      1  0.5613140000000  0.5616230000000  0.4232710000000 1.0
C      1  0.4888470000000  0.5686630000000  0.4891490000000 1.0
C      1  0.5412380000000  0.4403940000000  0.4276420000000 1.0
C      1  0.4779340000000  0.5133540000000  0.5298210000000 1.0
C      1  0.4767520000000  0.5787280000000  0.4435570000000 1.0
C      1  0.4707680000000  0.5101580000000  0.4002850000000 1.0
C      1  0.4675190000000  0.4598940000000  0.5262270000000 1.0
C      1  0.4960440000000  0.5367040000000  0.5276710000000 1.0
C      1  0.5396890000000  0.4294960000000  0.5858530000000 1.0
C      1  0.5493580000000  0.4681890000000  0.4091640000000 1.0
C      1  0.5237950000000  0.5945760000000  0.5135060000000 1.0
C      1  0.5880050000000  0.4460210000000  0.4468990000000 1.0
C      1  0.5129070000000  0.4792190000000  0.5473290000000 1.0
C      1  0.4395580000000  0.4935350000000  0.5495190000000 1.0
C      1  0.4725330000000  0.4692470000000  0.6042100000000 1.0
C      1  0.4356880000000  0.5866160000000  0.5210980000000 1.0
C      1  0.5718670000000  0.4766860000000  0.4198620000000 1.0
C      1  0.4536890000000  0.5677870000000  0.5695130000000 1.0
C      1  0.4511770000000  0.5145160000000  0.4218640000000 1.0
C      1  0.4982820000000  0.3854100000000  0.4570460000000 1.0
C      1  0.4110140000000  0.4687660000000  0.5180730000000 1.0
C      1  0.4213370000000  0.5722700000000  0.4622840000000 1.0
C      1  0.4960890000000  0.3893790000000  0.5268330000000 1.0
C      1  0.5313450000000  0.4914550000000  0.4468640000000 1.0
C      1  0.4963200000000  0.5210430000000  0.4418870000000 1.0
C      1  0.5020010000000  0.5658760000000  0.4304840000000 1.0
C      1  0.4617090000000  0.5270700000000  0.5097890000000 1.0
C      1  0.4541150000000  0.5866320000000  0.5446940000000 1.0
C      1  0.5038230000000  0.4375280000000  0.4660680000000 1.0
C      1  0.5625400000000  0.4865060000000  0.4837180000000 1.0
C      1  0.5915030000000  0.5498090000000  0.4754770000000 1.0
C      1  0.4461970000000  0.4879240000000  0.4925210000000 1.0
C      1  0.4650880000000  0.4280300000000  0.5668670000000 1.0
C      1  0.4856060000000  0.4717970000000  0.5784360000000 1.0
C      1  0.5461030000000  0.4057120000000  0.5272050000000 1.0
C      1  0.5070180000000  0.5854020000000  0.5553350000000 1.0
C      1  0.4937020000000  0.4291130000000  0.4927130000000 1.0
C      1  0.5039500000000  0.5647750000000  0.5769640000000 1.0
C      1  0.5410610000000  0.4496480000000  0.5179230000000 1.0
C      1  0.5447180000000  0.4710710000000  0.5949890000000 1.0
C      1  0.5366410000000  0.5271080000000  0.5497070000000 1.0
C      1  0.4456870000000  0.5874820000000  0.4694090000000 1.0
C      1  0.4900800000000  0.4811080000000  0.5258450000000 1.0
C      1  0.4562110000000  0.4228000000000  0.4399430000000 1.0
C      1  0.4550940000000  0.4104410000000  0.4665070000000 1.0
C      1  0.4453350000000  0.4807910000000  0.5983860000000 1.0
C      1  0.4228810000000  0.5122540000000  0.4163670000000 1.0
C      1  0.4420140000000  0.5087750000000  0.6061120000000 1.0
C      1  0.5188620000000  0.3835690000000  0.4777240000000 1.0
C      1  0.3916330000000  0.4913200000000  0.4808180000000 1.0
C      1  0.5033940000000  0.4116890000000  0.4432380000000 1.0
C      1  0.4999840000000  0.4974190000000  0.5737940000000 1.0
C      1  0.6119870000000  0.4810160000000  0.5196580000000 1.0
C      1  0.5201160000000  0.4005900000000  0.5396850000000 1.0
C      1  0.4607710000000  0.5125730000000  0.5527010000000 1.0
C      1  0.5075230000000  0.5276410000000  0.4687340000000 1.0
C      1  0.5704300000000  0.4305630000000  0.4294410000000 1.0
C      1  0.5253180000000  0.4962130000000  0.5016040000000 1.0
C      1  0.4927310000000  0.5076320000000  0.6217480000000 1.0
C      1  0.6015640000000  0.5199240000000  0.5187310000000 1.0
C      1  0.5465030000000  0.5003850000000  0.5929930000000 1.0
C      1  0.5980000000000  0.4993130000000  0.4538790000000 1.0
C      1  0.5095950000000  0.5030640000000  0.4805130000000 1.0
C      1  0.4323840000000  0.5351170000000  0.4841260000000 1.0
C      1  0.4753770000000  0.3912370000000  0.4739520000000 1.0
C      1  0.4108800000000  0.5543080000000  0.4900390000000 1.0
C      1  0.4186720000000  0.4521630000000  0.4489400000000 1.0
C      1  0.5207440000000  0.4202750000000  0.4199920000000 1.0
C      1  0.4981740000000  0.5220180000000  0.3980020000000 1.0
C      1  0.5184740000000  0.4600610000000  0.6064310000000 1.0
C      1  0.4695210000000  0.4403650000000  0.5036380000000 1.0
C      1  0.4417120000000  0.4267710000000  0.4904220000000 1.0
C      1  0.4146740000000  0.5566890000000  0.4389220000000 1.0
C      1  0.5443900000000  0.5380800000000  0.5024840000000 1.0
C      1  0.5665170000000  0.4220630000000  0.5406850000000 1.0
C      1  0.5130530000000  0.4330790000000  0.5952250000000 1.0
C      1  0.4694150000000  0.5182150000000  0.6063750000000 1.0
C      1  0.5395110000000  0.4233070000000  0.5041920000000 1.0
C      1  0.5479020000000  0.5130520000000  0.4391920000000 1.0
C      1  0.4405630000000  0.4458770000000  0.4302960000000 1.0
C      1  0.4402720000000  0.5163350000000  0.4991710000000 1.0
C      1  0.5705750000000  0.5923610000000  0.4933520000000 1.0
C      1  0.4575780000000  0.4812240000000  0.4670270000000 1.0
C      1  0.5693510000000  0.5542100000000  0.5706810000000 1.0
C      1  0.4124900000000  0.5704600000000  0.5153460000000 1.0
C      1  0.3948670000000  0.4983480000000  0.4535060000000 1.0
C      1  0.5783610000000  0.5749530000000  0.4706120000000 1.0
C      1  0.4798090000000  0.5960640000000  0.5391540000000 1.0
C      1  0.4094720000000  0.4977000000000  0.5540210000000 1.0
END
