TITL C-4164237-1827-69 -2.52487754857453 125000 -6512.19208878727 0 0 45 (C1) n - 1
REM
REM in /home/nfs/bkarasulu/CARBON/AIRSS/Generating-Clusters/ReaxFF-fromJPCA2015/Units_Real/with-SteepDescent/Only-C1/SD-CG/Try1-3A/FIRE-CG
REM
REM
REM
REM
REM
REM ./C.cell (11c1c37f851c82e70ff6c80c92926a4b)
REM
REM compiler GCC version 9.2.1 20190827 (Red Hat 9.2.1-1)
REM options -cpp -mtune=generic -march=x86-64 -g -O0 -fpre-include=/usr/include/finclude/math-vector-fortran.h
REM seed -1015651613 -687526651 -867192319 1785695283 -376022182 -1784849865 1448517199 271261654 -156607693 -343010575 509505123 -2047753748 1251904716 -1067377039 1381868230 1877246104 -1594450966 -980567182 441180717 566446833 -924905983 617922750 2029587158 -759852104 276898220 -1256575301 -1610906284 -1968332648 2080433478 2146957040 -1759078851 772321788 -856788821
REM
CELL 1.54180   50.00000   50.00000   50.00000   90.00000   90.00000   90.00000
LATT -1
SFAC C  
C      1  0.5047480000000  0.4655910000000  0.4990670000000 1.0
C      1  0.5016750000000  0.5479570000000  0.4873580000000 1.0
C      1  0.5200770000000  0.5425330000000  0.5382250000000 1.0
C      1  0.4751770000000  0.5532330000000  0.4369400000000 1.0
C      1  0.4555180000000  0.4526880000000  0.4942410000000 1.0
C      1  0.4612600000000  0.4933200000000  0.5232160000000 1.0
C      1  0.4849330000000  0.5030950000000  0.4265250000000 1.0
C      1  0.5232980000000  0.4858450000000  0.4533540000000 1.0
C      1  0.5272590000000  0.5020860000000  0.4797030000000 1.0
C      1  0.5063720000000  0.4456510000000  0.4812960000000 1.0
C      1  0.4879200000000  0.5041370000000  0.5176690000000 1.0
C      1  0.4567900000000  0.4638830000000  0.5208680000000 1.0
C      1  0.4564140000000  0.4708540000000  0.4797300000000 1.0
C      1  0.5154220000000  0.5482630000000  0.5115310000000 1.0
C      1  0.5197750000000  0.4880750000000  0.5633220000000 1.0
C      1  0.5469130000000  0.4913380000000  0.5013780000000 1.0
C      1  0.4703500000000  0.4940450000000  0.4724140000000 1.0
C      1  0.5017350000000  0.4464580000000  0.5415950000000 1.0
C      1  0.5739100000000  0.5507000000000  0.5392190000000 1.0
C      1  0.4880860000000  0.4602730000000  0.5636070000000 1.0
C      1  0.5420150000000  0.4748360000000  0.5239470000000 1.0
C      1  0.5210970000000  0.5328070000000  0.4445790000000 1.0
C      1  0.4597440000000  0.5218230000000  0.4726230000000 1.0
C      1  0.5860910000000  0.5231560000000  0.5419650000000 1.0
C      1  0.4722110000000  0.4819160000000  0.4428490000000 1.0
C      1  0.5124260000000  0.4588060000000  0.4550160000000 1.0
C      1  0.4566310000000  0.5152120000000  0.5425320000000 1.0
C      1  0.5475550000000  0.5391020000000  0.5502700000000 1.0
C      1  0.5595200000000  0.5134650000000  0.5546430000000 1.0
C      1  0.4933930000000  0.4891750000000  0.5714840000000 1.0
C      1  0.4709890000000  0.5386420000000  0.4935010000000 1.0
C      1  0.4982860000000  0.5216780000000  0.5388780000000 1.0
C      1  0.5193440000000  0.4552440000000  0.5193390000000 1.0
C      1  0.5015360000000  0.5530380000000  0.4468410000000 1.0
C      1  0.4979820000000  0.4929270000000  0.4924730000000 1.0
C      1  0.5446770000000  0.4876710000000  0.5523810000000 1.0
C      1  0.5129160000000  0.5050350000000  0.4347580000000 1.0
C      1  0.4727790000000  0.4492600000000  0.5410370000000 1.0
C      1  0.4874950000000  0.4568000000000  0.4379920000000 1.0
C      1  0.4779880000000  0.4353290000000  0.4832280000000 1.0
C      1  0.4599140000000  0.5358490000000  0.5202770000000 1.0
C      1  0.4678580000000  0.5267180000000  0.4254740000000 1.0
C      1  0.5240570000000  0.5331130000000  0.4737950000000 1.0
C      1  0.4555470000000  0.5345790000000  0.4485990000000 1.0
C      1  0.4803180000000  0.5137910000000  0.5602630000000 1.0
END
