TITL C-4164245-3996-540 44.7129211310209 125000 -27134.9607606231 0 0 183 (C1) n - 1
REM
REM in /home/nfs/bkarasulu/CARBON/AIRSS/Generating-Clusters/ReaxFF-fromJPCA2015/Units_Real/with-SteepDescent/Only-C1/SD-CG/Try1-3A/FIRE-CG
REM
REM
REM
REM
REM
REM ./C.cell (11c1c37f851c82e70ff6c80c92926a4b)
REM
REM compiler GCC version 9.2.1 20190827 (Red Hat 9.2.1-1)
REM options -cpp -mtune=generic -march=x86-64 -g -O0 -fpre-include=/usr/include/finclude/math-vector-fortran.h
REM seed 10256761 -1300368153 -30103445 -1055695732 -635744147 1752188197 -1574769093 352232749 162688151 1695844243 -829406228 -1139242259 882026877 658789788 -1636328653 -1336799411 -310023942 -234604797 -891106364 -1788764340 -607470250 -1911884889 -1116614479 1990690360 -60343141 2104702120 -1000326704 786324620 1717687166 -612267065 -2111343025 -561834904 -460560272
REM
CELL 1.54180   50.00000   50.00000   50.00000   90.00000   90.00000   90.00000
LATT -1
SFAC C  
C      1  0.5827410000000  0.4516590000000  0.4221460000000 1.0
C      1  0.4407910000000  0.4561830000000  0.5641890000000 1.0
C      1  0.4110660000000  0.5336530000000  0.4354520000000 1.0
C      1  0.5719680000000  0.5350680000000  0.4934660000000 1.0
C      1  0.5191250000000  0.6002140000000  0.5055930000000 1.0
C      1  0.4437130000000  0.4244200000000  0.5587480000000 1.0
C      1  0.5135810000000  0.5665060000000  0.5457380000000 1.0
C      1  0.6098520000000  0.4915740000000  0.5294220000000 1.0
C      1  0.4872240000000  0.4812240000000  0.4827540000000 1.0
C      1  0.5466650000000  0.5355780000000  0.4799240000000 1.0
C      1  0.5033610000000  0.5136500000000  0.5214490000000 1.0
C      1  0.5223440000000  0.5442320000000  0.4970170000000 1.0
C      1  0.5513830000000  0.5329600000000  0.5683700000000 1.0
C      1  0.5262020000000  0.5841640000000  0.4584770000000 1.0
C      1  0.4626520000000  0.5482550000000  0.6041990000000 1.0
C      1  0.5415360000000  0.5132830000000  0.5484590000000 1.0
C      1  0.4145660000000  0.4741740000000  0.5674990000000 1.0
C      1  0.4305050000000  0.5904240000000  0.4877320000000 1.0
C      1  0.4678120000000  0.5042640000000  0.6078570000000 1.0
C      1  0.5216050000000  0.3994710000000  0.5156430000000 1.0
C      1  0.5977990000000  0.5479140000000  0.4795230000000 1.0
C      1  0.5103360000000  0.5199960000000  0.4685520000000 1.0
C      1  0.4726560000000  0.4358540000000  0.5257640000000 1.0
C      1  0.5486140000000  0.4949110000000  0.5963610000000 1.0
C      1  0.5537010000000  0.5576930000000  0.4207720000000 1.0
C      1  0.4164080000000  0.5651230000000  0.4815070000000 1.0
C      1  0.5996650000000  0.5229230000000  0.4404540000000 1.0
C      1  0.4653550000000  0.5455210000000  0.5009370000000 1.0
C      1  0.5462340000000  0.5911060000000  0.5140830000000 1.0
C      1  0.4829910000000  0.5286630000000  0.6132100000000 1.0
C      1  0.5792720000000  0.4090850000000  0.5482690000000 1.0
C      1  0.5457620000000  0.5272650000000  0.4522640000000 1.0
C      1  0.3945430000000  0.4565880000000  0.5248790000000 1.0
C      1  0.5319620000000  0.5540500000000  0.5244360000000 1.0
C      1  0.4837990000000  0.4464300000000  0.4539850000000 1.0
C      1  0.4358110000000  0.5370280000000  0.6008500000000 1.0
C      1  0.4907080000000  0.5960960000000  0.5135640000000 1.0
C      1  0.5178840000000  0.5781990000000  0.5721040000000 1.0
C      1  0.5815970000000  0.4298640000000  0.4419090000000 1.0
C      1  0.5126860000000  0.5231740000000  0.6080000000000 1.0
C      1  0.5309300000000  0.4929150000000  0.3829040000000 1.0
C      1  0.4800770000000  0.5211920000000  0.5071050000000 1.0
C      1  0.5144210000000  0.4600440000000  0.5449390000000 1.0
C      1  0.3934770000000  0.4591490000000  0.4962710000000 1.0
C      1  0.4820150000000  0.5686750000000  0.5060320000000 1.0
C      1  0.4888070000000  0.5580820000000  0.5322320000000 1.0
C      1  0.4554850000000  0.5063030000000  0.5593600000000 1.0
C      1  0.3955540000000  0.5256460000000  0.5152310000000 1.0
C      1  0.4235910000000  0.4918830000000  0.5858620000000 1.0
C      1  0.3962550000000  0.4777530000000  0.5433970000000 1.0
C      1  0.5303050000000  0.4417460000000  0.4067050000000 1.0
C      1  0.5116200000000  0.4546020000000  0.4512930000000 1.0
C      1  0.5281460000000  0.4504740000000  0.5876170000000 1.0
C      1  0.6056550000000  0.4650270000000  0.4834570000000 1.0
C      1  0.4863850000000  0.4329800000000  0.4964690000000 1.0
C      1  0.4885050000000  0.6033560000000  0.5620000000000 1.0
C      1  0.4758230000000  0.5351100000000  0.4483260000000 1.0
C      1  0.6090720000000  0.5196990000000  0.4859400000000 1.0
C      1  0.5378200000000  0.5469660000000  0.4012300000000 1.0
C      1  0.4377330000000  0.5080030000000  0.6041840000000 1.0
C      1  0.5560540000000  0.5823410000000  0.5435200000000 1.0
C      1  0.5674520000000  0.5547390000000  0.5559610000000 1.0
C      1  0.4718370000000  0.4565060000000  0.4768830000000 1.0
C      1  0.4227510000000  0.5854160000000  0.5429760000000 1.0
C      1  0.5697920000000  0.4599480000000  0.5158040000000 1.0
C      1  0.4272390000000  0.5324710000000  0.4132400000000 1.0
C      1  0.5432010000000  0.5951940000000  0.5665080000000 1.0
C      1  0.4448600000000  0.4419850000000  0.5213290000000 1.0
C      1  0.5724060000000  0.3969550000000  0.5683230000000 1.0
C      1  0.6135720000000  0.4688890000000  0.5127080000000 1.0
C      1  0.5084540000000  0.4963090000000  0.6090790000000 1.0
C      1  0.5875120000000  0.5027000000000  0.4230160000000 1.0
C      1  0.4843010000000  0.4278940000000  0.4168480000000 1.0
C      1  0.5419580000000  0.4867760000000  0.4316000000000 1.0
C      1  0.4198170000000  0.4154580000000  0.4889040000000 1.0
C      1  0.4064190000000  0.5648720000000  0.5603000000000 1.0
C      1  0.4512970000000  0.5870070000000  0.5460390000000 1.0
C      1  0.5041910000000  0.4704940000000  0.5066770000000 1.0
C      1  0.4155560000000  0.5496280000000  0.5824030000000 1.0
C      1  0.5539650000000  0.5811870000000  0.4642920000000 1.0
C      1  0.4508350000000  0.4643870000000  0.4162710000000 1.0
C      1  0.5517290000000  0.4968190000000  0.4566280000000 1.0
C      1  0.5649050000000  0.4364870000000  0.4677900000000 1.0
C      1  0.5196040000000  0.5355280000000  0.4492990000000 1.0
C      1  0.4386130000000  0.4445050000000  0.4336330000000 1.0
C      1  0.5127620000000  0.5169530000000  0.5474580000000 1.0
C      1  0.5651910000000  0.4795060000000  0.5764140000000 1.0
C      1  0.5870270000000  0.4227860000000  0.5256170000000 1.0
C      1  0.5367520000000  0.4257240000000  0.5168680000000 1.0
C      1  0.5129700000000  0.5588150000000  0.4116620000000 1.0
C      1  0.4515820000000  0.5644300000000  0.5616220000000 1.0
C      1  0.5123350000000  0.4220150000000  0.4229490000000 1.0
C      1  0.4494590000000  0.5657850000000  0.4547930000000 1.0
C      1  0.4124820000000  0.5468180000000  0.5064370000000 1.0
C      1  0.4463790000000  0.4060900000000  0.4805860000000 1.0
C      1  0.5954900000000  0.4773310000000  0.4331350000000 1.0
C      1  0.4756160000000  0.4089180000000  0.4824670000000 1.0
C      1  0.6130470000000  0.5079930000000  0.4607930000000 1.0
C      1  0.4701130000000  0.4161160000000  0.5496580000000 1.0
C      1  0.5902870000000  0.5721020000000  0.4983200000000 1.0
C      1  0.4756360000000  0.4534910000000  0.4050620000000 1.0
C      1  0.5035570000000  0.4941140000000  0.4612210000000 1.0
C      1  0.4904490000000  0.5246410000000  0.4249760000000 1.0
C      1  0.4591820000000  0.5206780000000  0.4682600000000 1.0
C      1  0.5078580000000  0.4024570000000  0.5395330000000 1.0
C      1  0.4679160000000  0.5681970000000  0.5843520000000 1.0
C      1  0.4483700000000  0.5324490000000  0.3981850000000 1.0
C      1  0.4147760000000  0.4515020000000  0.4493320000000 1.0
C      1  0.4182790000000  0.4336600000000  0.5296660000000 1.0
C      1  0.4960080000000  0.4752520000000  0.4066170000000 1.0
C      1  0.5846590000000  0.5110240000000  0.4986460000000 1.0
C      1  0.4396310000000  0.5377410000000  0.5170920000000 1.0
C      1  0.3874210000000  0.4992020000000  0.5236860000000 1.0
C      1  0.5160990000000  0.4432040000000  0.4973700000000 1.0
C      1  0.4760030000000  0.5029900000000  0.5795110000000 1.0
C      1  0.4581630000000  0.4807160000000  0.5458240000000 1.0
C      1  0.5474460000000  0.4795280000000  0.4784630000000 1.0
C      1  0.4650760000000  0.6134460000000  0.4463590000000 1.0
C      1  0.6094900000000  0.4802250000000  0.4584370000000 1.0
C      1  0.5424010000000  0.4506370000000  0.5394400000000 1.0
C      1  0.3915130000000  0.4887740000000  0.4960520000000 1.0
C      1  0.5492610000000  0.4546030000000  0.5680980000000 1.0
C      1  0.4713550000000  0.5039500000000  0.4885000000000 1.0
C      1  0.5834200000000  0.4935100000000  0.5612440000000 1.0
C      1  0.4731270000000  0.5262150000000  0.3879830000000 1.0
C      1  0.5384410000000  0.3964440000000  0.4668010000000 1.0
C      1  0.5272640000000  0.4758350000000  0.6038500000000 1.0
C      1  0.4046590000000  0.4789860000000  0.4441780000000 1.0
C      1  0.5447060000000  0.5170140000000  0.3928890000000 1.0
C      1  0.5134050000000  0.4796030000000  0.4367960000000 1.0
C      1  0.4593920000000  0.4512600000000  0.5852040000000 1.0
C      1  0.5057840000000  0.4320060000000  0.5850890000000 1.0
C      1  0.5950500000000  0.4518440000000  0.5286010000000 1.0
C      1  0.4334430000000  0.5096070000000  0.5090750000000 1.0
C      1  0.4142200000000  0.4076130000000  0.5167120000000 1.0
C      1  0.4087610000000  0.4416280000000  0.4769500000000 1.0
C      1  0.5993490000000  0.5108630000000  0.5472340000000 1.0
C      1  0.4248160000000  0.5907870000000  0.5148510000000 1.0
C      1  0.5181980000000  0.3893560000000  0.4864760000000 1.0
C      1  0.5634850000000  0.4144410000000  0.5089600000000 1.0
C      1  0.5642470000000  0.5848350000000  0.4917440000000 1.0
C      1  0.5112370000000  0.6011240000000  0.4771350000000 1.0
C      1  0.5696410000000  0.5663820000000  0.4422170000000 1.0
C      1  0.4961480000000  0.4114800000000  0.5631370000000 1.0
C      1  0.4483840000000  0.5369700000000  0.5496620000000 1.0
C      1  0.4479230000000  0.5010660000000  0.4500400000000 1.0
C      1  0.5322200000000  0.4544940000000  0.4731200000000 1.0
C      1  0.5099870000000  0.5632030000000  0.4424150000000 1.0
C      1  0.5400000000000  0.5227350000000  0.5938030000000 1.0
C      1  0.4877710000000  0.5461030000000  0.4041050000000 1.0
C      1  0.5555860000000  0.4467890000000  0.4137030000000 1.0
C      1  0.4873300000000  0.4642780000000  0.5344000000000 1.0
C      1  0.4557790000000  0.4917830000000  0.4247210000000 1.0
C      1  0.4834710000000  0.6120200000000  0.4709790000000 1.0
C      1  0.5450400000000  0.4994110000000  0.5237730000000 1.0
C      1  0.4232970000000  0.5555250000000  0.4550380000000 1.0
C      1  0.4434470000000  0.4869770000000  0.5209950000000 1.0
C      1  0.5638710000000  0.4880630000000  0.5046340000000 1.0
C      1  0.4543560000000  0.6076460000000  0.4736030000000 1.0
C      1  0.4433520000000  0.4620720000000  0.4775520000000 1.0
C      1  0.4781780000000  0.5034360000000  0.4092770000000 1.0
C      1  0.5591020000000  0.5014740000000  0.4132890000000 1.0
C      1  0.4969270000000  0.3944930000000  0.4670220000000 1.0
C      1  0.4770380000000  0.5632900000000  0.4518670000000 1.0
C      1  0.5610980000000  0.4096200000000  0.4802040000000 1.0
C      1  0.5914350000000  0.5586450000000  0.5221100000000 1.0
C      1  0.4932660000000  0.5230360000000  0.5671770000000 1.0
C      1  0.4749240000000  0.6047470000000  0.5377470000000 1.0
C      1  0.4811670000000  0.4436000000000  0.5890800000000 1.0
C      1  0.4069400000000  0.5058680000000  0.4372070000000 1.0
C      1  0.4232340000000  0.4100590000000  0.5440220000000 1.0
C      1  0.5914760000000  0.5486740000000  0.4501830000000 1.0
C      1  0.4158550000000  0.5021020000000  0.4870520000000 1.0
C      1  0.5203190000000  0.4939330000000  0.5118970000000 1.0
C      1  0.5907010000000  0.5428780000000  0.5441790000000 1.0
C      1  0.5165290000000  0.4058620000000  0.4471240000000 1.0
C      1  0.5809260000000  0.4517730000000  0.4885750000000 1.0
C      1  0.4779840000000  0.5369670000000  0.5477210000000 1.0
C      1  0.4647660000000  0.4307930000000  0.4386420000000 1.0
C      1  0.4294380000000  0.4852800000000  0.4653810000000 1.0
C      1  0.4387060000000  0.4637740000000  0.5053330000000 1.0
C      1  0.5196600000000  0.4665370000000  0.3916290000000 1.0
C      1  0.4912160000000  0.5867880000000  0.5840070000000 1.0
END
