TITL C-4164235-1454-618 1.43699411684682e-07 125000 -4615.90013061526 0 0 32 (C1) n - 1
REM
REM in /home/nfs/bkarasulu/CARBON/AIRSS/Generating-Clusters/ReaxFF-fromJPCA2015/Units_Real/with-SteepDescent/Only-C1/SD-CG/Try1-3A/FIRE-CG
REM
REM
REM
REM
REM
REM ./C.cell (11c1c37f851c82e70ff6c80c92926a4b)
REM
REM compiler GCC version 9.2.1 20190827 (Red Hat 9.2.1-1)
REM options -cpp -mtune=generic -march=x86-64 -g -O0 -fpre-include=/usr/include/finclude/math-vector-fortran.h
REM seed 675119093 -1739917359 -1209656589 1223923141 388177443 -1355455788 -80124307 -168236907 568880565 1663270468 112128994 988045737 1185698770 -1703344577 -306896404 1437845153 -1969038690 -1527929970 59432383 -176692116 1699261302 -1705134093 652045363 1176226290 -1300716173 -884557536 -1221138358 1959768820 -548340155 436211041 1647655787 837983853 -1310456483
REM
CELL 1.54180   50.00000   50.00000   50.00000   90.00000   90.00000   90.00000
LATT -1
SFAC C  
C      1  0.5138320000000  0.5542220000000  0.4842330000000 1.0
C      1  0.4369610000000  0.5099940000000  0.5044320000000 1.0
C      1  0.4577300000000  0.5292850000000  0.5416570000000 1.0
C      1  0.4527860000000  0.5354920000000  0.5130540000000 1.0
C      1  0.4697630000000  0.4573570000000  0.4697870000000 1.0
C      1  0.5122540000000  0.5427740000000  0.5242950000000 1.0
C      1  0.4496070000000  0.4812140000000  0.5139100000000 1.0
C      1  0.5097670000000  0.4447370000000  0.5268860000000 1.0
C      1  0.5572810000000  0.4814720000000  0.4822980000000 1.0
C      1  0.5600640000000  0.5032870000000  0.5022970000000 1.0
C      1  0.5411910000000  0.4895500000000  0.4578980000000 1.0
C      1  0.4999560000000  0.5171560000000  0.5169100000000 1.0
C      1  0.5536940000000  0.5314990000000  0.4969040000000 1.0
C      1  0.4843930000000  0.5176670000000  0.4915170000000 1.0
C      1  0.5247910000000  0.5140560000000  0.4599200000000 1.0
C      1  0.5431660000000  0.5045460000000  0.5268520000000 1.0
C      1  0.4589020000000  0.4631480000000  0.4962190000000 1.0
C      1  0.4967800000000  0.5064830000000  0.4664300000000 1.0
C      1  0.5477800000000  0.4592260000000  0.4951120000000 1.0
C      1  0.4640580000000  0.5019180000000  0.5521340000000 1.0
C      1  0.4928780000000  0.4785120000000  0.4587200000000 1.0
C      1  0.4974980000000  0.5611410000000  0.5055960000000 1.0
C      1  0.5351710000000  0.4384190000000  0.5105050000000 1.0
C      1  0.4176780000000  0.5109550000000  0.4879420000000 1.0
C      1  0.5406390000000  0.5339780000000  0.5233640000000 1.0
C      1  0.4986610000000  0.4708160000000  0.5318270000000 1.0
C      1  0.4707920000000  0.4311170000000  0.4749890000000 1.0
C      1  0.5152130000000  0.4946000000000  0.5271070000000 1.0
C      1  0.4742500000000  0.5450850000000  0.4952170000000 1.0
C      1  0.4690800000000  0.4780070000000  0.5352270000000 1.0
C      1  0.5183710000000  0.4738830000000  0.4527360000000 1.0
C      1  0.5350120000000  0.5384020000000  0.4740240000000 1.0
END
