TITL C-4164247-2821-403 -0.892159262044523 125000 -4384.91571505701 0 0 31 (C1) n - 1
REM
REM in /home/nfs/bkarasulu/CARBON/AIRSS/Generating-Clusters/ReaxFF-fromJPCA2015/Units_Real/with-SteepDescent/Only-C1/SD-CG/Try1-3A/FIRE-CG
REM
REM
REM
REM
REM
REM ./C.cell (11c1c37f851c82e70ff6c80c92926a4b)
REM
REM compiler GCC version 9.2.1 20190827 (Red Hat 9.2.1-1)
REM options -cpp -mtune=generic -march=x86-64 -g -O0 -fpre-include=/usr/include/finclude/math-vector-fortran.h
REM seed 1738491213 864982718 -1896824331 -1438404510 -1413425964 -1514531272 2100482709 1227196305 -615623400 -1649718705 458110719 -673304797 -189792014 483245885 1547331834 -990038314 -455730178 -979562461 -655130670 178198244 67552416 -1397479948 1372820368 -1509059817 -713071066 300549480 1522660418 -1063989476 749199924 -1772870970 -1993916234 -2076944881 -1978199961
REM
CELL 1.54180   50.00000   50.00000   50.00000   90.00000   90.00000   90.00000
LATT -1
SFAC C  
C      1  0.5413980000000  0.4874220000000  0.5210290000000 1.0
C      1  0.4910500000000  0.5214940000000  0.5518230000000 1.0
C      1  0.4503070000000  0.5068430000000  0.4902160000000 1.0
C      1  0.5233390000000  0.4661080000000  0.5122320000000 1.0
C      1  0.4599630000000  0.4793090000000  0.5318940000000 1.0
C      1  0.5351660000000  0.5534500000000  0.5009220000000 1.0
C      1  0.5434410000000  0.4908820000000  0.4595170000000 1.0
C      1  0.5100690000000  0.4623070000000  0.4384820000000 1.0
C      1  0.5237470000000  0.5535400000000  0.5279020000000 1.0
C      1  0.4976160000000  0.5407220000000  0.5287510000000 1.0
C      1  0.4839310000000  0.4705630000000  0.5465590000000 1.0
C      1  0.5260610000000  0.5150900000000  0.4603090000000 1.0
C      1  0.4256830000000  0.5252910000000  0.4908310000000 1.0
C      1  0.4746360000000  0.4665110000000  0.4954010000000 1.0
C      1  0.4923800000000  0.4853810000000  0.4326170000000 1.0
C      1  0.4832510000000  0.4624280000000  0.4480750000000 1.0
C      1  0.5293040000000  0.4644240000000  0.4607850000000 1.0
C      1  0.5230690000000  0.5278000000000  0.4895130000000 1.0
C      1  0.5132020000000  0.5056070000000  0.5558480000000 1.0
C      1  0.5309630000000  0.4848900000000  0.5494500000000 1.0
C      1  0.5141400000000  0.4581910000000  0.4853230000000 1.0
C      1  0.4731000000000  0.4972180000000  0.5518990000000 1.0
C      1  0.4687640000000  0.5286630000000  0.4883190000000 1.0
C      1  0.4861890000000  0.4568060000000  0.4772030000000 1.0
C      1  0.5466840000000  0.5383750000000  0.5212660000000 1.0
C      1  0.4944300000000  0.5312140000000  0.5018730000000 1.0
C      1  0.5031710000000  0.5118470000000  0.4420780000000 1.0
C      1  0.5114660000000  0.4640540000000  0.5391000000000 1.0
C      1  0.5429490000000  0.5135800000000  0.5087900000000 1.0
C      1  0.4443750000000  0.5486050000000  0.4879340000000 1.0
C      1  0.4561580000000  0.4813850000000  0.5040580000000 1.0
END
