TITL C-4164232-771-389 10.7532170597146 125000 -24147.887890013 0 0 160 (C1) n - 1
REM
REM in /home/nfs/bkarasulu/CARBON/AIRSS/Generating-Clusters/ReaxFF-fromJPCA2015/Units_Real/with-SteepDescent/Only-C1/SD-CG/Try1-3A/FIRE-CG
REM
REM
REM
REM
REM
REM ./C.cell (11c1c37f851c82e70ff6c80c92926a4b)
REM
REM compiler GCC version 9.2.1 20190827 (Red Hat 9.2.1-1)
REM options -cpp -mtune=generic -march=x86-64 -g -O0 -fpre-include=/usr/include/finclude/math-vector-fortran.h
REM seed 3249171 1391825804 1604854089 -1145149002 1743682474 -1773064947 -1198635931 -1008391686 -1152646020 1952263460 419405649 -460064992 -146235641 383440997 -1162747287 -2068035051 1347581637 -1544031102 1533858291 271046520 1599619000 1334369571 1076280720 -1994089489 -24951245 43239546 -919972668 1259380500 -468650324 497262924 -339653009 -1475717822 -1098105618
REM
CELL 1.54180   50.00000   50.00000   50.00000   90.00000   90.00000   90.00000
LATT -1
SFAC C  
C      1  0.5175040000000  0.4528040000000  0.4586640000000 1.0
C      1  0.4306000000000  0.4566420000000  0.4430940000000 1.0
C      1  0.5874320000000  0.5434260000000  0.4982320000000 1.0
C      1  0.5078100000000  0.5934950000000  0.4321370000000 1.0
C      1  0.5282340000000  0.4863820000000  0.6039950000000 1.0
C      1  0.5299350000000  0.4842930000000  0.4811940000000 1.0
C      1  0.5544610000000  0.4743060000000  0.4704230000000 1.0
C      1  0.6037930000000  0.5023750000000  0.5189470000000 1.0
C      1  0.4601930000000  0.5855850000000  0.5361850000000 1.0
C      1  0.4608890000000  0.5336520000000  0.5337090000000 1.0
C      1  0.5429650000000  0.4783260000000  0.5576900000000 1.0
C      1  0.5292050000000  0.4363430000000  0.5296630000000 1.0
C      1  0.5024730000000  0.4335200000000  0.4218090000000 1.0
C      1  0.3916190000000  0.5164940000000  0.4712850000000 1.0
C      1  0.4686510000000  0.4968070000000  0.5700930000000 1.0
C      1  0.5266070000000  0.5153930000000  0.5277210000000 1.0
C      1  0.4991700000000  0.5266550000000  0.5073170000000 1.0
C      1  0.5259520000000  0.5379870000000  0.5404750000000 1.0
C      1  0.5582950000000  0.4237880000000  0.4540230000000 1.0
C      1  0.5666310000000  0.4182340000000  0.4812400000000 1.0
C      1  0.4355230000000  0.5722340000000  0.4491670000000 1.0
C      1  0.5328780000000  0.5537940000000  0.4915500000000 1.0
C      1  0.3873720000000  0.5361090000000  0.4940470000000 1.0
C      1  0.5002670000000  0.5024830000000  0.4535450000000 1.0
C      1  0.4689640000000  0.5951250000000  0.4832870000000 1.0
C      1  0.3931620000000  0.4873610000000  0.4666520000000 1.0
C      1  0.5749420000000  0.5703410000000  0.5028110000000 1.0
C      1  0.5643650000000  0.5170410000000  0.4926250000000 1.0
C      1  0.4741210000000  0.4456560000000  0.5222440000000 1.0
C      1  0.4505550000000  0.4733280000000  0.5673690000000 1.0
C      1  0.5663290000000  0.5830130000000  0.4789070000000 1.0
C      1  0.4921360000000  0.5482930000000  0.5785430000000 1.0
C      1  0.4453010000000  0.5259360000000  0.4203510000000 1.0
C      1  0.5086950000000  0.4447030000000  0.4846430000000 1.0
C      1  0.4381430000000  0.4645370000000  0.4923310000000 1.0
C      1  0.5082800000000  0.4133270000000  0.4432510000000 1.0
C      1  0.4249790000000  0.4889340000000  0.4987700000000 1.0
C      1  0.3869950000000  0.4716440000000  0.4891900000000 1.0
C      1  0.5292610000000  0.4488530000000  0.5051050000000 1.0
C      1  0.5467210000000  0.5320710000000  0.5917750000000 1.0
C      1  0.5100190000000  0.4394480000000  0.5858440000000 1.0
C      1  0.5439550000000  0.4651250000000  0.4204090000000 1.0
C      1  0.5160750000000  0.4928060000000  0.5473800000000 1.0
C      1  0.4744420000000  0.4933470000000  0.4747500000000 1.0
C      1  0.4965350000000  0.5439490000000  0.4110590000000 1.0
C      1  0.5795340000000  0.5117300000000  0.5588840000000 1.0
C      1  0.5650910000000  0.5107250000000  0.5841930000000 1.0
C      1  0.4730620000000  0.4161090000000  0.5298670000000 1.0
C      1  0.5470170000000  0.4529140000000  0.4489610000000 1.0
C      1  0.5842990000000  0.5384530000000  0.5492940000000 1.0
C      1  0.5417000000000  0.5297850000000  0.4785600000000 1.0
C      1  0.4204420000000  0.5641240000000  0.5387100000000 1.0
C      1  0.4373700000000  0.5232730000000  0.5221520000000 1.0
C      1  0.4036270000000  0.4957470000000  0.5169160000000 1.0
C      1  0.5444170000000  0.4946030000000  0.4202590000000 1.0
C      1  0.5215370000000  0.5097370000000  0.4717440000000 1.0
C      1  0.5158010000000  0.4788720000000  0.3896020000000 1.0
C      1  0.5706730000000  0.5255750000000  0.4294020000000 1.0
C      1  0.5083320000000  0.5634860000000  0.4803420000000 1.0
C      1  0.5000810000000  0.5353630000000  0.5533930000000 1.0
C      1  0.4031320000000  0.5617300000000  0.4921730000000 1.0
C      1  0.5722030000000  0.5703410000000  0.4523360000000 1.0
C      1  0.4614000000000  0.4225980000000  0.5692020000000 1.0
C      1  0.4685830000000  0.4021620000000  0.5045830000000 1.0
C      1  0.5408140000000  0.4009220000000  0.4841210000000 1.0
C      1  0.4651620000000  0.4937510000000  0.5267320000000 1.0
C      1  0.4979980000000  0.5899650000000  0.4866560000000 1.0
C      1  0.4197380000000  0.5748290000000  0.5120220000000 1.0
C      1  0.5871390000000  0.5452990000000  0.4468640000000 1.0
C      1  0.5683510000000  0.4894260000000  0.5401810000000 1.0
C      1  0.5878490000000  0.4663470000000  0.5333650000000 1.0
C      1  0.4558730000000  0.5156200000000  0.4726630000000 1.0
C      1  0.5054450000000  0.4680020000000  0.5959610000000 1.0
C      1  0.5729710000000  0.4957040000000  0.4720490000000 1.0
C      1  0.4732840000000  0.5141500000000  0.5478450000000 1.0
C      1  0.5440620000000  0.5562470000000  0.5743410000000 1.0
C      1  0.6022020000000  0.5402530000000  0.4710850000000 1.0
C      1  0.6036240000000  0.4550440000000  0.4898680000000 1.0
C      1  0.4666380000000  0.4772650000000  0.3998670000000 1.0
C      1  0.5251400000000  0.5162300000000  0.6041550000000 1.0
C      1  0.4682310000000  0.5415170000000  0.4744320000000 1.0
C      1  0.4494860000000  0.5831870000000  0.5068300000000 1.0
C      1  0.5208620000000  0.4069870000000  0.5329390000000 1.0
C      1  0.5489570000000  0.5681710000000  0.4361080000000 1.0
C      1  0.4794300000000  0.5484370000000  0.5190860000000 1.0
C      1  0.4344580000000  0.5139500000000  0.4902990000000 1.0
C      1  0.4599140000000  0.5891320000000  0.4566270000000 1.0
C      1  0.4291360000000  0.4974910000000  0.4245130000000 1.0
C      1  0.4783430000000  0.5914330000000  0.4338200000000 1.0
C      1  0.4960340000000  0.5385640000000  0.4805480000000 1.0
C      1  0.4448520000000  0.5697430000000  0.5560070000000 1.0
C      1  0.3920730000000  0.5231750000000  0.5194780000000 1.0
C      1  0.4159010000000  0.5572560000000  0.4661030000000 1.0
C      1  0.4640170000000  0.4672610000000  0.4809930000000 1.0
C      1  0.4884210000000  0.4759210000000  0.3911240000000 1.0
C      1  0.4175630000000  0.5277570000000  0.4656990000000 1.0
C      1  0.5350030000000  0.4064580000000  0.4551420000000 1.0
C      1  0.5648750000000  0.5596170000000  0.5539390000000 1.0
C      1  0.4898490000000  0.4216100000000  0.5734830000000 1.0
C      1  0.4597120000000  0.4171430000000  0.4624840000000 1.0
C      1  0.5036930000000  0.4736620000000  0.4463530000000 1.0
C      1  0.4077380000000  0.4611260000000  0.5392120000000 1.0
C      1  0.5397490000000  0.5962600000000  0.4760730000000 1.0
C      1  0.6071470000000  0.4749450000000  0.5142400000000 1.0
C      1  0.4643510000000  0.4673170000000  0.5370790000000 1.0
C      1  0.5583030000000  0.5754500000000  0.5284350000000 1.0
C      1  0.4503650000000  0.4353330000000  0.4401920000000 1.0
C      1  0.5163640000000  0.4933030000000  0.4315320000000 1.0
C      1  0.4545430000000  0.4598230000000  0.5968310000000 1.0
C      1  0.5827320000000  0.4372980000000  0.5272390000000 1.0
C      1  0.4874970000000  0.4980770000000  0.5069660000000 1.0
C      1  0.6001470000000  0.4820350000000  0.4452800000000 1.0
C      1  0.5315540000000  0.5947920000000  0.5269390000000 1.0
C      1  0.4995020000000  0.5206640000000  0.5919720000000 1.0
C      1  0.4154000000000  0.4794400000000  0.4436100000000 1.0
C      1  0.5212790000000  0.4552900000000  0.4064060000000 1.0
C      1  0.4870330000000  0.4064090000000  0.4622610000000 1.0
C      1  0.4624470000000  0.5577120000000  0.4980480000000 1.0
C      1  0.5447500000000  0.4090420000000  0.5558010000000 1.0
C      1  0.5654960000000  0.4205980000000  0.5420490000000 1.0
C      1  0.4436590000000  0.4792750000000  0.4118660000000 1.0
C      1  0.6049780000000  0.4667340000000  0.4646850000000 1.0
C      1  0.4936440000000  0.5735260000000  0.4162440000000 1.0
C      1  0.4588690000000  0.5520520000000  0.5743070000000 1.0
C      1  0.5193110000000  0.3977300000000  0.5029630000000 1.0
C      1  0.4720090000000  0.5315960000000  0.4143360000000 1.0
C      1  0.4934530000000  0.3967890000000  0.4896560000000 1.0
C      1  0.4965530000000  0.4951650000000  0.5760330000000 1.0
C      1  0.4763000000000  0.4363670000000  0.4280680000000 1.0
C      1  0.4139240000000  0.5354690000000  0.5344720000000 1.0
C      1  0.5122280000000  0.5848660000000  0.5473530000000 1.0
C      1  0.5369850000000  0.5550560000000  0.5203820000000 1.0
C      1  0.5354530000000  0.4305360000000  0.5754230000000 1.0
C      1  0.4379040000000  0.4257450000000  0.5539410000000 1.0
C      1  0.4393410000000  0.5314610000000  0.5746620000000 1.0
C      1  0.5300020000000  0.4774570000000  0.5080800000000 1.0
C      1  0.4478580000000  0.4163330000000  0.4895110000000 1.0
C      1  0.5854240000000  0.4337070000000  0.4975510000000 1.0
C      1  0.5513790000000  0.5031070000000  0.5175380000000 1.0
C      1  0.4774720000000  0.4647440000000  0.6117510000000 1.0
C      1  0.5064260000000  0.4815750000000  0.5226650000000 1.0
C      1  0.4943880000000  0.4078610000000  0.5480350000000 1.0
C      1  0.4322990000000  0.4375040000000  0.5028180000000 1.0
C      1  0.5243030000000  0.5311680000000  0.4069010000000 1.0
C      1  0.5171600000000  0.5682000000000  0.5713940000000 1.0
C      1  0.4403120000000  0.5510570000000  0.4316410000000 1.0
C      1  0.4870700000000  0.5766910000000  0.5345260000000 1.0
C      1  0.5988240000000  0.5290960000000  0.5245330000000 1.0
C      1  0.5226650000000  0.6013200000000  0.4998210000000 1.0
C      1  0.5311260000000  0.5875350000000  0.4489190000000 1.0
C      1  0.4242170000000  0.5058680000000  0.5683670000000 1.0
C      1  0.3886480000000  0.4701640000000  0.5178560000000 1.0
C      1  0.5312680000000  0.5049680000000  0.3957850000000 1.0
C      1  0.5504520000000  0.4853400000000  0.5863430000000 1.0
C      1  0.4818240000000  0.4504950000000  0.4940210000000 1.0
C      1  0.5802730000000  0.5009530000000  0.4432220000000 1.0
C      1  0.4210630000000  0.4787580000000  0.5593440000000 1.0
C      1  0.4224600000000  0.4377700000000  0.5304830000000 1.0
C      1  0.5377260000000  0.4493710000000  0.5533840000000 1.0
C      1  0.5465220000000  0.5408590000000  0.4230990000000 1.0
END
