TITL C-4164237-1827-86 0.556000632191354 125000 -25164.8623428544 0 0 168 (C1) n - 1
REM
REM in /home/nfs/bkarasulu/CARBON/AIRSS/Generating-Clusters/ReaxFF-fromJPCA2015/Units_Real/with-SteepDescent/Only-C1/SD-CG/Try1-3A/FIRE-CG
REM
REM
REM
REM
REM
REM ./C.cell (11c1c37f851c82e70ff6c80c92926a4b)
REM
REM compiler GCC version 9.2.1 20190827 (Red Hat 9.2.1-1)
REM options -cpp -mtune=generic -march=x86-64 -g -O0 -fpre-include=/usr/include/finclude/math-vector-fortran.h
REM seed -1044933719 -492076668 1909202967 -1897378814 1794891559 1866336979 2029120603 -1925885611 -442214641 -2003576616 -1994938952 68405980 -326402072 585063248 1646786267 -1194507404 1454897826 1903199786 -1480989880 -1668964283 1269236150 658390398 1950391287 -1527142438 -2109599675 2018600647 1203514605 877146361 1505443320 596142772 1123394894 1402782913 -949177794
REM
CELL 1.54180   50.00000   50.00000   50.00000   90.00000   90.00000   90.00000
LATT -1
SFAC C  
C      1  0.4738070000000  0.4051430000000  0.4767430000000 1.0
C      1  0.4354660000000  0.4883500000000  0.5088470000000 1.0
C      1  0.4935110000000  0.5400390000000  0.5531500000000 1.0
C      1  0.4951470000000  0.4753960000000  0.4261540000000 1.0
C      1  0.4723930000000  0.6092800000000  0.4880410000000 1.0
C      1  0.5604840000000  0.4749280000000  0.5097220000000 1.0
C      1  0.4574320000000  0.5621210000000  0.5644650000000 1.0
C      1  0.5739760000000  0.5300540000000  0.4263870000000 1.0
C      1  0.4047020000000  0.5174660000000  0.5304830000000 1.0
C      1  0.4291080000000  0.4504810000000  0.4364420000000 1.0
C      1  0.4048280000000  0.5170890000000  0.4773750000000 1.0
C      1  0.5547090000000  0.4728510000000  0.5892000000000 1.0
C      1  0.5748950000000  0.5849820000000  0.5038780000000 1.0
C      1  0.5229080000000  0.5215080000000  0.5472870000000 1.0
C      1  0.4767980000000  0.3851770000000  0.4983750000000 1.0
C      1  0.5421660000000  0.4393380000000  0.4015270000000 1.0
C      1  0.5542140000000  0.4224540000000  0.4194180000000 1.0
C      1  0.4293370000000  0.5301780000000  0.5323580000000 1.0
C      1  0.4715530000000  0.4914290000000  0.6143430000000 1.0
C      1  0.4581110000000  0.5042840000000  0.5089510000000 1.0
C      1  0.5273590000000  0.5110150000000  0.4731410000000 1.0
C      1  0.4808530000000  0.5749890000000  0.4311200000000 1.0
C      1  0.5923240000000  0.5255380000000  0.4490860000000 1.0
C      1  0.4554720000000  0.4469950000000  0.4456460000000 1.0
C      1  0.4708210000000  0.5190950000000  0.4871460000000 1.0
C      1  0.5124860000000  0.5085930000000  0.4976770000000 1.0
C      1  0.5699240000000  0.5622760000000  0.5658560000000 1.0
C      1  0.4460320000000  0.4785250000000  0.3992900000000 1.0
C      1  0.5443540000000  0.5763020000000  0.5688460000000 1.0
C      1  0.4514940000000  0.5116570000000  0.5655100000000 1.0
C      1  0.4226950000000  0.4777410000000  0.5521600000000 1.0
C      1  0.4636310000000  0.4691310000000  0.5970790000000 1.0
C      1  0.5064840000000  0.5177500000000  0.4362440000000 1.0
C      1  0.4329600000000  0.5594850000000  0.4526580000000 1.0
C      1  0.4569580000000  0.4860360000000  0.5534930000000 1.0
C      1  0.4746470000000  0.4671980000000  0.5696260000000 1.0
C      1  0.5418000000000  0.5861370000000  0.4590220000000 1.0
C      1  0.5192880000000  0.5769970000000  0.5277930000000 1.0
C      1  0.5022960000000  0.4524120000000  0.4731860000000 1.0
C      1  0.4842070000000  0.4714760000000  0.5123130000000 1.0
C      1  0.5912920000000  0.5627580000000  0.5153540000000 1.0
C      1  0.4285270000000  0.5350730000000  0.4697460000000 1.0
C      1  0.6028070000000  0.5153960000000  0.5064870000000 1.0
C      1  0.4254530000000  0.5181850000000  0.5765220000000 1.0
C      1  0.4436750000000  0.4369490000000  0.4929480000000 1.0
C      1  0.5334130000000  0.4791850000000  0.3898700000000 1.0
C      1  0.5118240000000  0.4849280000000  0.5143860000000 1.0
C      1  0.4960750000000  0.4012350000000  0.5312160000000 1.0
C      1  0.4341810000000  0.5510470000000  0.4967060000000 1.0
C      1  0.5561600000000  0.5134050000000  0.4816050000000 1.0
C      1  0.5549560000000  0.5972990000000  0.5207100000000 1.0
C      1  0.5793630000000  0.4466030000000  0.4780040000000 1.0
C      1  0.5075610000000  0.4949600000000  0.5416960000000 1.0
C      1  0.5188500000000  0.5340930000000  0.4567640000000 1.0
C      1  0.5039060000000  0.4329830000000  0.5330400000000 1.0
C      1  0.4693280000000  0.4233890000000  0.4368940000000 1.0
C      1  0.4947310000000  0.4261780000000  0.4831640000000 1.0
C      1  0.6038010000000  0.5431690000000  0.4972150000000 1.0
C      1  0.5736590000000  0.4762370000000  0.4478540000000 1.0
C      1  0.5390680000000  0.5902490000000  0.5439920000000 1.0
C      1  0.4614050000000  0.6090250000000  0.5149740000000 1.0
C      1  0.5785830000000  0.5033050000000  0.5490430000000 1.0
C      1  0.5999530000000  0.5460620000000  0.4682430000000 1.0
C      1  0.4737150000000  0.4229770000000  0.4028360000000 1.0
C      1  0.5589340000000  0.5031560000000  0.5081090000000 1.0
C      1  0.4010700000000  0.4679970000000  0.4726460000000 1.0
C      1  0.5730270000000  0.4654330000000  0.5739070000000 1.0
C      1  0.4310780000000  0.5830220000000  0.4690600000000 1.0
C      1  0.5181430000000  0.4494770000000  0.5533770000000 1.0
C      1  0.4083280000000  0.5040490000000  0.5565220000000 1.0
C      1  0.4472130000000  0.5138100000000  0.4485510000000 1.0
C      1  0.5703120000000  0.5343940000000  0.5749640000000 1.0
C      1  0.5482610000000  0.4074210000000  0.4468470000000 1.0
C      1  0.4557370000000  0.5579550000000  0.4332990000000 1.0
C      1  0.5302490000000  0.4602180000000  0.4743380000000 1.0
C      1  0.5010190000000  0.5498920000000  0.4760500000000 1.0
C      1  0.5863910000000  0.4713690000000  0.5510380000000 1.0
C      1  0.5761390000000  0.4216770000000  0.4926960000000 1.0
C      1  0.3970960000000  0.4353810000000  0.5678120000000 1.0
C      1  0.5006160000000  0.5543460000000  0.5989560000000 1.0
C      1  0.4855030000000  0.4916010000000  0.4036480000000 1.0
C      1  0.4600480000000  0.5306010000000  0.4279110000000 1.0
C      1  0.4971030000000  0.5620720000000  0.5721550000000 1.0
C      1  0.4806400000000  0.6019670000000  0.5370690000000 1.0
C      1  0.5878640000000  0.4673860000000  0.5000280000000 1.0
C      1  0.5065460000000  0.4474670000000  0.4240820000000 1.0
C      1  0.5140190000000  0.4170970000000  0.5764720000000 1.0
C      1  0.5669380000000  0.5851210000000  0.4748360000000 1.0
C      1  0.4984730000000  0.4932110000000  0.4494560000000 1.0
C      1  0.5505440000000  0.5141380000000  0.5658540000000 1.0
C      1  0.5360460000000  0.4283960000000  0.5619830000000 1.0
C      1  0.4290740000000  0.4226280000000  0.4726530000000 1.0
C      1  0.4130460000000  0.4446550000000  0.4598020000000 1.0
C      1  0.4813420000000  0.4457360000000  0.5226430000000 1.0
C      1  0.5783220000000  0.4797780000000  0.4188360000000 1.0
C      1  0.4383720000000  0.5919940000000  0.5212040000000 1.0
C      1  0.5060960000000  0.4739310000000  0.5650880000000 1.0
C      1  0.5501940000000  0.5470560000000  0.4218230000000 1.0
C      1  0.5236250000000  0.5618350000000  0.5831040000000 1.0
C      1  0.5612730000000  0.4099320000000  0.4717770000000 1.0
C      1  0.4183120000000  0.4709780000000  0.5214150000000 1.0
C      1  0.4980680000000  0.5018250000000  0.6071850000000 1.0
C      1  0.4788650000000  0.4700100000000  0.4809190000000 1.0
C      1  0.5309710000000  0.5391900000000  0.5259980000000 1.0
C      1  0.4732070000000  0.4989010000000  0.4656890000000 1.0
C      1  0.5420470000000  0.4971980000000  0.5881490000000 1.0
C      1  0.4878580000000  0.4177760000000  0.5822170000000 1.0
C      1  0.4745880000000  0.5581740000000  0.4764320000000 1.0
C      1  0.5188190000000  0.4103160000000  0.4907060000000 1.0
C      1  0.5169960000000  0.4862450000000  0.5903100000000 1.0
C      1  0.4042310000000  0.4941830000000  0.4593700000000 1.0
C      1  0.4265000000000  0.4747320000000  0.4200810000000 1.0
C      1  0.4861440000000  0.5226530000000  0.4128810000000 1.0
C      1  0.5694970000000  0.5069680000000  0.4088230000000 1.0
C      1  0.4671750000000  0.5350980000000  0.5669560000000 1.0
C      1  0.4189500000000  0.4240120000000  0.5533520000000 1.0
C      1  0.5563510000000  0.5419820000000  0.4836270000000 1.0
C      1  0.4605730000000  0.5195280000000  0.6156550000000 1.0
C      1  0.4580340000000  0.4290850000000  0.5194280000000 1.0
C      1  0.5007810000000  0.4231200000000  0.4401460000000 1.0
C      1  0.4891600000000  0.5293200000000  0.6086810000000 1.0
C      1  0.4492680000000  0.5444410000000  0.5212420000000 1.0
C      1  0.4519280000000  0.4087130000000  0.4582020000000 1.0
C      1  0.5928000000000  0.5284500000000  0.5571190000000 1.0
C      1  0.4399280000000  0.5809500000000  0.5508750000000 1.0
C      1  0.5566380000000  0.4559560000000  0.4616320000000 1.0
C      1  0.5068650000000  0.5436680000000  0.4031890000000 1.0
C      1  0.5894000000000  0.4527000000000  0.5289950000000 1.0
C      1  0.5073460000000  0.5661110000000  0.4221090000000 1.0
C      1  0.5210890000000  0.4094030000000  0.4559320000000 1.0
C      1  0.4261990000000  0.5789160000000  0.4979060000000 1.0
C      1  0.5318190000000  0.5867010000000  0.5042550000000 1.0
C      1  0.4795960000000  0.5970870000000  0.4489450000000 1.0
C      1  0.4593030000000  0.6011550000000  0.5559540000000 1.0
C      1  0.5886490000000  0.5549930000000  0.5437540000000 1.0
C      1  0.5744590000000  0.4283390000000  0.5233700000000 1.0
C      1  0.5345880000000  0.4618620000000  0.5040950000000 1.0
C      1  0.6000610000000  0.4930550000000  0.4889810000000 1.0
C      1  0.4606110000000  0.5886220000000  0.4695240000000 1.0
C      1  0.4813280000000  0.5489920000000  0.5263570000000 1.0
C      1  0.5052960000000  0.3883960000000  0.5068050000000 1.0
C      1  0.4244690000000  0.4973900000000  0.4384680000000 1.0
C      1  0.4462660000000  0.4233310000000  0.5486420000000 1.0
C      1  0.4183460000000  0.4581700000000  0.5751200000000 1.0
C      1  0.4936240000000  0.5307020000000  0.5000120000000 1.0
C      1  0.5233910000000  0.4536270000000  0.3861390000000 1.0
C      1  0.4566160000000  0.4529370000000  0.4733780000000 1.0
C      1  0.3965670000000  0.5064150000000  0.5030020000000 1.0
C      1  0.5849220000000  0.5005290000000  0.4648900000000 1.0
C      1  0.5336850000000  0.5670470000000  0.4364260000000 1.0
C      1  0.4919240000000  0.5763880000000  0.5280830000000 1.0
C      1  0.4684110000000  0.3987590000000  0.5234640000000 1.0
C      1  0.4961290000000  0.6079770000000  0.4706880000000 1.0
C      1  0.4742520000000  0.4922590000000  0.5308100000000 1.0
C      1  0.5339090000000  0.5329650000000  0.4018690000000 1.0
C      1  0.5400450000000  0.5528730000000  0.5040940000000 1.0
C      1  0.5224070000000  0.5979470000000  0.4766030000000 1.0
C      1  0.5438230000000  0.5051880000000  0.3937480000000 1.0
C      1  0.5486220000000  0.4226940000000  0.5349670000000 1.0
C      1  0.3971310000000  0.4765910000000  0.5010110000000 1.0
C      1  0.4332810000000  0.5236420000000  0.6050430000000 1.0
C      1  0.4646780000000  0.4829450000000  0.3863480000000 1.0
C      1  0.4938470000000  0.4409330000000  0.3977340000000 1.0
C      1  0.4618800000000  0.4348250000000  0.5718560000000 1.0
C      1  0.5794730000000  0.5125400000000  0.5228790000000 1.0
C      1  0.5299690000000  0.4306970000000  0.5136170000000 1.0
C      1  0.5730360000000  0.5581230000000  0.4660630000000 1.0
C      1  0.4424020000000  0.4499120000000  0.5898770000000 1.0
END
