TITL C-4164246-3563-298 7.2598126450562 125000 -11196.317325977 0 0 76 (C1) n - 1
REM
REM in /home/nfs/bkarasulu/CARBON/AIRSS/Generating-Clusters/ReaxFF-fromJPCA2015/Units_Real/with-SteepDescent/Only-C1/SD-CG/Try1-3A/FIRE-CG
REM
REM
REM
REM
REM
REM ./C.cell (11c1c37f851c82e70ff6c80c92926a4b)
REM
REM compiler GCC version 9.2.1 20190827 (Red Hat 9.2.1-1)
REM options -cpp -mtune=generic -march=x86-64 -g -O0 -fpre-include=/usr/include/finclude/math-vector-fortran.h
REM seed 1896010783 6797589 -1566165730 -2041398571 -19544176 -680926016 -1926165763 300244039 -1865422481 746726419 -2068745547 -999174961 1912422904 931053286 1576483753 -1909072524 1800000386 -1030406880 228239019 -41243507 -1816265910 1624985062 -1035875961 896345780 889359657 -679818306 1203496732 5395398 454696935 932554058 -295551763 1849787015 -1335529505
REM
CELL 1.54180   50.00000   50.00000   50.00000   90.00000   90.00000   90.00000
LATT -1
SFAC C  
C      1  0.4690210000000  0.5503820000000  0.5472970000000 1.0
C      1  0.4795290000000  0.5512200000000  0.4527290000000 1.0
C      1  0.5193060000000  0.5201890000000  0.4184490000000 1.0
C      1  0.4772410000000  0.4411150000000  0.5488730000000 1.0
C      1  0.5130270000000  0.5795490000000  0.5203190000000 1.0
C      1  0.5178640000000  0.5486310000000  0.5655320000000 1.0
C      1  0.5320950000000  0.4429960000000  0.4600920000000 1.0
C      1  0.5460400000000  0.5133150000000  0.5495300000000 1.0
C      1  0.5553660000000  0.5447090000000  0.4676790000000 1.0
C      1  0.5755440000000  0.5069880000000  0.4694620000000 1.0
C      1  0.4829610000000  0.4980800000000  0.4640070000000 1.0
C      1  0.5213210000000  0.5425370000000  0.4348820000000 1.0
C      1  0.5374200000000  0.4343850000000  0.5120400000000 1.0
C      1  0.4506770000000  0.5582400000000  0.4576080000000 1.0
C      1  0.5301320000000  0.4409080000000  0.5521200000000 1.0
C      1  0.5308430000000  0.5029480000000  0.4747790000000 1.0
C      1  0.5094200000000  0.4755040000000  0.5482920000000 1.0
C      1  0.4694580000000  0.4830500000000  0.4391580000000 1.0
C      1  0.4910360000000  0.5527770000000  0.5619470000000 1.0
C      1  0.5472770000000  0.5543250000000  0.5209590000000 1.0
C      1  0.5335890000000  0.5713320000000  0.5004510000000 1.0
C      1  0.5285570000000  0.5197860000000  0.5691150000000 1.0
C      1  0.5085540000000  0.5619540000000  0.4531280000000 1.0
C      1  0.4984490000000  0.4219930000000  0.5088300000000 1.0
C      1  0.5103150000000  0.4915000000000  0.4589110000000 1.0
C      1  0.4539130000000  0.4402020000000  0.5078100000000 1.0
C      1  0.4943260000000  0.4780220000000  0.5849780000000 1.0
C      1  0.5619540000000  0.5046450000000  0.5293540000000 1.0
C      1  0.5005690000000  0.4542010000000  0.5631310000000 1.0
C      1  0.4950610000000  0.5117230000000  0.5228340000000 1.0
C      1  0.4719620000000  0.4567650000000  0.4912090000000 1.0
C      1  0.4904320000000  0.5379410000000  0.5239050000000 1.0
C      1  0.5110320000000  0.4953890000000  0.5680450000000 1.0
C      1  0.4612210000000  0.5687630000000  0.5261960000000 1.0
C      1  0.5733450000000  0.5301870000000  0.4862910000000 1.0
C      1  0.5062120000000  0.4729960000000  0.5207540000000 1.0
C      1  0.4418430000000  0.5532390000000  0.5112650000000 1.0
C      1  0.4298810000000  0.5383820000000  0.4619480000000 1.0
C      1  0.5529880000000  0.4784040000000  0.5169050000000 1.0
C      1  0.4824340000000  0.4324770000000  0.4543910000000 1.0
C      1  0.5682670000000  0.4851620000000  0.4522070000000 1.0
C      1  0.4295950000000  0.5078550000000  0.4646160000000 1.0
C      1  0.5522750000000  0.4632500000000  0.4665930000000 1.0
C      1  0.4712520000000  0.4904750000000  0.5764570000000 1.0
C      1  0.5636450000000  0.5310730000000  0.5147690000000 1.0
C      1  0.5314820000000  0.4322590000000  0.4856230000000 1.0
C      1  0.5319480000000  0.5618830000000  0.4725510000000 1.0
C      1  0.5550100000000  0.5030280000000  0.4328290000000 1.0
C      1  0.4446330000000  0.4815230000000  0.5371470000000 1.0
C      1  0.4494540000000  0.5286240000000  0.5501560000000 1.0
C      1  0.4816300000000  0.5282540000000  0.4703390000000 1.0
C      1  0.4907400000000  0.4640440000000  0.4296500000000 1.0
C      1  0.4683920000000  0.4852680000000  0.4879030000000 1.0
C      1  0.5266340000000  0.5626290000000  0.5413890000000 1.0
C      1  0.5119110000000  0.4831140000000  0.4320880000000 1.0
C      1  0.5479120000000  0.4526670000000  0.5303910000000 1.0
C      1  0.5450000000000  0.4815560000000  0.4890260000000 1.0
C      1  0.4886210000000  0.5438630000000  0.4934940000000 1.0
C      1  0.4883470000000  0.4917990000000  0.5103380000000 1.0
C      1  0.4694770000000  0.4154880000000  0.5020420000000 1.0
C      1  0.4842100000000  0.5821370000000  0.5123550000000 1.0
C      1  0.4508860000000  0.5003940000000  0.5596820000000 1.0
C      1  0.4676320000000  0.4204390000000  0.4738060000000 1.0
C      1  0.5416380000000  0.5226970000000  0.4526740000000 1.0
C      1  0.4356720000000  0.5283440000000  0.5255470000000 1.0
C      1  0.5323430000000  0.4952690000000  0.4155990000000 1.0
C      1  0.4340000000000  0.4997440000000  0.5169660000000 1.0
C      1  0.4912450000000  0.4180880000000  0.5376400000000 1.0
C      1  0.4454250000000  0.4916270000000  0.4481560000000 1.0
C      1  0.5187230000000  0.4140700000000  0.5517100000000 1.0
C      1  0.4392390000000  0.4944900000000  0.4889490000000 1.0
C      1  0.4970340000000  0.4511700000000  0.5040070000000 1.0
C      1  0.5046970000000  0.4430550000000  0.4443300000000 1.0
C      1  0.4886680000000  0.5712420000000  0.4866080000000 1.0
C      1  0.4349710000000  0.5578090000000  0.4828880000000 1.0
C      1  0.4551770000000  0.4538630000000  0.5342720000000 1.0
END
