TITL C-4164237-1827-672 112.913817024167 125000 -29166.5650399615 0 0 196 (C1) n - 1
REM
REM in /home/nfs/bkarasulu/CARBON/AIRSS/Generating-Clusters/ReaxFF-fromJPCA2015/Units_Real/with-SteepDescent/Only-C1/SD-CG/Try1-3A/FIRE-CG
REM
REM
REM
REM
REM
REM ./C.cell (11c1c37f851c82e70ff6c80c92926a4b)
REM
REM compiler GCC version 9.2.1 20190827 (Red Hat 9.2.1-1)
REM options -cpp -mtune=generic -march=x86-64 -g -O0 -fpre-include=/usr/include/finclude/math-vector-fortran.h
REM seed 1541098841 -452466055 959092701 659383394 1104900958 58116460 358450899 1364188693 -1060384478 1733091806 1812312209 -1010693025 -544472101 1841803837 -2131064814 -1593750187 286446042 -570388169 172816039 392230186 -1622215945 1451920935 -1424739265 648932373 1903954518 -297971876 1450179041 1559015733 -1815546083 -1488100113 2060117637 -1180078622 -1485583835
REM
CELL 1.54180   50.00000   50.00000   50.00000   90.00000   90.00000   90.00000
LATT -1
SFAC C  
C      1  0.5440860000000  0.6103310000000  0.5055310000000 1.0
C      1  0.5354950000000  0.3851450000000  0.5282610000000 1.0
C      1  0.5448080000000  0.5270000000000  0.4681830000000 1.0
C      1  0.4949500000000  0.4883690000000  0.3786000000000 1.0
C      1  0.5573810000000  0.4416100000000  0.4826870000000 1.0
C      1  0.5240310000000  0.5078250000000  0.5748860000000 1.0
C      1  0.4697040000000  0.5098220000000  0.4915270000000 1.0
C      1  0.5146220000000  0.4790120000000  0.4567260000000 1.0
C      1  0.4562830000000  0.4150720000000  0.5077850000000 1.0
C      1  0.4628220000000  0.5425580000000  0.5626310000000 1.0
C      1  0.4426300000000  0.5124520000000  0.5284030000000 1.0
C      1  0.4523910000000  0.5081740000000  0.4503000000000 1.0
C      1  0.5661770000000  0.5524750000000  0.5388490000000 1.0
C      1  0.5088790000000  0.6139980000000  0.4756670000000 1.0
C      1  0.4285430000000  0.4705670000000  0.5857820000000 1.0
C      1  0.5729550000000  0.4878860000000  0.4909220000000 1.0
C      1  0.4016050000000  0.5178540000000  0.5342950000000 1.0
C      1  0.4883570000000  0.4804270000000  0.6019540000000 1.0
C      1  0.4561700000000  0.5642820000000  0.4043390000000 1.0
C      1  0.5846610000000  0.4850280000000  0.5690740000000 1.0
C      1  0.5981820000000  0.5334540000000  0.4290370000000 1.0
C      1  0.5198260000000  0.6123630000000  0.5215500000000 1.0
C      1  0.4354040000000  0.5074670000000  0.4001760000000 1.0
C      1  0.5432510000000  0.4026150000000  0.4443010000000 1.0
C      1  0.4055810000000  0.4392300000000  0.5247940000000 1.0
C      1  0.5669690000000  0.4268470000000  0.5289350000000 1.0
C      1  0.4680800000000  0.5867560000000  0.5661980000000 1.0
C      1  0.4653870000000  0.5029980000000  0.5418960000000 1.0
C      1  0.4217840000000  0.4842810000000  0.4137730000000 1.0
C      1  0.5003950000000  0.5343550000000  0.4488310000000 1.0
C      1  0.4283920000000  0.4371360000000  0.5440780000000 1.0
C      1  0.4471120000000  0.5278290000000  0.5019580000000 1.0
C      1  0.4222890000000  0.5610290000000  0.5543950000000 1.0
C      1  0.4803710000000  0.4746210000000  0.5739420000000 1.0
C      1  0.6151280000000  0.4978560000000  0.5237550000000 1.0
C      1  0.4818490000000  0.4875250000000  0.5251750000000 1.0
C      1  0.4421190000000  0.4915940000000  0.4667130000000 1.0
C      1  0.4573700000000  0.4005340000000  0.5333550000000 1.0
C      1  0.5650140000000  0.5006340000000  0.5851270000000 1.0
C      1  0.6034090000000  0.5671820000000  0.5335050000000 1.0
C      1  0.5511310000000  0.5444510000000  0.5621580000000 1.0
C      1  0.4729410000000  0.5612010000000  0.5436190000000 1.0
C      1  0.4787350000000  0.5543120000000  0.4441040000000 1.0
C      1  0.4879800000000  0.4696850000000  0.4046290000000 1.0
C      1  0.5251190000000  0.5473650000000  0.4066630000000 1.0
C      1  0.5528890000000  0.5369760000000  0.5903020000000 1.0
C      1  0.4535590000000  0.4673450000000  0.5689670000000 1.0
C      1  0.4923580000000  0.4419240000000  0.4710610000000 1.0
C      1  0.4968630000000  0.4648720000000  0.5492250000000 1.0
C      1  0.4166150000000  0.5574310000000  0.4420220000000 1.0
C      1  0.5220130000000  0.5731060000000  0.4234240000000 1.0
C      1  0.4309570000000  0.4862640000000  0.5303270000000 1.0
C      1  0.4050870000000  0.4565290000000  0.4482960000000 1.0
C      1  0.5085680000000  0.3888760000000  0.5170380000000 1.0
C      1  0.4787730000000  0.4391690000000  0.5994990000000 1.0
C      1  0.4667660000000  0.4816990000000  0.4989090000000 1.0
C      1  0.4385510000000  0.5090460000000  0.6014070000000 1.0
C      1  0.4567300000000  0.5665210000000  0.5208950000000 1.0
C      1  0.5064710000000  0.4205990000000  0.4112030000000 1.0
C      1  0.6170450000000  0.4756570000000  0.5053140000000 1.0
C      1  0.4962440000000  0.5779760000000  0.4375720000000 1.0
C      1  0.5443530000000  0.5658310000000  0.4982560000000 1.0
C      1  0.4661520000000  0.4356350000000  0.4284520000000 1.0
C      1  0.4690140000000  0.3984050000000  0.4457050000000 1.0
C      1  0.4863820000000  0.5161120000000  0.3804560000000 1.0
C      1  0.5988080000000  0.4521440000000  0.5141750000000 1.0
C      1  0.5415760000000  0.5837190000000  0.4397740000000 1.0
C      1  0.5291250000000  0.5471150000000  0.5996960000000 1.0
C      1  0.4869490000000  0.4763580000000  0.4499580000000 1.0
C      1  0.5254420000000  0.5034100000000  0.6030760000000 1.0
C      1  0.5395420000000  0.4787840000000  0.4420530000000 1.0
C      1  0.5300070000000  0.5241530000000  0.5138930000000 1.0
C      1  0.5856650000000  0.4635560000000  0.4488650000000 1.0
C      1  0.4670920000000  0.4639390000000  0.6129350000000 1.0
C      1  0.4627830000000  0.4253140000000  0.5794360000000 1.0
C      1  0.5462990000000  0.4157060000000  0.5701360000000 1.0
C      1  0.5235900000000  0.5453390000000  0.4612620000000 1.0
C      1  0.6098680000000  0.5397970000000  0.4552000000000 1.0
C      1  0.4983640000000  0.5061760000000  0.6136610000000 1.0
C      1  0.3967880000000  0.4518710000000  0.4762620000000 1.0
C      1  0.4927600000000  0.5103230000000  0.5094530000000 1.0
C      1  0.4337060000000  0.4579020000000  0.4109510000000 1.0
C      1  0.4464850000000  0.4172680000000  0.5567430000000 1.0
C      1  0.5341900000000  0.5103160000000  0.4893770000000 1.0
C      1  0.4671950000000  0.5562150000000  0.4961060000000 1.0
C      1  0.5014740000000  0.5555870000000  0.6023210000000 1.0
C      1  0.4394110000000  0.5290650000000  0.4189570000000 1.0
C      1  0.4835660000000  0.4918980000000  0.4260560000000 1.0
C      1  0.5194150000000  0.5642160000000  0.4828020000000 1.0
C      1  0.4425770000000  0.4699520000000  0.4861190000000 1.0
C      1  0.5880900000000  0.5553320000000  0.4683240000000 1.0
C      1  0.5040250000000  0.5115480000000  0.4309280000000 1.0
C      1  0.4149270000000  0.5665740000000  0.5036700000000 1.0
C      1  0.4061340000000  0.5324440000000  0.4488220000000 1.0
C      1  0.3888070000000  0.4739200000000  0.4941240000000 1.0
C      1  0.4093580000000  0.4339820000000  0.4958710000000 1.0
C      1  0.5725310000000  0.4873550000000  0.5209760000000 1.0
C      1  0.4840250000000  0.3922980000000  0.5289720000000 1.0
C      1  0.5533910000000  0.3722360000000  0.5056060000000 1.0
C      1  0.3932030000000  0.4649120000000  0.5214700000000 1.0
C      1  0.4405220000000  0.5741440000000  0.5733280000000 1.0
C      1  0.4178990000000  0.5137990000000  0.5795690000000 1.0
C      1  0.4231750000000  0.4395090000000  0.4316870000000 1.0
C      1  0.5500610000000  0.3885150000000  0.4823700000000 1.0
C      1  0.4956070000000  0.5540050000000  0.4960570000000 1.0
C      1  0.5705520000000  0.5277290000000  0.4293700000000 1.0
C      1  0.4092320000000  0.4881080000000  0.5723910000000 1.0
C      1  0.5567850000000  0.5955730000000  0.4595950000000 1.0
C      1  0.4320200000000  0.5556120000000  0.4158310000000 1.0
C      1  0.3974770000000  0.5068810000000  0.4559270000000 1.0
C      1  0.5217280000000  0.4205840000000  0.5823360000000 1.0
C      1  0.4872410000000  0.4373270000000  0.5402090000000 1.0
C      1  0.5189830000000  0.5533950000000  0.5580980000000 1.0
C      1  0.4598460000000  0.5662540000000  0.4680960000000 1.0
C      1  0.4604330000000  0.5080450000000  0.3875990000000 1.0
C      1  0.4859490000000  0.3946360000000  0.4680780000000 1.0
C      1  0.4620820000000  0.4530870000000  0.4061320000000 1.0
C      1  0.5226880000000  0.4741650000000  0.5033450000000 1.0
C      1  0.4268920000000  0.5871160000000  0.4890450000000 1.0
C      1  0.5377150000000  0.6122040000000  0.4779010000000 1.0
C      1  0.4979230000000  0.6165850000000  0.5029610000000 1.0
C      1  0.5317440000000  0.5045530000000  0.4276920000000 1.0
C      1  0.4799760000000  0.4334750000000  0.5120390000000 1.0
C      1  0.5769080000000  0.5807440000000  0.4754630000000 1.0
C      1  0.6220200000000  0.4931570000000  0.4830720000000 1.0
C      1  0.5577700000000  0.4421020000000  0.5797040000000 1.0
C      1  0.5128970000000  0.5832280000000  0.5674360000000 1.0
C      1  0.5382470000000  0.4560890000000  0.5954110000000 1.0
C      1  0.5163890000000  0.4903320000000  0.4817680000000 1.0
C      1  0.5721710000000  0.5313500000000  0.4691740000000 1.0
C      1  0.4775450000000  0.6043710000000  0.5431970000000 1.0
C      1  0.4052920000000  0.4834750000000  0.4375430000000 1.0
C      1  0.4773260000000  0.5191430000000  0.5608690000000 1.0
C      1  0.5796130000000  0.4348020000000  0.5015490000000 1.0
C      1  0.4522090000000  0.6030200000000  0.4932630000000 1.0
C      1  0.4559500000000  0.5315110000000  0.6084060000000 1.0
C      1  0.4125630000000  0.5333750000000  0.5567450000000 1.0
C      1  0.5023500000000  0.4297230000000  0.4920020000000 1.0
C      1  0.5098390000000  0.4389350000000  0.5957910000000 1.0
C      1  0.5273410000000  0.4615390000000  0.5463920000000 1.0
C      1  0.4716310000000  0.6099560000000  0.5146180000000 1.0
C      1  0.4443480000000  0.4216390000000  0.4411730000000 1.0
C      1  0.5465160000000  0.4832860000000  0.6013070000000 1.0
C      1  0.4634550000000  0.5260300000000  0.4326250000000 1.0
C      1  0.4291950000000  0.5716510000000  0.5272420000000 1.0
C      1  0.5495870000000  0.5451370000000  0.5170260000000 1.0
C      1  0.5196210000000  0.3994060000000  0.4262510000000 1.0
C      1  0.5721790000000  0.4624360000000  0.4085030000000 1.0
C      1  0.5396440000000  0.4415660000000  0.5296010000000 1.0
C      1  0.6187590000000  0.5153720000000  0.4678160000000 1.0
C      1  0.4656210000000  0.5962900000000  0.4686810000000 1.0
C      1  0.5510260000000  0.4040120000000  0.5436040000000 1.0
C      1  0.4918120000000  0.5784600000000  0.5854430000000 1.0
C      1  0.5830320000000  0.5142900000000  0.4892490000000 1.0
C      1  0.5899850000000  0.4441180000000  0.5409790000000 1.0
C      1  0.4427260000000  0.4806340000000  0.6089980000000 1.0
C      1  0.5096180000000  0.4007290000000  0.4864820000000 1.0
C      1  0.3926760000000  0.5015870000000  0.4851880000000 1.0
C      1  0.4913280000000  0.6003380000000  0.4558680000000 1.0
C      1  0.6048850000000  0.5219430000000  0.5083200000000 1.0
C      1  0.5778280000000  0.5772770000000  0.5316550000000 1.0
C      1  0.5113100000000  0.4491510000000  0.4109000000000 1.0
C      1  0.5371370000000  0.4497250000000  0.5032700000000 1.0
C      1  0.4016370000000  0.4878960000000  0.5417270000000 1.0
C      1  0.4851200000000  0.5319180000000  0.6113880000000 1.0
C      1  0.5888240000000  0.5094340000000  0.4181320000000 1.0
C      1  0.5049780000000  0.5262150000000  0.5651460000000 1.0
C      1  0.4776180000000  0.5591020000000  0.3972260000000 1.0
C      1  0.4734510000000  0.4513390000000  0.4564430000000 1.0
C      1  0.4300550000000  0.5689810000000  0.4661810000000 1.0
C      1  0.5627970000000  0.4186080000000  0.4288890000000 1.0
C      1  0.5007160000000  0.5434950000000  0.3923330000000 1.0
C      1  0.4485390000000  0.4475950000000  0.4712810000000 1.0
C      1  0.5500670000000  0.4934860000000  0.5374610000000 1.0
C      1  0.4428220000000  0.4620950000000  0.5419640000000 1.0
C      1  0.5495990000000  0.5095550000000  0.5617230000000 1.0
C      1  0.5341220000000  0.4586110000000  0.4217410000000 1.0
C      1  0.5801280000000  0.4369400000000  0.4402610000000 1.0
C      1  0.5887610000000  0.4801990000000  0.4224720000000 1.0
C      1  0.5523060000000  0.4411670000000  0.4094010000000 1.0
C      1  0.4003510000000  0.5216020000000  0.5049030000000 1.0
C      1  0.5806410000000  0.4565130000000  0.5658890000000 1.0
C      1  0.5638280000000  0.4699020000000  0.4682190000000 1.0
C      1  0.5920220000000  0.4934180000000  0.5415080000000 1.0
C      1  0.6046010000000  0.5466110000000  0.5220910000000 1.0
C      1  0.5440820000000  0.5266890000000  0.4157710000000 1.0
C      1  0.5399600000000  0.4128590000000  0.4718840000000 1.0
C      1  0.5260850000000  0.4843340000000  0.5292800000000 1.0
C      1  0.4524880000000  0.5513570000000  0.5869130000000 1.0
C      1  0.5654160000000  0.5876660000000  0.5041660000000 1.0
C      1  0.4903110000000  0.3991310000000  0.4246280000000 1.0
C      1  0.5040180000000  0.5350690000000  0.5162170000000 1.0
C      1  0.4204730000000  0.5400940000000  0.4944560000000 1.0
C      1  0.4380730000000  0.4291680000000  0.4898200000000 1.0
C      1  0.5062530000000  0.6031470000000  0.5466790000000 1.0
C      1  0.5000550000000  0.5546670000000  0.5361390000000 1.0
END
