TITL C-4164246-3563-401 -0.294879484022097 125000 -12310.0478492117 0 0 83 (C1) n - 1
REM
REM in /home/nfs/bkarasulu/CARBON/AIRSS/Generating-Clusters/ReaxFF-fromJPCA2015/Units_Real/with-SteepDescent/Only-C1/SD-CG/Try1-3A/FIRE-CG
REM
REM
REM
REM
REM
REM ./C.cell (11c1c37f851c82e70ff6c80c92926a4b)
REM
REM compiler GCC version 9.2.1 20190827 (Red Hat 9.2.1-1)
REM options -cpp -mtune=generic -march=x86-64 -g -O0 -fpre-include=/usr/include/finclude/math-vector-fortran.h
REM seed -1886086676 -1792948641 1757211900 309474274 1342497564 296261922 1558202361 963628765 -1568934758 -2047228433 -1121990708 348269330 -661022512 -1356129030 182816366 -1480665909 1059437394 261934533 153234659 -575429052 345333773 -746349171 -964526735 -1766812215 894423080 -630865384 -768833525 -303391819 2068073143 -1479365598 -1101342296 -317555892 1396827703
REM
CELL 1.54180   50.00000   50.00000   50.00000   90.00000   90.00000   90.00000
LATT -1
SFAC C  
C      1  0.5483190000000  0.5072330000000  0.4246150000000 1.0
C      1  0.5070230000000  0.4639330000000  0.5968540000000 1.0
C      1  0.5303010000000  0.4926070000000  0.5230210000000 1.0
C      1  0.4452190000000  0.5408040000000  0.5267620000000 1.0
C      1  0.4569310000000  0.5646240000000  0.4729530000000 1.0
C      1  0.4655470000000  0.4822820000000  0.5750020000000 1.0
C      1  0.4705340000000  0.5490700000000  0.4492290000000 1.0
C      1  0.4698600000000  0.4919630000000  0.4762720000000 1.0
C      1  0.4225890000000  0.4463210000000  0.5286170000000 1.0
C      1  0.4660890000000  0.5261880000000  0.5414860000000 1.0
C      1  0.5124190000000  0.3990640000000  0.5451790000000 1.0
C      1  0.4888020000000  0.4340310000000  0.5118450000000 1.0
C      1  0.4256220000000  0.4883170000000  0.4984580000000 1.0
C      1  0.4925720000000  0.4575380000000  0.5303080000000 1.0
C      1  0.4999690000000  0.4446210000000  0.4595190000000 1.0
C      1  0.5352640000000  0.4767240000000  0.4682810000000 1.0
C      1  0.4827440000000  0.4905940000000  0.4492630000000 1.0
C      1  0.5570240000000  0.5481150000000  0.4950580000000 1.0
C      1  0.4392570000000  0.4380480000000  0.5513030000000 1.0
C      1  0.5217550000000  0.5001780000000  0.4771220000000 1.0
C      1  0.4689290000000  0.4458310000000  0.4567020000000 1.0
C      1  0.5051850000000  0.5764980000000  0.4611270000000 1.0
C      1  0.5089900000000  0.5128170000000  0.5873020000000 1.0
C      1  0.4984900000000  0.4379090000000  0.4852810000000 1.0
C      1  0.5136710000000  0.4860440000000  0.5007940000000 1.0
C      1  0.4425580000000  0.4259410000000  0.5242770000000 1.0
C      1  0.5178090000000  0.4483970000000  0.5399650000000 1.0
C      1  0.5422330000000  0.5637950000000  0.4757640000000 1.0
C      1  0.5759690000000  0.4804790000000  0.4869510000000 1.0
C      1  0.4990590000000  0.5678070000000  0.5389120000000 1.0
C      1  0.4890910000000  0.5127550000000  0.5200300000000 1.0
C      1  0.4182990000000  0.5148730000000  0.4925380000000 1.0
C      1  0.5746230000000  0.4967350000000  0.5475620000000 1.0
C      1  0.4765310000000  0.5716070000000  0.4920410000000 1.0
C      1  0.5608780000000  0.4764530000000  0.4615200000000 1.0
C      1  0.4252930000000  0.4753780000000  0.5229610000000 1.0
C      1  0.4315760000000  0.4848970000000  0.5507150000000 1.0
C      1  0.4486340000000  0.4749910000000  0.4883580000000 1.0
C      1  0.4440200000000  0.4626300000000  0.5665570000000 1.0
C      1  0.4535880000000  0.4471350000000  0.4805920000000 1.0
C      1  0.5663510000000  0.4702740000000  0.5378730000000 1.0
C      1  0.5250930000000  0.5177340000000  0.4148120000000 1.0
C      1  0.5821130000000  0.5064420000000  0.4970500000000 1.0
C      1  0.5047640000000  0.4782760000000  0.4358470000000 1.0
C      1  0.5446580000000  0.5410520000000  0.5201260000000 1.0
C      1  0.4766370000000  0.5536070000000  0.5466820000000 1.0
C      1  0.4569940000000  0.5267010000000  0.4320800000000 1.0
C      1  0.4762330000000  0.5059510000000  0.4256460000000 1.0
C      1  0.4410530000000  0.4883300000000  0.4400080000000 1.0
C      1  0.5463130000000  0.5480230000000  0.4520070000000 1.0
C      1  0.4254100000000  0.5409860000000  0.5073400000000 1.0
C      1  0.4519780000000  0.5029860000000  0.5611210000000 1.0
C      1  0.4895630000000  0.4836140000000  0.5170100000000 1.0
C      1  0.4941730000000  0.4846400000000  0.5887730000000 1.0
C      1  0.4220650000000  0.5277240000000  0.4671820000000 1.0
C      1  0.5180120000000  0.5801770000000  0.4857180000000 1.0
C      1  0.5369680000000  0.4705930000000  0.5407020000000 1.0
C      1  0.5027700000000  0.4985130000000  0.4146380000000 1.0
C      1  0.5212300000000  0.5392700000000  0.4380330000000 1.0
C      1  0.5155470000000  0.5529780000000  0.5594440000000 1.0
C      1  0.5291870000000  0.5262190000000  0.5570380000000 1.0
C      1  0.5740230000000  0.5290600000000  0.4822090000000 1.0
C      1  0.4883500000000  0.5329280000000  0.4711970000000 1.0
C      1  0.5649870000000  0.4373910000000  0.5118830000000 1.0
C      1  0.5845240000000  0.5134730000000  0.5256950000000 1.0
C      1  0.4973920000000  0.5601510000000  0.4399380000000 1.0
C      1  0.5522040000000  0.4137360000000  0.5170650000000 1.0
C      1  0.5684600000000  0.5365140000000  0.5360370000000 1.0
C      1  0.5671460000000  0.5279240000000  0.4549790000000 1.0
C      1  0.5757100000000  0.4624430000000  0.5102170000000 1.0
C      1  0.5119040000000  0.5222660000000  0.4628380000000 1.0
C      1  0.4324990000000  0.5151060000000  0.4417650000000 1.0
C      1  0.4983090000000  0.5755390000000  0.5078850000000 1.0
C      1  0.4778980000000  0.5151360000000  0.4921760000000 1.0
C      1  0.5586210000000  0.5200020000000  0.5579660000000 1.0
C      1  0.4609930000000  0.4296840000000  0.5018800000000 1.0
C      1  0.5228020000000  0.5208160000000  0.5276840000000 1.0
C      1  0.5265360000000  0.4186140000000  0.5373780000000 1.0
C      1  0.4311860000000  0.5524960000000  0.4795030000000 1.0
C      1  0.5242620000000  0.4613800000000  0.4494290000000 1.0
C      1  0.5670460000000  0.5001670000000  0.4432000000000 1.0
C      1  0.4518900000000  0.4639610000000  0.4435150000000 1.0
C      1  0.5028780000000  0.5418980000000  0.5853340000000 1.0
END
