TITL C-4164234-2335-523 67.3572709257392 125000 -15505.9941122994 0 0 106 (C1) n - 1
REM
REM in /home/nfs/bkarasulu/CARBON/AIRSS/Generating-Clusters/ReaxFF-fromJPCA2015/Units_Real/with-SteepDescent/Only-C1/SD-CG/Try1-3A/FIRE-CG
REM
REM
REM
REM
REM
REM ./C.cell (11c1c37f851c82e70ff6c80c92926a4b)
REM
REM compiler GCC version 9.2.1 20190827 (Red Hat 9.2.1-1)
REM options -cpp -mtune=generic -march=x86-64 -g -O0 -fpre-include=/usr/include/finclude/math-vector-fortran.h
REM seed -470571168 1303931834 2017628238 -387470775 -750085275 1108322033 89077719 -453287319 410639652 -497658708 -1735968967 1885983664 -1302384752 -1122194520 -1348952136 -1627893062 -178230810 703972229 385464556 73871776 -122565418 1798234918 -25927617 -1272283913 430225864 -342640843 -1735455191 -602973087 384861078 -1202068252 56487819 1579202709 1677178901
REM
CELL 1.54180   50.00000   50.00000   50.00000   90.00000   90.00000   90.00000
LATT -1
SFAC C  
C      1  0.5736670000000  0.4524360000000  0.4822580000000 1.0
C      1  0.4811370000000  0.4216360000000  0.4791390000000 1.0
C      1  0.5891260000000  0.5139250000000  0.5014910000000 1.0
C      1  0.5787910000000  0.5042750000000  0.4622080000000 1.0
C      1  0.4414520000000  0.4297960000000  0.5594600000000 1.0
C      1  0.4362520000000  0.4958570000000  0.4421650000000 1.0
C      1  0.4629250000000  0.4200160000000  0.4508070000000 1.0
C      1  0.4660970000000  0.5928450000000  0.5106380000000 1.0
C      1  0.5149380000000  0.4142490000000  0.4370940000000 1.0
C      1  0.5542730000000  0.5433970000000  0.4915290000000 1.0
C      1  0.4772800000000  0.5102120000000  0.4569200000000 1.0
C      1  0.4901680000000  0.5338900000000  0.4099470000000 1.0
C      1  0.5481530000000  0.4371260000000  0.5244370000000 1.0
C      1  0.4297090000000  0.5021300000000  0.4692120000000 1.0
C      1  0.4655420000000  0.4304840000000  0.5046890000000 1.0
C      1  0.4771470000000  0.4766140000000  0.4183890000000 1.0
C      1  0.4816400000000  0.4226960000000  0.5283120000000 1.0
C      1  0.5536330000000  0.4928090000000  0.4747560000000 1.0
C      1  0.5568290000000  0.4324740000000  0.4942660000000 1.0
C      1  0.4914840000000  0.4688660000000  0.4788690000000 1.0
C      1  0.4635910000000  0.4706450000000  0.5507660000000 1.0
C      1  0.5051960000000  0.4814380000000  0.5228030000000 1.0
C      1  0.4825720000000  0.5154700000000  0.5440540000000 1.0
C      1  0.5316390000000  0.4895270000000  0.4574630000000 1.0
C      1  0.4474710000000  0.5163360000000  0.4243350000000 1.0
C      1  0.4362950000000  0.5436820000000  0.5515610000000 1.0
C      1  0.4891180000000  0.4867620000000  0.5453700000000 1.0
C      1  0.5226470000000  0.5370980000000  0.5749810000000 1.0
C      1  0.5435370000000  0.5684630000000  0.4898500000000 1.0
C      1  0.4826810000000  0.4715960000000  0.5067430000000 1.0
C      1  0.4912820000000  0.5875660000000  0.5530160000000 1.0
C      1  0.5061960000000  0.4713540000000  0.4184800000000 1.0
C      1  0.5739580000000  0.4720220000000  0.5103930000000 1.0
C      1  0.4257180000000  0.4984320000000  0.5179190000000 1.0
C      1  0.5733150000000  0.5265290000000  0.5533900000000 1.0
C      1  0.4519750000000  0.4698060000000  0.4328720000000 1.0
C      1  0.5315710000000  0.5315010000000  0.5057620000000 1.0
C      1  0.4731120000000  0.5033600000000  0.4290790000000 1.0
C      1  0.5203290000000  0.4485330000000  0.5729500000000 1.0
C      1  0.4730320000000  0.5203330000000  0.5162980000000 1.0
C      1  0.5038420000000  0.4032200000000  0.4752280000000 1.0
C      1  0.4396050000000  0.4509080000000  0.5793470000000 1.0
C      1  0.4871510000000  0.4162960000000  0.4379490000000 1.0
C      1  0.5162750000000  0.5103820000000  0.4670400000000 1.0
C      1  0.4325470000000  0.5545500000000  0.5131530000000 1.0
C      1  0.4282570000000  0.4531600000000  0.5272540000000 1.0
C      1  0.4839010000000  0.5402240000000  0.4981910000000 1.0
C      1  0.4678150000000  0.5549260000000  0.4495620000000 1.0
C      1  0.5918400000000  0.4956620000000  0.5216160000000 1.0
C      1  0.4205670000000  0.5263520000000  0.5097130000000 1.0
C      1  0.5153680000000  0.5201500000000  0.4051340000000 1.0
C      1  0.4778020000000  0.5266900000000  0.5703650000000 1.0
C      1  0.5507230000000  0.4862180000000  0.5016840000000 1.0
C      1  0.4646350000000  0.5414530000000  0.4224240000000 1.0
C      1  0.5008260000000  0.5946150000000  0.4749680000000 1.0
C      1  0.5097120000000  0.4249420000000  0.5308790000000 1.0
C      1  0.4389260000000  0.4853890000000  0.4938670000000 1.0
C      1  0.5286060000000  0.4010220000000  0.4615680000000 1.0
C      1  0.5199040000000  0.5569120000000  0.4501630000000 1.0
C      1  0.4655470000000  0.5729300000000  0.5530420000000 1.0
C      1  0.5190520000000  0.5795360000000  0.5488350000000 1.0
C      1  0.5577970000000  0.5471310000000  0.5578630000000 1.0
C      1  0.5315960000000  0.4738580000000  0.5753690000000 1.0
C      1  0.4535680000000  0.5723680000000  0.4683360000000 1.0
C      1  0.5827590000000  0.5003870000000  0.5492910000000 1.0
C      1  0.5709180000000  0.4872600000000  0.4386930000000 1.0
C      1  0.5577680000000  0.4792640000000  0.5541560000000 1.0
C      1  0.5635490000000  0.4589310000000  0.5338940000000 1.0
C      1  0.4214170000000  0.4518650000000  0.5550910000000 1.0
C      1  0.5096750000000  0.5496520000000  0.5086410000000 1.0
C      1  0.5213990000000  0.4669850000000  0.4431220000000 1.0
C      1  0.4359320000000  0.5165070000000  0.5540800000000 1.0
C      1  0.4722560000000  0.5900050000000  0.4824230000000 1.0
C      1  0.4511160000000  0.5734640000000  0.5272510000000 1.0
C      1  0.5324290000000  0.5132050000000  0.5663830000000 1.0
C      1  0.5499940000000  0.4978180000000  0.4186800000000 1.0
C      1  0.4899420000000  0.5984490000000  0.5262790000000 1.0
C      1  0.5143290000000  0.5804720000000  0.5197950000000 1.0
C      1  0.4462370000000  0.4524560000000  0.5053130000000 1.0
C      1  0.5799160000000  0.5279850000000  0.4800570000000 1.0
C      1  0.4648970000000  0.4399950000000  0.5453990000000 1.0
C      1  0.5189660000000  0.4982040000000  0.5856360000000 1.0
C      1  0.5237480000000  0.4402790000000  0.4531330000000 1.0
C      1  0.4558350000000  0.4445710000000  0.4419970000000 1.0
C      1  0.5735410000000  0.4637360000000  0.4556100000000 1.0
C      1  0.4356630000000  0.4902760000000  0.5445720000000 1.0
C      1  0.4772200000000  0.5365400000000  0.4689980000000 1.0
C      1  0.5017420000000  0.4442970000000  0.4714980000000 1.0
C      1  0.5307350000000  0.5000230000000  0.5175020000000 1.0
C      1  0.4652730000000  0.4646740000000  0.5806070000000 1.0
C      1  0.4663910000000  0.4958040000000  0.5012870000000 1.0
C      1  0.5465790000000  0.4229260000000  0.4696140000000 1.0
C      1  0.4938670000000  0.4563510000000  0.5812920000000 1.0
C      1  0.4337750000000  0.5565580000000  0.4836790000000 1.0
C      1  0.5006270000000  0.5218650000000  0.5878240000000 1.0
C      1  0.5343620000000  0.5608940000000  0.5636590000000 1.0
C      1  0.5253750000000  0.5905380000000  0.4923760000000 1.0
C      1  0.5398630000000  0.5249940000000  0.4218430000000 1.0
C      1  0.5124980000000  0.5785900000000  0.4554450000000 1.0
C      1  0.5431740000000  0.5019370000000  0.5439440000000 1.0
C      1  0.4931810000000  0.4962150000000  0.4724060000000 1.0
C      1  0.5291450000000  0.4312360000000  0.5460750000000 1.0
C      1  0.4226810000000  0.5285460000000  0.4806910000000 1.0
C      1  0.5243270000000  0.4904900000000  0.4056490000000 1.0
C      1  0.5275160000000  0.5314820000000  0.4484970000000 1.0
C      1  0.4580420000000  0.5491880000000  0.5693970000000 1.0
END
