TITL C-4164246-3563-430 -4.66067223452076e-07 125000 -3634.83582789172 0 0 26 (C1) n - 1
REM
REM in /home/nfs/bkarasulu/CARBON/AIRSS/Generating-Clusters/ReaxFF-fromJPCA2015/Units_Real/with-SteepDescent/Only-C1/SD-CG/Try1-3A/FIRE-CG
REM
REM
REM
REM
REM
REM ./C.cell (11c1c37f851c82e70ff6c80c92926a4b)
REM
REM compiler GCC version 9.2.1 20190827 (Red Hat 9.2.1-1)
REM options -cpp -mtune=generic -march=x86-64 -g -O0 -fpre-include=/usr/include/finclude/math-vector-fortran.h
REM seed 1174078468 1783034307 -1441268570 874647989 -1585327408 294162937 -931094001 -1788850758 -190466074 -526955998 1318222911 -501537409 -1430222552 181298715 -123221311 -1185003255 809696134 -1316341518 1316260834 398893497 -1443019760 -1884971416 2147097330 881226241 1574318583 -2056898359 841062791 -919598924 283196388 -377955614 1738857958 -513954649 -1774403022
REM
CELL 1.54180   50.00000   50.00000   50.00000   90.00000   90.00000   90.00000
LATT -1
SFAC C  
C      1  0.5441490000000  0.4808070000000  0.5121040000000 1.0
C      1  0.5156500000000  0.4751850000000  0.5199990000000 1.0
C      1  0.5416160000000  0.4879940000000  0.4626400000000 1.0
C      1  0.4517250000000  0.4607490000000  0.5178480000000 1.0
C      1  0.4472630000000  0.4659790000000  0.4909590000000 1.0
C      1  0.5514640000000  0.4705360000000  0.4846490000000 1.0
C      1  0.5009670000000  0.4487620000000  0.5217150000000 1.0
C      1  0.5316790000000  0.5544980000000  0.4964260000000 1.0
C      1  0.4982530000000  0.5281020000000  0.5453420000000 1.0
C      1  0.4412130000000  0.5160870000000  0.4977140000000 1.0
C      1  0.4369300000000  0.4910590000000  0.4975330000000 1.0
C      1  0.4991430000000  0.4946390000000  0.5058930000000 1.0
C      1  0.5187350000000  0.5213560000000  0.4484120000000 1.0
C      1  0.5448900000000  0.5178040000000  0.4637650000000 1.0
C      1  0.4516890000000  0.5428370000000  0.4986250000000 1.0
C      1  0.5059880000000  0.5354200000000  0.5672780000000 1.0
C      1  0.4899770000000  0.5187810000000  0.5208550000000 1.0
C      1  0.4732890000000  0.4508280000000  0.5287300000000 1.0
C      1  0.5476460000000  0.5300810000000  0.4913140000000 1.0
C      1  0.4749490000000  0.4632560000000  0.4777410000000 1.0
C      1  0.5517480000000  0.5098000000000  0.5123440000000 1.0
C      1  0.4917140000000  0.4879590000000  0.4779780000000 1.0
C      1  0.4934190000000  0.4490930000000  0.4940200000000 1.0
C      1  0.5029810000000  0.5612600000000  0.4996170000000 1.0
C      1  0.5121960000000  0.4926520000000  0.4564610000000 1.0
C      1  0.4807260000000  0.5444780000000  0.5100380000000 1.0
END
