TITL C-4164236-1577-27 -4.92392476314646 125000 -7841.66806348361 0 0 54 (C1) n - 1
REM
REM in /home/nfs/bkarasulu/CARBON/AIRSS/Generating-Clusters/ReaxFF-fromJPCA2015/Units_Real/with-SteepDescent/Only-C1/SD-CG/Try1-3A/FIRE-CG
REM
REM
REM
REM
REM
REM ./C.cell (11c1c37f851c82e70ff6c80c92926a4b)
REM
REM compiler GCC version 9.2.1 20190827 (Red Hat 9.2.1-1)
REM options -cpp -mtune=generic -march=x86-64 -g -O0 -fpre-include=/usr/include/finclude/math-vector-fortran.h
REM seed -742804798 -1753929554 -1970608336 2010671633 199750836 1081990672 -1116691921 -1293461174 -557937927 -2007411755 1733142642 482708814 -689802037 -1502608084 -1019178721 1923381750 -251388408 -1952269574 1418491558 617849681 -1621768806 1579917095 30032261 -1048701427 -1563296291 2106090605 -1571549066 929916912 575892557 -1981406107 -647027484 -695975584 -1332336482
REM
CELL 1.54180   50.00000   50.00000   50.00000   90.00000   90.00000   90.00000
LATT -1
SFAC C  
C      1  0.4932020000000  0.5116450000000  0.5440940000000 1.0
C      1  0.5236720000000  0.5429630000000  0.5662930000000 1.0
C      1  0.5354230000000  0.5240120000000  0.4501150000000 1.0
C      1  0.4659300000000  0.4558880000000  0.5447980000000 1.0
C      1  0.5623280000000  0.5056510000000  0.5287040000000 1.0
C      1  0.4817190000000  0.4427480000000  0.5232780000000 1.0
C      1  0.5131430000000  0.5160250000000  0.5659410000000 1.0
C      1  0.5615210000000  0.4936810000000  0.5015000000000 1.0
C      1  0.4899110000000  0.4589080000000  0.4981080000000 1.0
C      1  0.5116130000000  0.4667040000000  0.5690710000000 1.0
C      1  0.5141660000000  0.4513530000000  0.4520920000000 1.0
C      1  0.4803450000000  0.4979960000000  0.4658650000000 1.0
C      1  0.5035290000000  0.4268880000000  0.5354470000000 1.0
C      1  0.4638110000000  0.4638370000000  0.4843910000000 1.0
C      1  0.5464990000000  0.4874060000000  0.5459920000000 1.0
C      1  0.5358470000000  0.5543790000000  0.5421070000000 1.0
C      1  0.4718690000000  0.4949910000000  0.5572980000000 1.0
C      1  0.5089130000000  0.5530910000000  0.4465460000000 1.0
C      1  0.5013150000000  0.5120940000000  0.5158930000000 1.0
C      1  0.5018170000000  0.4829490000000  0.4268120000000 1.0
C      1  0.4895140000000  0.4586490000000  0.4374260000000 1.0
C      1  0.4682630000000  0.5466730000000  0.5298060000000 1.0
C      1  0.4515070000000  0.4815960000000  0.5405510000000 1.0
C      1  0.5126390000000  0.4860150000000  0.5066550000000 1.0
C      1  0.5368040000000  0.4976240000000  0.4587910000000 1.0
C      1  0.5294070000000  0.4709470000000  0.5294040000000 1.0
C      1  0.4429290000000  0.4968930000000  0.5170880000000 1.0
C      1  0.5282550000000  0.4911220000000  0.5691540000000 1.0
C      1  0.4890940000000  0.5067740000000  0.4395620000000 1.0
C      1  0.4828030000000  0.5535920000000  0.4785740000000 1.0
C      1  0.4308280000000  0.4953990000000  0.4659940000000 1.0
C      1  0.4814070000000  0.5497310000000  0.4494820000000 1.0
C      1  0.4662610000000  0.5159230000000  0.4834110000000 1.0
C      1  0.5268080000000  0.4761130000000  0.4407540000000 1.0
C      1  0.5107510000000  0.5619610000000  0.5498660000000 1.0
C      1  0.5355920000000  0.4940290000000  0.4883110000000 1.0
C      1  0.5036940000000  0.5400520000000  0.5013340000000 1.0
C      1  0.4417390000000  0.4834320000000  0.4429520000000 1.0
C      1  0.4420110000000  0.4827060000000  0.4905360000000 1.0
C      1  0.4663040000000  0.4684410000000  0.4548020000000 1.0
C      1  0.4545110000000  0.5443110000000  0.4853400000000 1.0
C      1  0.5210670000000  0.4493240000000  0.5469150000000 1.0
C      1  0.5312110000000  0.5455160000000  0.4860620000000 1.0
C      1  0.4968630000000  0.5554190000000  0.5263290000000 1.0
C      1  0.4822410000000  0.4688580000000  0.5663630000000 1.0
C      1  0.5115840000000  0.4452810000000  0.4809480000000 1.0
C      1  0.5312100000000  0.5472590000000  0.4571380000000 1.0
C      1  0.4417580000000  0.5123570000000  0.4433730000000 1.0
C      1  0.4516780000000  0.5240210000000  0.5216960000000 1.0
C      1  0.5381210000000  0.4505320000000  0.4865030000000 1.0
C      1  0.5547500000000  0.5347310000000  0.5277040000000 1.0
C      1  0.5627980000000  0.4623560000000  0.4955740000000 1.0
C      1  0.4671820000000  0.5258770000000  0.4365750000000 1.0
C      1  0.5518440000000  0.5332740000000  0.5006850000000 1.0
END
