TITL C-4164236-1577-481 1.43408277928515e-08 125000 -2281.5489019131 0 0 17 (C1) n - 1
REM
REM in /home/nfs/bkarasulu/CARBON/AIRSS/Generating-Clusters/ReaxFF-fromJPCA2015/Units_Real/with-SteepDescent/Only-C1/SD-CG/Try1-3A/FIRE-CG
REM
REM
REM
REM
REM
REM ./C.cell (11c1c37f851c82e70ff6c80c92926a4b)
REM
REM compiler GCC version 9.2.1 20190827 (Red Hat 9.2.1-1)
REM options -cpp -mtune=generic -march=x86-64 -g -O0 -fpre-include=/usr/include/finclude/math-vector-fortran.h
REM seed 1294822676 -1767808936 584744973 -517335434 1587341699 767866455 -1827079366 9422751 1607489959 -874516373 237972339 124485681 864906688 -418718630 -1651243847 -943599562 1200650413 1768855662 533604363 -1508970522 1670159097 624243909 55556982 1058738232 -1009197291 -2076646041 785463031 1857261634 -210457583 1720317571 242228726 250702519 -32131454
REM
CELL 1.54180   50.00000   50.00000   50.00000   90.00000   90.00000   90.00000
LATT -1
SFAC C  
C      1  0.4683830000000  0.4858000000000  0.4794860000000 1.0
C      1  0.5529670000000  0.4985740000000  0.4791180000000 1.0
C      1  0.4689990000000  0.4956140000000  0.5499900000000 1.0
C      1  0.5713230000000  0.4541300000000  0.4970810000000 1.0
C      1  0.5512350000000  0.4710180000000  0.4966650000000 1.0
C      1  0.4989170000000  0.4697140000000  0.5198990000000 1.0
C      1  0.5121350000000  0.5385580000000  0.4839240000000 1.0
C      1  0.4887910000000  0.4731270000000  0.5483670000000 1.0
C      1  0.4583200000000  0.5166660000000  0.5330420000000 1.0
C      1  0.4525760000000  0.5018400000000  0.4618140000000 1.0
C      1  0.4827680000000  0.4876040000000  0.5009430000000 1.0
C      1  0.5369120000000  0.5202420000000  0.4770870000000 1.0
C      1  0.4873360000000  0.5410710000000  0.4652410000000 1.0
C      1  0.4756100000000  0.5175470000000  0.5063360000000 1.0
C      1  0.4652880000000  0.5266510000000  0.4776330000000 1.0
C      1  0.5026450000000  0.5359040000000  0.5103320000000 1.0
C      1  0.5257960000000  0.4659400000000  0.5130430000000 1.0
END
