TITL C-4164244-2836-231 3.14210096744078 125000 -19132.8580854808 0 0 126 (C1) n - 1
REM
REM in /home/nfs/bkarasulu/CARBON/AIRSS/Generating-Clusters/ReaxFF-fromJPCA2015/Units_Real/with-SteepDescent/Only-C1/SD-CG/Try1-3A/FIRE-CG
REM
REM
REM
REM
REM
REM ./C.cell (11c1c37f851c82e70ff6c80c92926a4b)
REM
REM compiler GCC version 9.2.1 20190827 (Red Hat 9.2.1-1)
REM options -cpp -mtune=generic -march=x86-64 -g -O0 -fpre-include=/usr/include/finclude/math-vector-fortran.h
REM seed 400496461 944222817 1936412221 1706708133 -648703656 -1660915023 -728517497 983675318 1788912296 723441372 -1171895798 -754720392 -836817359 1542214007 -409655587 -1590898356 -1722277009 694598650 -1464457435 771422056 398175018 1291352481 975936073 -1512577463 -1278667459 154191536 1291677942 1998413892 467000279 1537299196 -288506272 -432868326 -581758218
REM
CELL 1.54180   50.00000   50.00000   50.00000   90.00000   90.00000   90.00000
LATT -1
SFAC C  
C      1  0.5146500000000  0.5772880000000  0.4520210000000 1.0
C      1  0.4533140000000  0.5020100000000  0.5604370000000 1.0
C      1  0.4300920000000  0.4878840000000  0.4476450000000 1.0
C      1  0.4612380000000  0.6034590000000  0.4810810000000 1.0
C      1  0.4684280000000  0.4316610000000  0.5731300000000 1.0
C      1  0.5104320000000  0.4801040000000  0.4452160000000 1.0
C      1  0.5141870000000  0.4021590000000  0.4924560000000 1.0
C      1  0.4916250000000  0.4138890000000  0.4524500000000 1.0
C      1  0.6003750000000  0.4805680000000  0.5136240000000 1.0
C      1  0.4653550000000  0.5079970000000  0.5303490000000 1.0
C      1  0.5353390000000  0.4619190000000  0.5620120000000 1.0
C      1  0.5029640000000  0.5252240000000  0.5912880000000 1.0
C      1  0.5306570000000  0.5461630000000  0.4111460000000 1.0
C      1  0.4617590000000  0.5767780000000  0.4423670000000 1.0
C      1  0.5481490000000  0.4943460000000  0.4171260000000 1.0
C      1  0.4841910000000  0.5250940000000  0.4900540000000 1.0
C      1  0.5268000000000  0.5867600000000  0.5044140000000 1.0
C      1  0.5033660000000  0.5377830000000  0.4035620000000 1.0
C      1  0.4521240000000  0.4277360000000  0.4732350000000 1.0
C      1  0.4490530000000  0.4680360000000  0.4863510000000 1.0
C      1  0.4914920000000  0.4978840000000  0.5246270000000 1.0
C      1  0.4316090000000  0.5357040000000  0.5508620000000 1.0
C      1  0.5611380000000  0.4769000000000  0.4655800000000 1.0
C      1  0.5952370000000  0.5255260000000  0.5225670000000 1.0
C      1  0.4263640000000  0.5072860000000  0.5543470000000 1.0
C      1  0.4894640000000  0.3993990000000  0.4780870000000 1.0
C      1  0.5335400000000  0.4382690000000  0.4330120000000 1.0
C      1  0.5896640000000  0.5049850000000  0.5023850000000 1.0
C      1  0.5301520000000  0.5258690000000  0.5919340000000 1.0
C      1  0.4556430000000  0.4588800000000  0.5444810000000 1.0
C      1  0.5529550000000  0.4849110000000  0.5712600000000 1.0
C      1  0.5197290000000  0.4063870000000  0.5208840000000 1.0
C      1  0.5472960000000  0.5229360000000  0.4211790000000 1.0
C      1  0.5329190000000  0.4634880000000  0.4536000000000 1.0
C      1  0.4865190000000  0.4452980000000  0.5173680000000 1.0
C      1  0.5143580000000  0.5136170000000  0.5357000000000 1.0
C      1  0.5360130000000  0.4705190000000  0.5172950000000 1.0
C      1  0.4106080000000  0.4708610000000  0.5206340000000 1.0
C      1  0.5146980000000  0.4273180000000  0.5818830000000 1.0
C      1  0.5897960000000  0.4746970000000  0.5402160000000 1.0
C      1  0.5858950000000  0.5472540000000  0.5071270000000 1.0
C      1  0.4923660000000  0.4756870000000  0.5879140000000 1.0
C      1  0.4070740000000  0.4930780000000  0.4657810000000 1.0
C      1  0.4633150000000  0.4062760000000  0.4944120000000 1.0
C      1  0.5776870000000  0.4513760000000  0.5316040000000 1.0
C      1  0.4186740000000  0.5423360000000  0.5258670000000 1.0
C      1  0.4785710000000  0.4644770000000  0.4444870000000 1.0
C      1  0.4750960000000  0.4631160000000  0.4979340000000 1.0
C      1  0.5198730000000  0.4156560000000  0.4440530000000 1.0
C      1  0.5309720000000  0.5680900000000  0.5591390000000 1.0
C      1  0.4114110000000  0.4452260000000  0.5075290000000 1.0
C      1  0.5312890000000  0.4476470000000  0.5899160000000 1.0
C      1  0.4885850000000  0.6050210000000  0.4700180000000 1.0
C      1  0.5767940000000  0.4939920000000  0.5568030000000 1.0
C      1  0.4573970000000  0.5512100000000  0.4289390000000 1.0
C      1  0.4897360000000  0.5220190000000  0.4487490000000 1.0
C      1  0.5012730000000  0.4632020000000  0.4035980000000 1.0
C      1  0.5689130000000  0.5581060000000  0.4886640000000 1.0
C      1  0.4277250000000  0.5636510000000  0.4777810000000 1.0
C      1  0.4114070000000  0.4969470000000  0.5303940000000 1.0
C      1  0.5436720000000  0.5470690000000  0.5757910000000 1.0
C      1  0.4727730000000  0.4360800000000  0.4540720000000 1.0
C      1  0.4097210000000  0.5192920000000  0.5113510000000 1.0
C      1  0.5288980000000  0.4223520000000  0.4741850000000 1.0
C      1  0.5054040000000  0.4689040000000  0.5608490000000 1.0
C      1  0.4825180000000  0.5539860000000  0.5248340000000 1.0
C      1  0.5349750000000  0.5273670000000  0.4473880000000 1.0
C      1  0.4856820000000  0.4601340000000  0.5422430000000 1.0
C      1  0.5488500000000  0.4489020000000  0.5327180000000 1.0
C      1  0.4940060000000  0.4847540000000  0.4982190000000 1.0
C      1  0.4562700000000  0.5464000000000  0.5652680000000 1.0
C      1  0.5377680000000  0.4958480000000  0.5931750000000 1.0
C      1  0.5036840000000  0.5777880000000  0.5533780000000 1.0
C      1  0.4742120000000  0.4688490000000  0.4154370000000 1.0
C      1  0.5153800000000  0.4660190000000  0.4991540000000 1.0
C      1  0.4233340000000  0.5386450000000  0.4641560000000 1.0
C      1  0.4365290000000  0.5061820000000  0.4263540000000 1.0
C      1  0.4595760000000  0.6035180000000  0.5110220000000 1.0
C      1  0.4835640000000  0.5385250000000  0.4259300000000 1.0
C      1  0.5143430000000  0.5082830000000  0.4525750000000 1.0
C      1  0.5380900000000  0.5142480000000  0.5005440000000 1.0
C      1  0.5883760000000  0.4550390000000  0.5042990000000 1.0
C      1  0.4942720000000  0.4146610000000  0.5679730000000 1.0
C      1  0.4776780000000  0.5056560000000  0.3964070000000 1.0
C      1  0.5371920000000  0.4984990000000  0.5248560000000 1.0
C      1  0.4565390000000  0.4920410000000  0.4081470000000 1.0
C      1  0.5670080000000  0.4921260000000  0.4399390000000 1.0
C      1  0.5820000000000  0.5211560000000  0.5491040000000 1.0
C      1  0.4481470000000  0.4746500000000  0.5678600000000 1.0
C      1  0.4971310000000  0.4074600000000  0.5395360000000 1.0
C      1  0.5143460000000  0.5912420000000  0.4781650000000 1.0
C      1  0.5183510000000  0.4521010000000  0.4747780000000 1.0
C      1  0.5703290000000  0.4525010000000  0.4814680000000 1.0
C      1  0.4316190000000  0.4451250000000  0.4837320000000 1.0
C      1  0.5048730000000  0.5092470000000  0.3959340000000 1.0
C      1  0.5637350000000  0.5052170000000  0.4855470000000 1.0
C      1  0.4882780000000  0.5898640000000  0.4449640000000 1.0
C      1  0.5545020000000  0.4289940000000  0.4895570000000 1.0
C      1  0.5296300000000  0.5554180000000  0.4393020000000 1.0
C      1  0.4632590000000  0.5244450000000  0.5826220000000 1.0
C      1  0.4781100000000  0.5622410000000  0.5534940000000 1.0
C      1  0.4363190000000  0.5879430000000  0.5115470000000 1.0
C      1  0.4362130000000  0.5329160000000  0.4379860000000 1.0
C      1  0.5521620000000  0.5642970000000  0.5384100000000 1.0
C      1  0.4824730000000  0.5857590000000  0.5175730000000 1.0
C      1  0.4761520000000  0.5069470000000  0.4695580000000 1.0
C      1  0.5798620000000  0.5192560000000  0.4471100000000 1.0
C      1  0.4664910000000  0.5302500000000  0.5126050000000 1.0
C      1  0.5143720000000  0.4412900000000  0.4142510000000 1.0
C      1  0.5690210000000  0.5317080000000  0.4711440000000 1.0
C      1  0.4579060000000  0.4833730000000  0.4617310000000 1.0
C      1  0.5107860000000  0.5392180000000  0.5219080000000 1.0
C      1  0.4553540000000  0.4300090000000  0.5476030000000 1.0
C      1  0.5202480000000  0.4733440000000  0.6004810000000 1.0
C      1  0.5653600000000  0.5437620000000  0.5559430000000 1.0
C      1  0.5432370000000  0.4235560000000  0.5157560000000 1.0
C      1  0.4729390000000  0.4182870000000  0.5251340000000 1.0
C      1  0.5504910000000  0.5704670000000  0.5094720000000 1.0
C      1  0.4199520000000  0.5663880000000  0.5071310000000 1.0
C      1  0.4462370000000  0.5832190000000  0.4660080000000 1.0
C      1  0.5085070000000  0.5923740000000  0.5275430000000 1.0
C      1  0.4102380000000  0.5185150000000  0.4815450000000 1.0
C      1  0.4663280000000  0.4586990000000  0.5843280000000 1.0
C      1  0.5193060000000  0.4867370000000  0.4127000000000 1.0
C      1  0.5136930000000  0.5307080000000  0.4949310000000 1.0
C      1  0.4843840000000  0.5081890000000  0.5927000000000 1.0
END
