TITL C-4164244-2836-638 146.882997011899 125000 -18145.0004205971 0 0 125 (C1) n - 1
REM
REM in /home/nfs/bkarasulu/CARBON/AIRSS/Generating-Clusters/ReaxFF-fromJPCA2015/Units_Real/with-SteepDescent/Only-C1/SD-CG/Try1-3A/FIRE-CG
REM
REM
REM
REM
REM
REM ./C.cell (11c1c37f851c82e70ff6c80c92926a4b)
REM
REM compiler GCC version 9.2.1 20190827 (Red Hat 9.2.1-1)
REM options -cpp -mtune=generic -march=x86-64 -g -O0 -fpre-include=/usr/include/finclude/math-vector-fortran.h
REM seed 804238856 -1540924179 -990782844 -926835399 1524822827 -1133901189 -714695892 2084528572 -1631980946 1876803513 -1608559175 991254537 -1190731916 701458175 -1189559808 -480687795 -1851186756 -804289893 321991304 -1295337100 1878417170 900826953 64294902 -1363662439 -1153152575 1073692752 -786587134 227030941 -867165344 1465510011 -1216827509 -1565387970 1101656703
REM
CELL 1.54180   50.00000   50.00000   50.00000   90.00000   90.00000   90.00000
LATT -1
SFAC C  
C      1  0.5614950000000  0.4469620000000  0.5595280000000 1.0
C      1  0.5314120000000  0.5730830000000  0.5366280000000 1.0
C      1  0.4142620000000  0.4725560000000  0.4628340000000 1.0
C      1  0.5816330000000  0.5287770000000  0.4768930000000 1.0
C      1  0.4694420000000  0.4977320000000  0.5773770000000 1.0
C      1  0.5714420000000  0.5020560000000  0.5633120000000 1.0
C      1  0.4630630000000  0.4787610000000  0.4974910000000 1.0
C      1  0.5224010000000  0.5358690000000  0.4730340000000 1.0
C      1  0.4797080000000  0.5156530000000  0.5013640000000 1.0
C      1  0.4090090000000  0.5283460000000  0.5184270000000 1.0
C      1  0.4889250000000  0.4229160000000  0.5226170000000 1.0
C      1  0.4492400000000  0.5940690000000  0.5096470000000 1.0
C      1  0.5327580000000  0.4261360000000  0.5293960000000 1.0
C      1  0.5679780000000  0.5213370000000  0.5399110000000 1.0
C      1  0.5506540000000  0.4905460000000  0.5803230000000 1.0
C      1  0.5175120000000  0.3982750000000  0.4936760000000 1.0
C      1  0.5372080000000  0.4299630000000  0.5684480000000 1.0
C      1  0.4902040000000  0.4077050000000  0.4975020000000 1.0
C      1  0.5298450000000  0.5913520000000  0.5132520000000 1.0
C      1  0.5810170000000  0.5293670000000  0.4472740000000 1.0
C      1  0.4806880000000  0.4185230000000  0.4719810000000 1.0
C      1  0.4264770000000  0.4656220000000  0.5372620000000 1.0
C      1  0.5502580000000  0.5702220000000  0.4683940000000 1.0
C      1  0.5035100000000  0.5136920000000  0.5679470000000 1.0
C      1  0.5270090000000  0.5306570000000  0.5134400000000 1.0
C      1  0.4687450000000  0.5252190000000  0.5256360000000 1.0
C      1  0.4925810000000  0.4870510000000  0.5939540000000 1.0
C      1  0.4575160000000  0.4356020000000  0.4676140000000 1.0
C      1  0.5165900000000  0.4995170000000  0.5466960000000 1.0
C      1  0.5637440000000  0.5034890000000  0.5160200000000 1.0
C      1  0.5840970000000  0.4498840000000  0.5103780000000 1.0
C      1  0.4130650000000  0.4475400000000  0.4807380000000 1.0
C      1  0.5551910000000  0.4354270000000  0.4487530000000 1.0
C      1  0.5124660000000  0.5562910000000  0.4271940000000 1.0
C      1  0.4902790000000  0.4890370000000  0.5046920000000 1.0
C      1  0.4780520000000  0.5525740000000  0.5255190000000 1.0
C      1  0.4795110000000  0.5719990000000  0.5478330000000 1.0
C      1  0.5516230000000  0.4889850000000  0.4013980000000 1.0
C      1  0.4783880000000  0.5981110000000  0.5100920000000 1.0
C      1  0.5794900000000  0.5015720000000  0.4456900000000 1.0
C      1  0.5523000000000  0.4140470000000  0.4672240000000 1.0
C      1  0.4853150000000  0.4295280000000  0.5700370000000 1.0
C      1  0.5139760000000  0.5019660000000  0.4241630000000 1.0
C      1  0.4663280000000  0.5265330000000  0.4213860000000 1.0
C      1  0.4935090000000  0.4950040000000  0.5316260000000 1.0
C      1  0.4923860000000  0.5734410000000  0.4296150000000 1.0
C      1  0.5185580000000  0.4835690000000  0.4946820000000 1.0
C      1  0.4949470000000  0.5276530000000  0.4661540000000 1.0
C      1  0.4567860000000  0.4536430000000  0.4446280000000 1.0
C      1  0.4862540000000  0.5474240000000  0.4186010000000 1.0
C      1  0.4365530000000  0.4627020000000  0.5647280000000 1.0
C      1  0.5486350000000  0.4480420000000  0.4906300000000 1.0
C      1  0.5084020000000  0.4665940000000  0.5803050000000 1.0
C      1  0.5167610000000  0.5008950000000  0.6017590000000 1.0
C      1  0.4681390000000  0.4655080000000  0.5384410000000 1.0
C      1  0.4830880000000  0.5705740000000  0.5010150000000 1.0
C      1  0.5875220000000  0.4702540000000  0.4909210000000 1.0
C      1  0.5116090000000  0.4381330000000  0.5796490000000 1.0
C      1  0.5959490000000  0.5330220000000  0.5313140000000 1.0
C      1  0.4076740000000  0.4987070000000  0.4743900000000 1.0
C      1  0.4826380000000  0.4568220000000  0.4285860000000 1.0
C      1  0.5729670000000  0.4483230000000  0.5347690000000 1.0
C      1  0.5108350000000  0.4421330000000  0.5216700000000 1.0
C      1  0.5298650000000  0.5838340000000  0.4842570000000 1.0
C      1  0.5224590000000  0.4736100000000  0.4653180000000 1.0
C      1  0.4223920000000  0.5625740000000  0.4825290000000 1.0
C      1  0.4631550000000  0.4482080000000  0.5608800000000 1.0
C      1  0.4977140000000  0.5395250000000  0.5627680000000 1.0
C      1  0.4954020000000  0.4124890000000  0.5492390000000 1.0
C      1  0.5390770000000  0.5439570000000  0.5394790000000 1.0
C      1  0.5059400000000  0.5855460000000  0.5470730000000 1.0
C      1  0.4314930000000  0.5752650000000  0.5266440000000 1.0
C      1  0.5683800000000  0.4601990000000  0.4708960000000 1.0
C      1  0.5279200000000  0.4809320000000  0.5644050000000 1.0
C      1  0.4053710000000  0.5035250000000  0.5032960000000 1.0
C      1  0.4536690000000  0.5058490000000  0.4920550000000 1.0
C      1  0.4878650000000  0.5018530000000  0.4555810000000 1.0
C      1  0.4728100000000  0.5437190000000  0.4588550000000 1.0
C      1  0.4860340000000  0.5848740000000  0.4550430000000 1.0
C      1  0.5013900000000  0.5772880000000  0.4786080000000 1.0
C      1  0.5544610000000  0.5331530000000  0.4335150000000 1.0
C      1  0.4134240000000  0.5127030000000  0.5437940000000 1.0
C      1  0.4735560000000  0.5537490000000  0.5695470000000 1.0
C      1  0.5530800000000  0.4659290000000  0.4197220000000 1.0
C      1  0.4330980000000  0.5148220000000  0.5654390000000 1.0
C      1  0.5064990000000  0.4377490000000  0.4326430000000 1.0
C      1  0.5342670000000  0.5506680000000  0.4481060000000 1.0
C      1  0.5396190000000  0.4062470000000  0.5120230000000 1.0
C      1  0.4192040000000  0.5176780000000  0.4550970000000 1.0
C      1  0.6094190000000  0.5140580000000  0.5141960000000 1.0
C      1  0.4358360000000  0.4735800000000  0.4432470000000 1.0
C      1  0.5365560000000  0.5426690000000  0.4934240000000 1.0
C      1  0.5352530000000  0.4428300000000  0.4292830000000 1.0
C      1  0.4602460000000  0.5010060000000  0.4631930000000 1.0
C      1  0.5045100000000  0.6032100000000  0.5239010000000 1.0
C      1  0.4790150000000  0.4753070000000  0.4051970000000 1.0
C      1  0.4170720000000  0.5551770000000  0.5099110000000 1.0
C      1  0.4393140000000  0.4396460000000  0.4905870000000 1.0
C      1  0.5409730000000  0.5121980000000  0.4185080000000 1.0
C      1  0.5721750000000  0.4732280000000  0.5693100000000 1.0
C      1  0.4384640000000  0.5617110000000  0.5498300000000 1.0
C      1  0.4488240000000  0.4591530000000  0.5149190000000 1.0
C      1  0.4693730000000  0.5039220000000  0.4038330000000 1.0
C      1  0.4457550000000  0.5428960000000  0.5685700000000 1.0
C      1  0.4689640000000  0.4972240000000  0.5465440000000 1.0
C      1  0.5669510000000  0.4766170000000  0.4450040000000 1.0
C      1  0.4984380000000  0.4957270000000  0.4006930000000 1.0
C      1  0.5248730000000  0.4032690000000  0.4664020000000 1.0
C      1  0.4414670000000  0.4897120000000  0.5777130000000 1.0
C      1  0.4241240000000  0.5456600000000  0.4588540000000 1.0
C      1  0.5865900000000  0.5015100000000  0.4962110000000 1.0
C      1  0.4571050000000  0.5828750000000  0.4579560000000 1.0
C      1  0.5245240000000  0.4570840000000  0.5019830000000 1.0
C      1  0.4090570000000  0.4873620000000  0.5289920000000 1.0
C      1  0.5254540000000  0.4101890000000  0.5501620000000 1.0
C      1  0.4416660000000  0.5852720000000  0.4827070000000 1.0
C      1  0.4413410000000  0.5035310000000  0.4404530000000 1.0
C      1  0.5588030000000  0.4214370000000  0.4956310000000 1.0
C      1  0.5252780000000  0.5237170000000  0.5875590000000 1.0
C      1  0.5365920000000  0.5037650000000  0.5085110000000 1.0
C      1  0.5259330000000  0.5450450000000  0.5663160000000 1.0
C      1  0.4500570000000  0.5554100000000  0.4462650000000 1.0
C      1  0.5041570000000  0.4823420000000  0.4436840000000 1.0
C      1  0.5653550000000  0.5512140000000  0.4845550000000 1.0
C      1  0.5027310000000  0.4175060000000  0.4526250000000 1.0
END
