TITL C-4164233-775-573 0.0711353785032339 125000 -18400.4362138503 0 0 123 (C1) n - 1
REM
REM in /home/nfs/bkarasulu/CARBON/AIRSS/Generating-Clusters/ReaxFF-fromJPCA2015/Units_Real/with-SteepDescent/Only-C1/SD-CG/Try1-3A/FIRE-CG
REM
REM
REM
REM
REM
REM ./C.cell (11c1c37f851c82e70ff6c80c92926a4b)
REM
REM compiler GCC version 9.2.1 20190827 (Red Hat 9.2.1-1)
REM options -cpp -mtune=generic -march=x86-64 -g -O0 -fpre-include=/usr/include/finclude/math-vector-fortran.h
REM seed -56481047 1869061528 -543224628 1505671427 163493304 1801445417 -2073446059 -254367777 106893196 1301612647 -1457645097 -48285479 261496934 -223803205 140192919 1083117672 -1428349320 -1210288751 474805496 -401996915 1386120104 1952555449 -841560744 846939179 -74177768 -1051731164 465297525 -1231958880 -1740933929 -714555975 1253404503 960706871 -1603048313
REM
CELL 1.54180   50.00000   50.00000   50.00000   90.00000   90.00000   90.00000
LATT -1
SFAC C  
C      1  0.4884340000000  0.4689950000000  0.4631660000000 1.0
C      1  0.4379560000000  0.5253300000000  0.4054960000000 1.0
C      1  0.4878200000000  0.5369960000000  0.4240450000000 1.0
C      1  0.4505260000000  0.4073660000000  0.5497320000000 1.0
C      1  0.5194650000000  0.5037110000000  0.6073060000000 1.0
C      1  0.4290830000000  0.4890090000000  0.5868060000000 1.0
C      1  0.5658790000000  0.5085970000000  0.4470210000000 1.0
C      1  0.4902350000000  0.4465680000000  0.5852130000000 1.0
C      1  0.5683770000000  0.5409610000000  0.5262890000000 1.0
C      1  0.4239250000000  0.4559430000000  0.5418030000000 1.0
C      1  0.5761150000000  0.5493780000000  0.4735330000000 1.0
C      1  0.5339510000000  0.5966030000000  0.4857700000000 1.0
C      1  0.4780260000000  0.3960270000000  0.5418980000000 1.0
C      1  0.4187320000000  0.4681530000000  0.5695910000000 1.0
C      1  0.4899130000000  0.5235910000000  0.3983940000000 1.0
C      1  0.5338740000000  0.4681320000000  0.4604350000000 1.0
C      1  0.4679570000000  0.5888090000000  0.4985780000000 1.0
C      1  0.5152020000000  0.5102490000000  0.5331800000000 1.0
C      1  0.4643380000000  0.4219940000000  0.4878300000000 1.0
C      1  0.5457990000000  0.4278860000000  0.4982450000000 1.0
C      1  0.4962950000000  0.5589250000000  0.5567310000000 1.0
C      1  0.4255840000000  0.5074980000000  0.5023540000000 1.0
C      1  0.5593200000000  0.4885990000000  0.5803420000000 1.0
C      1  0.4652690000000  0.4533560000000  0.4793320000000 1.0
C      1  0.4644240000000  0.5213550000000  0.5286470000000 1.0
C      1  0.5480310000000  0.4977130000000  0.4936630000000 1.0
C      1  0.4641980000000  0.5092840000000  0.3951610000000 1.0
C      1  0.4108750000000  0.4648480000000  0.5161140000000 1.0
C      1  0.5033700000000  0.5112980000000  0.4851780000000 1.0
C      1  0.5074740000000  0.5282360000000  0.6006310000000 1.0
C      1  0.4719980000000  0.4459850000000  0.4246600000000 1.0
C      1  0.5468430000000  0.6007710000000  0.5101700000000 1.0
C      1  0.4020700000000  0.5139870000000  0.5369380000000 1.0
C      1  0.5365310000000  0.4958780000000  0.3995750000000 1.0
C      1  0.4569360000000  0.4872370000000  0.4092220000000 1.0
C      1  0.4175350000000  0.5204820000000  0.4560870000000 1.0
C      1  0.4472830000000  0.5011510000000  0.5209580000000 1.0
C      1  0.4492480000000  0.4648260000000  0.4240670000000 1.0
C      1  0.5199010000000  0.5198330000000  0.3945930000000 1.0
C      1  0.4845640000000  0.4941220000000  0.4490570000000 1.0
C      1  0.5628600000000  0.4580700000000  0.4225800000000 1.0
C      1  0.4736750000000  0.5465750000000  0.5698260000000 1.0
C      1  0.5468150000000  0.4944340000000  0.4647650000000 1.0
C      1  0.5078740000000  0.4820170000000  0.5953380000000 1.0
C      1  0.4034710000000  0.4929210000000  0.5150230000000 1.0
C      1  0.5006760000000  0.5188020000000  0.4437010000000 1.0
C      1  0.4871430000000  0.5028780000000  0.5314960000000 1.0
C      1  0.5791470000000  0.5342060000000  0.4993410000000 1.0
C      1  0.5143000000000  0.4186130000000  0.4579530000000 1.0
C      1  0.5149200000000  0.4305570000000  0.5265000000000 1.0
C      1  0.5487620000000  0.5522000000000  0.4289220000000 1.0
C      1  0.5591990000000  0.4742210000000  0.5063440000000 1.0
C      1  0.5386050000000  0.4507350000000  0.4372860000000 1.0
C      1  0.5382710000000  0.5804720000000  0.4377590000000 1.0
C      1  0.4544200000000  0.4875160000000  0.6027870000000 1.0
C      1  0.5672700000000  0.4716920000000  0.5343700000000 1.0
C      1  0.4754160000000  0.4564140000000  0.5072060000000 1.0
C      1  0.4602690000000  0.5771840000000  0.4497770000000 1.0
C      1  0.4670190000000  0.5404120000000  0.5035220000000 1.0
C      1  0.5356550000000  0.5789110000000  0.5235500000000 1.0
C      1  0.5663450000000  0.5376090000000  0.4482170000000 1.0
C      1  0.5435090000000  0.4304890000000  0.5277970000000 1.0
C      1  0.5910220000000  0.4928950000000  0.4473820000000 1.0
C      1  0.5214030000000  0.4159170000000  0.4836340000000 1.0
C      1  0.4352940000000  0.4982480000000  0.4567760000000 1.0
C      1  0.5512870000000  0.5925780000000  0.4617060000000 1.0
C      1  0.4869140000000  0.5769840000000  0.5349030000000 1.0
C      1  0.5274370000000  0.5176340000000  0.5045390000000 1.0
C      1  0.5437440000000  0.5098320000000  0.5931820000000 1.0
C      1  0.4489540000000  0.4793400000000  0.5414340000000 1.0
C      1  0.4509530000000  0.5759540000000  0.4772580000000 1.0
C      1  0.4716770000000  0.5617640000000  0.4286030000000 1.0
C      1  0.4792460000000  0.4746370000000  0.5918590000000 1.0
C      1  0.4382260000000  0.4571540000000  0.4724070000000 1.0
C      1  0.5105410000000  0.5333910000000  0.4671220000000 1.0
C      1  0.5851470000000  0.4593290000000  0.4716110000000 1.0
C      1  0.4795020000000  0.5319110000000  0.5934390000000 1.0
C      1  0.4488650000000  0.5333440000000  0.5569810000000 1.0
C      1  0.5250210000000  0.5497200000000  0.5588440000000 1.0
C      1  0.5639020000000  0.4497590000000  0.4899990000000 1.0
C      1  0.4650840000000  0.4799080000000  0.5634430000000 1.0
C      1  0.4877850000000  0.5672980000000  0.5062170000000 1.0
C      1  0.4913260000000  0.4336080000000  0.4269870000000 1.0
C      1  0.4333020000000  0.4710480000000  0.4489100000000 1.0
C      1  0.5301550000000  0.5345640000000  0.5832440000000 1.0
C      1  0.5018000000000  0.4139790000000  0.5476410000000 1.0
C      1  0.4900640000000  0.4076880000000  0.4901410000000 1.0
C      1  0.5196320000000  0.4725650000000  0.5699670000000 1.0
C      1  0.5042050000000  0.4556880000000  0.5090750000000 1.0
C      1  0.4952860000000  0.4314510000000  0.5686080000000 1.0
C      1  0.4188420000000  0.5355050000000  0.5479420000000 1.0
C      1  0.5762990000000  0.5792450000000  0.4707000000000 1.0
C      1  0.5841760000000  0.4645090000000  0.4422460000000 1.0
C      1  0.5966780000000  0.4869100000000  0.4756920000000 1.0
C      1  0.4621630000000  0.5061640000000  0.4634360000000 1.0
C      1  0.4422020000000  0.5509200000000  0.4897630000000 1.0
C      1  0.4251200000000  0.5268480000000  0.4300070000000 1.0
C      1  0.4873280000000  0.4762340000000  0.5220190000000 1.0
C      1  0.5191420000000  0.5700450000000  0.4968810000000 1.0
C      1  0.4365420000000  0.4266560000000  0.5334290000000 1.0
C      1  0.5474340000000  0.4623970000000  0.5727500000000 1.0
C      1  0.4751560000000  0.5187190000000  0.4850020000000 1.0
C      1  0.5118590000000  0.5844910000000  0.4359550000000 1.0
C      1  0.5632020000000  0.4963200000000  0.5516280000000 1.0
C      1  0.5285060000000  0.5440250000000  0.4871420000000 1.0
C      1  0.5569680000000  0.4490220000000  0.5477500000000 1.0
C      1  0.4401970000000  0.4268060000000  0.5044000000000 1.0
C      1  0.6046300000000  0.5070890000000  0.5250260000000 1.0
C      1  0.5343670000000  0.5365130000000  0.4117280000000 1.0
C      1  0.5457260000000  0.5559770000000  0.5390440000000 1.0
C      1  0.4853090000000  0.5879790000000  0.4340350000000 1.0
C      1  0.4235710000000  0.4491390000000  0.4950340000000 1.0
C      1  0.5486990000000  0.4775500000000  0.4067910000000 1.0
C      1  0.5290790000000  0.4937610000000  0.5509070000000 1.0
C      1  0.5191640000000  0.4279550000000  0.4323040000000 1.0
C      1  0.5948420000000  0.5087620000000  0.4965690000000 1.0
C      1  0.4625910000000  0.5938390000000  0.5278760000000 1.0
C      1  0.4370940000000  0.5177530000000  0.5804710000000 1.0
C      1  0.4831250000000  0.3959940000000  0.5145550000000 1.0
C      1  0.5112200000000  0.4625150000000  0.4779390000000 1.0
C      1  0.4232440000000  0.5304620000000  0.4834250000000 1.0
C      1  0.4571280000000  0.5155230000000  0.5997420000000 1.0
C      1  0.5816480000000  0.5195750000000  0.5400280000000 1.0
END
