TITL C-4164242-3624-460 30.5068824717714 125000 -17475.6210901557 0 0 118 (C1) n - 1
REM
REM in /home/nfs/bkarasulu/CARBON/AIRSS/Generating-Clusters/ReaxFF-fromJPCA2015/Units_Real/with-SteepDescent/Only-C1/SD-CG/Try1-3A/FIRE-CG
REM
REM
REM
REM
REM
REM ./C.cell (11c1c37f851c82e70ff6c80c92926a4b)
REM
REM compiler GCC version 9.2.1 20190827 (Red Hat 9.2.1-1)
REM options -cpp -mtune=generic -march=x86-64 -g -O0 -fpre-include=/usr/include/finclude/math-vector-fortran.h
REM seed 1065653210 -454439348 -1228509602 -188386326 24034559 498585847 -805865255 711958773 -1344081831 -767846575 -1415232409 830132820 1058361615 -280988273 1288051301 1335720441 -1482070786 1175898450 -114043890 -254346606 2080472067 -1138359309 -1113467554 -333668248 1527264887 -1281959620 -697779740 -184296512 -1720000003 207601459 1047555951 -1108416666 1048130956
REM
CELL 1.54180   50.00000   50.00000   50.00000   90.00000   90.00000   90.00000
LATT -1
SFAC C  
C      1  0.5908510000000  0.4967280000000  0.5125800000000 1.0
C      1  0.4383910000000  0.5209980000000  0.4288770000000 1.0
C      1  0.5216810000000  0.4109140000000  0.4796460000000 1.0
C      1  0.5360060000000  0.4901830000000  0.4715010000000 1.0
C      1  0.5845150000000  0.4980790000000  0.5410150000000 1.0
C      1  0.4629510000000  0.4707640000000  0.4834130000000 1.0
C      1  0.4303900000000  0.4836110000000  0.5512430000000 1.0
C      1  0.4570180000000  0.5038030000000  0.5153480000000 1.0
C      1  0.5135300000000  0.4600840000000  0.4958620000000 1.0
C      1  0.5473310000000  0.5240330000000  0.5722540000000 1.0
C      1  0.5010920000000  0.4389510000000  0.4149570000000 1.0
C      1  0.5533200000000  0.5520340000000  0.4795200000000 1.0
C      1  0.4229470000000  0.4593670000000  0.4601110000000 1.0
C      1  0.5258360000000  0.5207860000000  0.5097970000000 1.0
C      1  0.4541090000000  0.5692820000000  0.5359580000000 1.0
C      1  0.4915850000000  0.4711350000000  0.4789100000000 1.0
C      1  0.4193430000000  0.4995420000000  0.4898810000000 1.0
C      1  0.5316900000000  0.4138300000000  0.5067280000000 1.0
C      1  0.5392280000000  0.5209780000000  0.4332260000000 1.0
C      1  0.4699020000000  0.5586380000000  0.4421800000000 1.0
C      1  0.4743220000000  0.5269350000000  0.5165360000000 1.0
C      1  0.5663440000000  0.4621290000000  0.5967760000000 1.0
C      1  0.5216570000000  0.5694680000000  0.4430630000000 1.0
C      1  0.5700560000000  0.5288340000000  0.4761720000000 1.0
C      1  0.5069360000000  0.4678410000000  0.4098970000000 1.0
C      1  0.4634220000000  0.5440030000000  0.4684850000000 1.0
C      1  0.4894500000000  0.5258770000000  0.5385430000000 1.0
C      1  0.5675940000000  0.5224020000000  0.5445840000000 1.0
C      1  0.5317880000000  0.4225760000000  0.4549980000000 1.0
C      1  0.5721600000000  0.4813150000000  0.4505520000000 1.0
C      1  0.5569870000000  0.4357780000000  0.4475320000000 1.0
C      1  0.5821030000000  0.4660680000000  0.4739810000000 1.0
C      1  0.5516020000000  0.4706650000000  0.5769740000000 1.0
C      1  0.4980790000000  0.4924750000000  0.4254150000000 1.0
C      1  0.5527920000000  0.5812970000000  0.4799550000000 1.0
C      1  0.4467600000000  0.4093240000000  0.5047120000000 1.0
C      1  0.4732500000000  0.4989200000000  0.4408940000000 1.0
C      1  0.4767240000000  0.5424370000000  0.5786240000000 1.0
C      1  0.4126680000000  0.5288300000000  0.4785660000000 1.0
C      1  0.5062160000000  0.4709740000000  0.5931130000000 1.0
C      1  0.5577220000000  0.4620190000000  0.4324750000000 1.0
C      1  0.5289220000000  0.5558350000000  0.5411810000000 1.0
C      1  0.4698170000000  0.4038810000000  0.4880590000000 1.0
C      1  0.5096120000000  0.4394630000000  0.4427860000000 1.0
C      1  0.4915400000000  0.5028630000000  0.5532730000000 1.0
C      1  0.5700070000000  0.5661180000000  0.5163020000000 1.0
C      1  0.5840490000000  0.4703070000000  0.5028500000000 1.0
C      1  0.4778220000000  0.5501470000000  0.4989400000000 1.0
C      1  0.4230370000000  0.4559240000000  0.5223030000000 1.0
C      1  0.4518570000000  0.4553980000000  0.5328380000000 1.0
C      1  0.5457790000000  0.4264590000000  0.5434680000000 1.0
C      1  0.4372790000000  0.5626420000000  0.4743910000000 1.0
C      1  0.5434210000000  0.4834290000000  0.5309380000000 1.0
C      1  0.4558050000000  0.5501600000000  0.5585780000000 1.0
C      1  0.5018280000000  0.5857400000000  0.5334640000000 1.0
C      1  0.4932130000000  0.4013500000000  0.4719640000000 1.0
C      1  0.5272470000000  0.5412100000000  0.4496020000000 1.0
C      1  0.4775730000000  0.5779340000000  0.5183730000000 1.0
C      1  0.5272000000000  0.5894020000000  0.4645400000000 1.0
C      1  0.5355480000000  0.5007240000000  0.5829730000000 1.0
C      1  0.4812460000000  0.5158310000000  0.5906090000000 1.0
C      1  0.4495330000000  0.4743170000000  0.5705950000000 1.0
C      1  0.5026980000000  0.5500560000000  0.4843240000000 1.0
C      1  0.5027810000000  0.5564730000000  0.5806940000000 1.0
C      1  0.5381960000000  0.4633360000000  0.4807200000000 1.0
C      1  0.5619230000000  0.4446790000000  0.4744430000000 1.0
C      1  0.4587520000000  0.4481390000000  0.5607450000000 1.0
C      1  0.5099550000000  0.4467310000000  0.5749860000000 1.0
C      1  0.4323310000000  0.5353000000000  0.5464750000000 1.0
C      1  0.4634650000000  0.4488680000000  0.4395830000000 1.0
C      1  0.4631080000000  0.5391280000000  0.4220620000000 1.0
C      1  0.4056950000000  0.4758080000000  0.4770660000000 1.0
C      1  0.4968120000000  0.5632250000000  0.4292630000000 1.0
C      1  0.5092720000000  0.5278760000000  0.4682310000000 1.0
C      1  0.5180460000000  0.4706220000000  0.5224700000000 1.0
C      1  0.4939900000000  0.4784650000000  0.5361200000000 1.0
C      1  0.5579150000000  0.5073650000000  0.4548930000000 1.0
C      1  0.5327850000000  0.4665550000000  0.4198690000000 1.0
C      1  0.4679950000000  0.4775830000000  0.5241960000000 1.0
C      1  0.5149760000000  0.5306130000000  0.5357750000000 1.0
C      1  0.4691210000000  0.4970540000000  0.5725310000000 1.0
C      1  0.5124110000000  0.5733360000000  0.5581480000000 1.0
C      1  0.4639510000000  0.6061730000000  0.4748940000000 1.0
C      1  0.4663110000000  0.5146000000000  0.4649760000000 1.0
C      1  0.5119850000000  0.4116150000000  0.5264570000000 1.0
C      1  0.4233200000000  0.5262550000000  0.4524300000000 1.0
C      1  0.5085830000000  0.4997270000000  0.5949010000000 1.0
C      1  0.5135450000000  0.5164940000000  0.4197590000000 1.0
C      1  0.5718200000000  0.4519960000000  0.5235900000000 1.0
C      1  0.4309720000000  0.5548910000000  0.5242420000000 1.0
C      1  0.5036040000000  0.5983230000000  0.4770630000000 1.0
C      1  0.5345000000000  0.4465290000000  0.5594550000000 1.0
C      1  0.5271100000000  0.5754910000000  0.5187680000000 1.0
C      1  0.4310860000000  0.4356070000000  0.5021360000000 1.0
C      1  0.5286640000000  0.5494300000000  0.4971960000000 1.0
C      1  0.5135800000000  0.5035080000000  0.4836970000000 1.0
C      1  0.4922800000000  0.5378260000000  0.4145590000000 1.0
C      1  0.4828470000000  0.6018400000000  0.4950790000000 1.0
C      1  0.4877020000000  0.4531790000000  0.4558170000000 1.0
C      1  0.5484020000000  0.4372550000000  0.5228800000000 1.0
C      1  0.4429440000000  0.4496950000000  0.4794090000000 1.0
C      1  0.4799590000000  0.4106980000000  0.4485190000000 1.0
C      1  0.5543590000000  0.5872810000000  0.5085160000000 1.0
C      1  0.4967420000000  0.4199940000000  0.5450830000000 1.0
C      1  0.4327870000000  0.5076140000000  0.5367980000000 1.0
C      1  0.4839870000000  0.4336270000000  0.5652930000000 1.0
C      1  0.5272340000000  0.5413990000000  0.5808270000000 1.0
C      1  0.4475840000000  0.4926410000000  0.4280410000000 1.0
C      1  0.5849500000000  0.5234290000000  0.5000650000000 1.0
C      1  0.5680770000000  0.4733740000000  0.5450260000000 1.0
C      1  0.5808430000000  0.5419840000000  0.5232200000000 1.0
C      1  0.5487610000000  0.5090720000000  0.5240930000000 1.0
C      1  0.4490780000000  0.5882000000000  0.4734970000000 1.0
C      1  0.4084140000000  0.4756500000000  0.5058940000000 1.0
C      1  0.4525490000000  0.4974210000000  0.4852270000000 1.0
C      1  0.4753420000000  0.4257750000000  0.4245500000000 1.0
C      1  0.4392400000000  0.4659050000000  0.4365400000000 1.0
C      1  0.4219790000000  0.5512460000000  0.4960290000000 1.0
END
