TITL C-4164232-771-545 -4.44182254141948 125000 -10869.1138562037 0 0 75 (C1) n - 1
REM
REM in /home/nfs/bkarasulu/CARBON/AIRSS/Generating-Clusters/ReaxFF-fromJPCA2015/Units_Real/with-SteepDescent/Only-C1/SD-CG/Try1-3A/FIRE-CG
REM
REM
REM
REM
REM
REM ./C.cell (11c1c37f851c82e70ff6c80c92926a4b)
REM
REM compiler GCC version 9.2.1 20190827 (Red Hat 9.2.1-1)
REM options -cpp -mtune=generic -march=x86-64 -g -O0 -fpre-include=/usr/include/finclude/math-vector-fortran.h
REM seed 1244312268 -1033501615 1321502500 772325691 893107803 1210862246 -768366689 -264137957 -1644964718 -440809101 -1397297642 -706503915 -1015494745 -1180159899 718621482 -485441982 378597788 748094588 -1114855440 1380079172 1028391760 1334350688 1853626562 -1091988381 -1480177766 1401116695 -225535800 1958076327 755742366 401583049 -1846735511 -1076958513 1852926333
REM
CELL 1.54180   50.00000   50.00000   50.00000   90.00000   90.00000   90.00000
LATT -1
SFAC C  
C      1  0.4679280000000  0.4854750000000  0.4730190000000 1.0
C      1  0.5317900000000  0.4830610000000  0.4360300000000 1.0
C      1  0.4792120000000  0.4366560000000  0.5291010000000 1.0
C      1  0.5158330000000  0.4435960000000  0.4662510000000 1.0
C      1  0.5589750000000  0.5182800000000  0.4810450000000 1.0
C      1  0.4421560000000  0.5514340000000  0.5113120000000 1.0
C      1  0.5094020000000  0.4097450000000  0.4904700000000 1.0
C      1  0.4706820000000  0.5512140000000  0.5104870000000 1.0
C      1  0.5100190000000  0.4685050000000  0.4494660000000 1.0
C      1  0.5265580000000  0.5257630000000  0.5185140000000 1.0
C      1  0.4373210000000  0.5303810000000  0.5320540000000 1.0
C      1  0.4217830000000  0.4549910000000  0.5214680000000 1.0
C      1  0.5489380000000  0.4455250000000  0.5360510000000 1.0
C      1  0.4339520000000  0.4559030000000  0.5481210000000 1.0
C      1  0.5183840000000  0.5706990000000  0.4990350000000 1.0
C      1  0.5304840000000  0.5212350000000  0.4911700000000 1.0
C      1  0.5531200000000  0.4932890000000  0.5522110000000 1.0
C      1  0.5042400000000  0.5052540000000  0.4149930000000 1.0
C      1  0.4625940000000  0.4542570000000  0.5115040000000 1.0
C      1  0.5294630000000  0.5115120000000  0.4251780000000 1.0
C      1  0.4500740000000  0.5594430000000  0.4703790000000 1.0
C      1  0.5239160000000  0.4309330000000  0.5374640000000 1.0
C      1  0.4263830000000  0.4567640000000  0.4913420000000 1.0
C      1  0.4825330000000  0.4997300000000  0.5205040000000 1.0
C      1  0.4165000000000  0.5260710000000  0.4764910000000 1.0
C      1  0.5758650000000  0.5049780000000  0.5326820000000 1.0
C      1  0.5139850000000  0.4680620000000  0.5706040000000 1.0
C      1  0.4792570000000  0.4966150000000  0.4239400000000 1.0
C      1  0.4790830000000  0.5317370000000  0.5327040000000 1.0
C      1  0.5506430000000  0.5424920000000  0.4632950000000 1.0
C      1  0.5696050000000  0.4729250000000  0.4977030000000 1.0
C      1  0.4576620000000  0.5326540000000  0.5528870000000 1.0
C      1  0.5305410000000  0.4967070000000  0.5249780000000 1.0
C      1  0.5543990000000  0.5488330000000  0.5393760000000 1.0
C      1  0.4957510000000  0.4203840000000  0.4678190000000 1.0
C      1  0.4883120000000  0.5431840000000  0.4394330000000 1.0
C      1  0.5352760000000  0.4422740000000  0.4864530000000 1.0
C      1  0.4493520000000  0.4380380000000  0.4898160000000 1.0
C      1  0.5696460000000  0.4909670000000  0.4705960000000 1.0
C      1  0.4387180000000  0.4806380000000  0.4793290000000 1.0
C      1  0.4353850000000  0.5042590000000  0.5201360000000 1.0
C      1  0.4692630000000  0.5251500000000  0.4248820000000 1.0
C      1  0.5043220000000  0.4531470000000  0.5313370000000 1.0
C      1  0.5842110000000  0.4848690000000  0.5154020000000 1.0
C      1  0.4403660000000  0.5268310000000  0.4286890000000 1.0
C      1  0.5356280000000  0.5120690000000  0.5667890000000 1.0
C      1  0.5291260000000  0.5362270000000  0.4427020000000 1.0
C      1  0.5024950000000  0.5234870000000  0.4810350000000 1.0
C      1  0.5405160000000  0.4655600000000  0.5548930000000 1.0
C      1  0.4257050000000  0.5033170000000  0.4927720000000 1.0
C      1  0.5089910000000  0.5528800000000  0.5542240000000 1.0
C      1  0.4851130000000  0.4647470000000  0.5666480000000 1.0
C      1  0.5054140000000  0.4851020000000  0.5344880000000 1.0
C      1  0.4759970000000  0.5609680000000  0.4609450000000 1.0
C      1  0.4885310000000  0.5544320000000  0.4878020000000 1.0
C      1  0.5552430000000  0.4449540000000  0.5061000000000 1.0
C      1  0.5471350000000  0.5577890000000  0.4874440000000 1.0
C      1  0.4666740000000  0.4259810000000  0.4689480000000 1.0
C      1  0.4171480000000  0.5234480000000  0.4468520000000 1.0
C      1  0.5115990000000  0.4961040000000  0.5641320000000 1.0
C      1  0.4839570000000  0.5011770000000  0.4908560000000 1.0
C      1  0.4594030000000  0.4711520000000  0.5552360000000 1.0
C      1  0.4832160000000  0.5418530000000  0.5607370000000 1.0
C      1  0.5148600000000  0.5498360000000  0.5263570000000 1.0
C      1  0.5178720000000  0.4134250000000  0.5150410000000 1.0
C      1  0.5059470000000  0.5282740000000  0.4530600000000 1.0
C      1  0.5640700000000  0.5514810000000  0.5125100000000 1.0
C      1  0.5366850000000  0.5415700000000  0.5609870000000 1.0
C      1  0.5738810000000  0.5241660000000  0.5108230000000 1.0
C      1  0.4831570000000  0.4791860000000  0.4479520000000 1.0
C      1  0.5455880000000  0.4843940000000  0.5033670000000 1.0
C      1  0.4273590000000  0.5523030000000  0.4850800000000 1.0
C      1  0.5170940000000  0.5970700000000  0.5031810000000 1.0
C      1  0.4572100000000  0.4838310000000  0.5272920000000 1.0
C      1  0.5605020000000  0.4787590000000  0.4460280000000 1.0
END
