TITL C-4164232-771-100 89.3987693323884 125000 -28986.9882218818 0 0 196 (C1) n - 1
REM
REM in /home/nfs/bkarasulu/CARBON/AIRSS/Generating-Clusters/ReaxFF-fromJPCA2015/Units_Real/with-SteepDescent/Only-C1/SD-CG/Try1-3A/FIRE-CG
REM
REM
REM
REM
REM
REM ./C.cell (11c1c37f851c82e70ff6c80c92926a4b)
REM
REM compiler GCC version 9.2.1 20190827 (Red Hat 9.2.1-1)
REM options -cpp -mtune=generic -march=x86-64 -g -O0 -fpre-include=/usr/include/finclude/math-vector-fortran.h
REM seed 698168027 517871866 1465593783 1526701796 125239623 1141559110 -2079693415 1001330336 1188839169 412663920 1994009681 -123476857 -1994890012 -290807326 908384379 -1779775888 126637939 -1939775240 -1948187439 1266987643 -1543584666 1999775248 1313500555 -422345162 -1290162444 -383896036 1564410733 1831374312 -724702664 -857357079 -1152371337 -766081239 -1001850330
REM
CELL 1.54180   50.00000   50.00000   50.00000   90.00000   90.00000   90.00000
LATT -1
SFAC C  
C      1  0.4459510000000  0.4606940000000  0.5903930000000 1.0
C      1  0.5649890000000  0.4203040000000  0.5446670000000 1.0
C      1  0.4921770000000  0.4672200000000  0.6121350000000 1.0
C      1  0.4447660000000  0.5313120000000  0.4817410000000 1.0
C      1  0.4460780000000  0.4712450000000  0.5237440000000 1.0
C      1  0.4675550000000  0.5017670000000  0.5619870000000 1.0
C      1  0.5869910000000  0.5233770000000  0.4303400000000 1.0
C      1  0.5612210000000  0.4139840000000  0.4681990000000 1.0
C      1  0.4172960000000  0.5238130000000  0.5638230000000 1.0
C      1  0.5682250000000  0.5844610000000  0.4954620000000 1.0
C      1  0.5214890000000  0.5672080000000  0.4764470000000 1.0
C      1  0.5458160000000  0.4593500000000  0.4096330000000 1.0
C      1  0.4458400000000  0.4098180000000  0.5333920000000 1.0
C      1  0.4709410000000  0.5250820000000  0.4421040000000 1.0
C      1  0.5770260000000  0.4690900000000  0.5851330000000 1.0
C      1  0.4427150000000  0.4649100000000  0.4156830000000 1.0
C      1  0.4346480000000  0.5798460000000  0.5360550000000 1.0
C      1  0.4775930000000  0.5814500000000  0.5656620000000 1.0
C      1  0.4290940000000  0.4450790000000  0.5712880000000 1.0
C      1  0.4964700000000  0.5594180000000  0.4905550000000 1.0
C      1  0.4186720000000  0.5260550000000  0.4350750000000 1.0
C      1  0.5310770000000  0.5522610000000  0.5337770000000 1.0
C      1  0.5224220000000  0.6068990000000  0.4948260000000 1.0
C      1  0.5369110000000  0.4611180000000  0.5936420000000 1.0
C      1  0.4537200000000  0.4247940000000  0.4389590000000 1.0
C      1  0.4183300000000  0.4991150000000  0.5807160000000 1.0
C      1  0.4700260000000  0.5045040000000  0.5143830000000 1.0
C      1  0.6041060000000  0.4699860000000  0.5026330000000 1.0
C      1  0.4326700000000  0.5976780000000  0.4877190000000 1.0
C      1  0.4737810000000  0.6072620000000  0.5138790000000 1.0
C      1  0.4057960000000  0.4387610000000  0.4765060000000 1.0
C      1  0.5614870000000  0.5324320000000  0.4244030000000 1.0
C      1  0.4959730000000  0.5141380000000  0.5181010000000 1.0
C      1  0.5164800000000  0.5378680000000  0.5536070000000 1.0
C      1  0.6028570000000  0.4857140000000  0.4487660000000 1.0
C      1  0.4908570000000  0.5377060000000  0.4250850000000 1.0
C      1  0.4862020000000  0.6051350000000  0.4620280000000 1.0
C      1  0.4524490000000  0.5043920000000  0.4360640000000 1.0
C      1  0.5995260000000  0.4564010000000  0.4498670000000 1.0
C      1  0.3968790000000  0.5113940000000  0.5464890000000 1.0
C      1  0.5419640000000  0.5758860000000  0.4251430000000 1.0
C      1  0.5525720000000  0.5372970000000  0.4661050000000 1.0
C      1  0.4401860000000  0.4250410000000  0.5559220000000 1.0
C      1  0.5540830000000  0.4660750000000  0.5367780000000 1.0
C      1  0.4381110000000  0.5381700000000  0.5218300000000 1.0
C      1  0.4938950000000  0.5347590000000  0.5377050000000 1.0
C      1  0.4838220000000  0.4777930000000  0.4510100000000 1.0
C      1  0.4935400000000  0.4425100000000  0.4133210000000 1.0
C      1  0.4649480000000  0.4548160000000  0.5076110000000 1.0
C      1  0.4749310000000  0.4055020000000  0.4455500000000 1.0
C      1  0.4647570000000  0.5083110000000  0.3953290000000 1.0
C      1  0.5756410000000  0.5828140000000  0.4670540000000 1.0
C      1  0.3761690000000  0.5106530000000  0.4941330000000 1.0
C      1  0.4422800000000  0.5554680000000  0.5859910000000 1.0
C      1  0.4725530000000  0.5870280000000  0.4431080000000 1.0
C      1  0.5442510000000  0.5664990000000  0.4949870000000 1.0
C      1  0.5003430000000  0.4936350000000  0.4329240000000 1.0
C      1  0.3918260000000  0.4649420000000  0.4699910000000 1.0
C      1  0.5354950000000  0.6020220000000  0.5206080000000 1.0
C      1  0.5135200000000  0.5112750000000  0.6042300000000 1.0
C      1  0.4721460000000  0.5624740000000  0.3971820000000 1.0
C      1  0.5382370000000  0.5297760000000  0.3926190000000 1.0
C      1  0.4852160000000  0.4737460000000  0.4935060000000 1.0
C      1  0.5196250000000  0.5840800000000  0.5377160000000 1.0
C      1  0.5089960000000  0.4873660000000  0.3888420000000 1.0
C      1  0.5117900000000  0.5175940000000  0.3869190000000 1.0
C      1  0.4230050000000  0.4391670000000  0.4532400000000 1.0
C      1  0.4883920000000  0.4651650000000  0.5463340000000 1.0
C      1  0.4114660000000  0.4832020000000  0.4564140000000 1.0
C      1  0.4644610000000  0.4445080000000  0.4190560000000 1.0
C      1  0.5294190000000  0.4983240000000  0.5517060000000 1.0
C      1  0.5596970000000  0.4451460000000  0.5870120000000 1.0
C      1  0.4859840000000  0.5883580000000  0.5356850000000 1.0
C      1  0.5586690000000  0.5568710000000  0.5768040000000 1.0
C      1  0.6031000000000  0.4814900000000  0.5387800000000 1.0
C      1  0.5282130000000  0.4348520000000  0.5099450000000 1.0
C      1  0.5872920000000  0.4952470000000  0.4259970000000 1.0
C      1  0.3932140000000  0.5289810000000  0.4794630000000 1.0
C      1  0.5711040000000  0.5131620000000  0.5232880000000 1.0
C      1  0.6022480000000  0.4967470000000  0.4756940000000 1.0
C      1  0.5491640000000  0.5520440000000  0.4101640000000 1.0
C      1  0.4858040000000  0.4897600000000  0.4058280000000 1.0
C      1  0.4851730000000  0.5307250000000  0.3947360000000 1.0
C      1  0.5508190000000  0.4140370000000  0.4406650000000 1.0
C      1  0.5023700000000  0.4267930000000  0.5848050000000 1.0
C      1  0.5156740000000  0.5878540000000  0.4246840000000 1.0
C      1  0.5519390000000  0.5154640000000  0.5469030000000 1.0
C      1  0.5498390000000  0.4232090000000  0.5686490000000 1.0
C      1  0.5127160000000  0.3964700000000  0.5444810000000 1.0
C      1  0.4925670000000  0.6074780000000  0.4912750000000 1.0
C      1  0.5440470000000  0.4541660000000  0.4931150000000 1.0
C      1  0.4566730000000  0.4946520000000  0.5367140000000 1.0
C      1  0.3717780000000  0.4822090000000  0.4841390000000 1.0
C      1  0.4973720000000  0.4180830000000  0.4286350000000 1.0
C      1  0.4774270000000  0.5342330000000  0.5823980000000 1.0
C      1  0.5407130000000  0.4817640000000  0.5713220000000 1.0
C      1  0.4742510000000  0.4604780000000  0.5888280000000 1.0
C      1  0.5955060000000  0.5353450000000  0.5480220000000 1.0
C      1  0.4983420000000  0.3944960000000  0.4953370000000 1.0
C      1  0.5538680000000  0.4763530000000  0.5092010000000 1.0
C      1  0.5796150000000  0.4460170000000  0.5406090000000 1.0
C      1  0.4015440000000  0.4468910000000  0.5260650000000 1.0
C      1  0.3983300000000  0.4748560000000  0.5152510000000 1.0
C      1  0.4943670000000  0.4529030000000  0.4579100000000 1.0
C      1  0.5024370000000  0.5291590000000  0.4799050000000 1.0
C      1  0.4013740000000  0.4850780000000  0.5610360000000 1.0
C      1  0.5973270000000  0.5343450000000  0.4564000000000 1.0
C      1  0.4852840000000  0.4809970000000  0.5686210000000 1.0
C      1  0.4079390000000  0.4573010000000  0.5534410000000 1.0
C      1  0.5332760000000  0.6050290000000  0.4666200000000 1.0
C      1  0.5238960000000  0.5414740000000  0.4616280000000 1.0
C      1  0.5910040000000  0.4566290000000  0.4786860000000 1.0
C      1  0.4792510000000  0.4385270000000  0.5497830000000 1.0
C      1  0.5598410000000  0.4342680000000  0.4198810000000 1.0
C      1  0.5519640000000  0.3971600000000  0.4901880000000 1.0
C      1  0.6010210000000  0.5094350000000  0.5357190000000 1.0
C      1  0.4215830000000  0.4614660000000  0.4352610000000 1.0
C      1  0.4319340000000  0.4086310000000  0.5069910000000 1.0
C      1  0.4434260000000  0.4943210000000  0.4096540000000 1.0
C      1  0.5488850000000  0.5028430000000  0.3979000000000 1.0
C      1  0.5047440000000  0.5344590000000  0.5852430000000 1.0
C      1  0.5571030000000  0.5096370000000  0.4731420000000 1.0
C      1  0.5276910000000  0.3831810000000  0.4972950000000 1.0
C      1  0.4210470000000  0.5619730000000  0.5175140000000 1.0
C      1  0.5504790000000  0.4101640000000  0.5203140000000 1.0
C      1  0.5542370000000  0.5036900000000  0.5015530000000 1.0
C      1  0.5205690000000  0.4508590000000  0.4469240000000 1.0
C      1  0.4692870000000  0.5302140000000  0.5569140000000 1.0
C      1  0.4744250000000  0.3937130000000  0.4726680000000 1.0
C      1  0.5690320000000  0.5335720000000  0.5614950000000 1.0
C      1  0.5427660000000  0.5121640000000  0.4283520000000 1.0
C      1  0.5332130000000  0.3860400000000  0.5259700000000 1.0
C      1  0.4113760000000  0.4287110000000  0.5038120000000 1.0
C      1  0.5111200000000  0.6061880000000  0.4474130000000 1.0
C      1  0.4261220000000  0.4885390000000  0.5110280000000 1.0
C      1  0.4740830000000  0.5209670000000  0.4702840000000 1.0
C      1  0.5805590000000  0.4485560000000  0.4304040000000 1.0
C      1  0.5231690000000  0.4219560000000  0.4432600000000 1.0
C      1  0.4730960000000  0.4225760000000  0.5263470000000 1.0
C      1  0.4370270000000  0.5555220000000  0.4728610000000 1.0
C      1  0.5525180000000  0.5828320000000  0.5633260000000 1.0
C      1  0.5663920000000  0.4411000000000  0.4800960000000 1.0
C      1  0.4049110000000  0.5150380000000  0.4555450000000 1.0
C      1  0.5963600000000  0.5226460000000  0.4827370000000 1.0
C      1  0.5025610000000  0.5796350000000  0.5820050000000 1.0
C      1  0.4910810000000  0.3989740000000  0.5252660000000 1.0
C      1  0.4291720000000  0.5801760000000  0.4637800000000 1.0
C      1  0.5824020000000  0.5812380000000  0.5211770000000 1.0
C      1  0.5117720000000  0.4489950000000  0.6016880000000 1.0
C      1  0.4445430000000  0.4521430000000  0.4856690000000 1.0
C      1  0.4741210000000  0.4327580000000  0.5777310000000 1.0
C      1  0.5421560000000  0.5147620000000  0.6016250000000 1.0
C      1  0.4405740000000  0.5351980000000  0.5503200000000 1.0
C      1  0.5416330000000  0.5452380000000  0.5969930000000 1.0
C      1  0.4495400000000  0.4023660000000  0.4840170000000 1.0
C      1  0.3988580000000  0.5442000000000  0.5057280000000 1.0
C      1  0.5049100000000  0.4232980000000  0.4947050000000 1.0
C      1  0.4456450000000  0.5786320000000  0.4376010000000 1.0
C      1  0.5166870000000  0.4620960000000  0.4033410000000 1.0
C      1  0.5477350000000  0.4942710000000  0.4513650000000 1.0
C      1  0.5942140000000  0.5548530000000  0.5262350000000 1.0
C      1  0.5137660000000  0.5079090000000  0.4965860000000 1.0
C      1  0.5792890000000  0.5366780000000  0.5081120000000 1.0
C      1  0.4348250000000  0.5331310000000  0.4150830000000 1.0
C      1  0.4568860000000  0.4824050000000  0.4517830000000 1.0
C      1  0.4677010000000  0.4959050000000  0.4879710000000 1.0
C      1  0.5526620000000  0.5885500000000  0.4504280000000 1.0
C      1  0.5214120000000  0.4137130000000  0.5674240000000 1.0
C      1  0.3870150000000  0.5227690000000  0.5208650000000 1.0
C      1  0.5157040000000  0.5584440000000  0.5973300000000 1.0
C      1  0.4899390000000  0.4959760000000  0.6125180000000 1.0
C      1  0.5601310000000  0.5929040000000  0.5360970000000 1.0
C      1  0.5127700000000  0.5205700000000  0.4357840000000 1.0
C      1  0.5752720000000  0.5543670000000  0.4593610000000 1.0
C      1  0.4869080000000  0.4345100000000  0.4768000000000 1.0
C      1  0.4900790000000  0.5730060000000  0.4231010000000 1.0
C      1  0.4405820000000  0.4883790000000  0.5970190000000 1.0
C      1  0.5283810000000  0.4537580000000  0.5332580000000 1.0
C      1  0.6053500000000  0.4462170000000  0.5186690000000 1.0
C      1  0.5131430000000  0.4803940000000  0.4871670000000 1.0
C      1  0.5130500000000  0.4773350000000  0.5392390000000 1.0
C      1  0.4578130000000  0.4297890000000  0.4719870000000 1.0
C      1  0.5927920000000  0.4653550000000  0.5602360000000 1.0
C      1  0.5470980000000  0.5421630000000  0.5108540000000 1.0
C      1  0.4460500000000  0.5594710000000  0.4150530000000 1.0
C      1  0.4497560000000  0.5739230000000  0.5636910000000 1.0
C      1  0.5609050000000  0.4949240000000  0.5883570000000 1.0
C      1  0.5248160000000  0.5906570000000  0.5665050000000 1.0
C      1  0.4315310000000  0.5168270000000  0.5037560000000 1.0
C      1  0.4613660000000  0.5057520000000  0.6081030000000 1.0
C      1  0.5269840000000  0.4763500000000  0.4589500000000 1.0
C      1  0.5660290000000  0.4822000000000  0.4082320000000 1.0
C      1  0.4385390000000  0.4773960000000  0.4727430000000 1.0
C      1  0.4568150000000  0.5347750000000  0.6029140000000 1.0
C      1  0.4865050000000  0.5688800000000  0.5137880000000 1.0
C      1  0.4446080000000  0.5987530000000  0.5145390000000 1.0
END
