TITL C-4164247-2821-299 42.5201190361759 125000 -18180.0527444361 0 0 123 (C1) n - 1
REM
REM in /home/nfs/bkarasulu/CARBON/AIRSS/Generating-Clusters/ReaxFF-fromJPCA2015/Units_Real/with-SteepDescent/Only-C1/SD-CG/Try1-3A/FIRE-CG
REM
REM
REM
REM
REM
REM ./C.cell (11c1c37f851c82e70ff6c80c92926a4b)
REM
REM compiler GCC version 9.2.1 20190827 (Red Hat 9.2.1-1)
REM options -cpp -mtune=generic -march=x86-64 -g -O0 -fpre-include=/usr/include/finclude/math-vector-fortran.h
REM seed 326015891 478816611 -527095594 -1504191722 1145644768 -1200759677 934694048 -2132950244 389683482 -542163970 1074349933 -648717181 1085921692 -105806653 -323782178 -595744625 -940675790 -1132044937 -19174329 634441266 1988474414 -63758568 -399123036 1668166878 -1090281481 -1749811550 161877348 1896463563 1024451648 -1776319494 -413053651 -1375605824 -1918257260
REM
CELL 1.54180   50.00000   50.00000   50.00000   90.00000   90.00000   90.00000
LATT -1
SFAC C  
C      1  0.5864590000000  0.4610320000000  0.5462960000000 1.0
C      1  0.5028870000000  0.4148290000000  0.4995360000000 1.0
C      1  0.5268420000000  0.4846960000000  0.4004880000000 1.0
C      1  0.5089720000000  0.4801930000000  0.5492000000000 1.0
C      1  0.4367920000000  0.4332080000000  0.5155930000000 1.0
C      1  0.4043860000000  0.4587600000000  0.4946960000000 1.0
C      1  0.4075820000000  0.5027150000000  0.5472820000000 1.0
C      1  0.5039480000000  0.4673870000000  0.4804500000000 1.0
C      1  0.4424880000000  0.4906340000000  0.4271820000000 1.0
C      1  0.4208200000000  0.4450610000000  0.4737810000000 1.0
C      1  0.5001550000000  0.4920000000000  0.3954010000000 1.0
C      1  0.5443880000000  0.4730960000000  0.4395990000000 1.0
C      1  0.5251890000000  0.4934090000000  0.4595850000000 1.0
C      1  0.5855700000000  0.4913700000000  0.4661580000000 1.0
C      1  0.4500920000000  0.5558100000000  0.4596520000000 1.0
C      1  0.4316640000000  0.4574470000000  0.4498780000000 1.0
C      1  0.4627380000000  0.5298380000000  0.4976040000000 1.0
C      1  0.5782370000000  0.5591280000000  0.5352280000000 1.0
C      1  0.5310690000000  0.5880300000000  0.4887520000000 1.0
C      1  0.4374610000000  0.5188650000000  0.4217680000000 1.0
C      1  0.5687360000000  0.5057110000000  0.4217010000000 1.0
C      1  0.5232190000000  0.4820040000000  0.5896700000000 1.0
C      1  0.4957770000000  0.5767200000000  0.4558880000000 1.0
C      1  0.5553240000000  0.5803270000000  0.4729580000000 1.0
C      1  0.5563300000000  0.5488200000000  0.5743140000000 1.0
C      1  0.4214130000000  0.5284390000000  0.5528900000000 1.0
C      1  0.5371180000000  0.5730890000000  0.5134660000000 1.0
C      1  0.5873200000000  0.4503280000000  0.5202740000000 1.0
C      1  0.4824850000000  0.5020140000000  0.4066490000000 1.0
C      1  0.4562730000000  0.4694170000000  0.5001820000000 1.0
C      1  0.4410970000000  0.5138680000000  0.4941240000000 1.0
C      1  0.4593200000000  0.5352670000000  0.5392430000000 1.0
C      1  0.5095960000000  0.4598240000000  0.5303340000000 1.0
C      1  0.5728360000000  0.4769880000000  0.4222640000000 1.0
C      1  0.5838090000000  0.5483950000000  0.5083220000000 1.0
C      1  0.5528610000000  0.5237810000000  0.5619190000000 1.0
C      1  0.5354860000000  0.4510390000000  0.5226570000000 1.0
C      1  0.4366060000000  0.5704360000000  0.4806120000000 1.0
C      1  0.5588290000000  0.4525220000000  0.4514850000000 1.0
C      1  0.3969860000000  0.4881770000000  0.4901190000000 1.0
C      1  0.5768520000000  0.5407370000000  0.5578700000000 1.0
C      1  0.4722010000000  0.4913950000000  0.5985060000000 1.0
C      1  0.5431030000000  0.5713140000000  0.5627190000000 1.0
C      1  0.4800820000000  0.5930280000000  0.4998950000000 1.0
C      1  0.4312480000000  0.4866600000000  0.4535640000000 1.0
C      1  0.5003720000000  0.4832450000000  0.4604780000000 1.0
C      1  0.4578120000000  0.4709360000000  0.5269710000000 1.0
C      1  0.5860780000000  0.4992440000000  0.4881900000000 1.0
C      1  0.5333470000000  0.4234010000000  0.5085030000000 1.0
C      1  0.5351650000000  0.5547390000000  0.4323510000000 1.0
C      1  0.4572750000000  0.4429770000000  0.4462710000000 1.0
C      1  0.5729900000000  0.5647020000000  0.4882970000000 1.0
C      1  0.4673190000000  0.4795400000000  0.4167780000000 1.0
C      1  0.4109400000000  0.5133150000000  0.4847420000000 1.0
C      1  0.4844500000000  0.5255590000000  0.4488150000000 1.0
C      1  0.5143890000000  0.5679690000000  0.5633690000000 1.0
C      1  0.4396320000000  0.5262730000000  0.5755740000000 1.0
C      1  0.5259810000000  0.4621140000000  0.4190770000000 1.0
C      1  0.5531580000000  0.4739110000000  0.5278440000000 1.0
C      1  0.5745370000000  0.5129010000000  0.4502830000000 1.0
C      1  0.5095030000000  0.5219400000000  0.5297310000000 1.0
C      1  0.5418690000000  0.5319210000000  0.4825880000000 1.0
C      1  0.4781560000000  0.5525010000000  0.5519150000000 1.0
C      1  0.4406240000000  0.4282920000000  0.4868810000000 1.0
C      1  0.5577790000000  0.5607670000000  0.4503490000000 1.0
C      1  0.5438910000000  0.4132150000000  0.5643210000000 1.0
C      1  0.4790600000000  0.5018190000000  0.4626460000000 1.0
C      1  0.4375900000000  0.5443980000000  0.4361800000000 1.0
C      1  0.5383500000000  0.5237200000000  0.5307040000000 1.0
C      1  0.5404280000000  0.5449810000000  0.5085000000000 1.0
C      1  0.4769980000000  0.4546160000000  0.4285360000000 1.0
C      1  0.4319200000000  0.5676180000000  0.5109000000000 1.0
C      1  0.5739530000000  0.4747720000000  0.5647710000000 1.0
C      1  0.4579020000000  0.4232210000000  0.5341580000000 1.0
C      1  0.4797680000000  0.5502640000000  0.4618740000000 1.0
C      1  0.5133940000000  0.4295250000000  0.4537400000000 1.0
C      1  0.4075020000000  0.4799540000000  0.5289080000000 1.0
C      1  0.4930560000000  0.4192770000000  0.4727890000000 1.0
C      1  0.5798420000000  0.5168010000000  0.5085670000000 1.0
C      1  0.4961290000000  0.4662750000000  0.5067850000000 1.0
C      1  0.5048670000000  0.4457350000000  0.4308340000000 1.0
C      1  0.4335440000000  0.5461810000000  0.5305840000000 1.0
C      1  0.5569770000000  0.5023110000000  0.5181080000000 1.0
C      1  0.5030890000000  0.5920800000000  0.4803040000000 1.0
C      1  0.4665780000000  0.5076380000000  0.5445640000000 1.0
C      1  0.5786430000000  0.4628420000000  0.4695050000000 1.0
C      1  0.4153940000000  0.5276470000000  0.4367730000000 1.0
C      1  0.5367980000000  0.4802500000000  0.5515330000000 1.0
C      1  0.4505910000000  0.4812730000000  0.5536420000000 1.0
C      1  0.4959120000000  0.5223900000000  0.4232590000000 1.0
C      1  0.4946010000000  0.5043360000000  0.5446760000000 1.0
C      1  0.4629770000000  0.5194660000000  0.5918940000000 1.0
C      1  0.4835500000000  0.4235890000000  0.5185880000000 1.0
C      1  0.4921710000000  0.5266390000000  0.5886910000000 1.0
C      1  0.4870870000000  0.5446080000000  0.4965220000000 1.0
C      1  0.5552430000000  0.5766990000000  0.5368710000000 1.0
C      1  0.5415270000000  0.5092850000000  0.4095850000000 1.0
C      1  0.4190360000000  0.4785260000000  0.5524500000000 1.0
C      1  0.5416460000000  0.4315690000000  0.4615810000000 1.0
C      1  0.5505430000000  0.4916690000000  0.5753240000000 1.0
C      1  0.4097980000000  0.5083880000000  0.4562710000000 1.0
C      1  0.5136440000000  0.5764410000000  0.4327950000000 1.0
C      1  0.4914340000000  0.5721120000000  0.5155430000000 1.0
C      1  0.4504270000000  0.5877660000000  0.4990540000000 1.0
C      1  0.4149630000000  0.4523910000000  0.5215120000000 1.0
C      1  0.5245930000000  0.5298370000000  0.4196180000000 1.0
C      1  0.4695940000000  0.4351270000000  0.5574350000000 1.0
C      1  0.5026580000000  0.5195470000000  0.5019980000000 1.0
C      1  0.5013030000000  0.4997010000000  0.5967370000000 1.0
C      1  0.5234480000000  0.5111080000000  0.4825240000000 1.0
C      1  0.4931590000000  0.5757610000000  0.5440810000000 1.0
C      1  0.5312160000000  0.4337730000000  0.5830210000000 1.0
C      1  0.5581370000000  0.5347600000000  0.4592370000000 1.0
C      1  0.5131830000000  0.4552600000000  0.5869580000000 1.0
C      1  0.5015300000000  0.5409020000000  0.5643940000000 1.0
C      1  0.5769160000000  0.4444540000000  0.4923070000000 1.0
C      1  0.4639080000000  0.4256060000000  0.4683850000000 1.0
C      1  0.4640710000000  0.4698040000000  0.5812470000000 1.0
C      1  0.4761490000000  0.4475560000000  0.5005880000000 1.0
C      1  0.5542460000000  0.4273450000000  0.4868530000000 1.0
C      1  0.4824370000000  0.4482900000000  0.5787320000000 1.0
C      1  0.5437790000000  0.4125310000000  0.5354910000000 1.0
C      1  0.4548290000000  0.4922990000000  0.4777880000000 1.0
END
