TITL C-4164239-2837-690 -0.903015478037079 125000 -8032.64568447485 0 0 55 (C1) n - 1
REM
REM in /home/nfs/bkarasulu/CARBON/AIRSS/Generating-Clusters/ReaxFF-fromJPCA2015/Units_Real/with-SteepDescent/Only-C1/SD-CG/Try1-3A/FIRE-CG
REM
REM
REM
REM
REM
REM ./C.cell (11c1c37f851c82e70ff6c80c92926a4b)
REM
REM compiler GCC version 9.2.1 20190827 (Red Hat 9.2.1-1)
REM options -cpp -mtune=generic -march=x86-64 -g -O0 -fpre-include=/usr/include/finclude/math-vector-fortran.h
REM seed 480696606 1225243016 838763542 -708993858 -1383578336 -1711955800 804984027 -227868061 2109654788 -154660833 -138516076 -689207996 -1189003209 -1188986664 -653544448 -898260368 1685936932 1238109020 -1990701606 1759433026 -1010759197 1779265109 -223899996 1499552054 -1599370745 -689789208 531679337 -1235270800 1102381869 1537810709 863819401 544792023 1846059812
REM
CELL 1.54180   50.00000   50.00000   50.00000   90.00000   90.00000   90.00000
LATT -1
SFAC C  
C      1  0.5102960000000  0.5118990000000  0.4649550000000 1.0
C      1  0.4579170000000  0.4981500000000  0.4532430000000 1.0
C      1  0.4791600000000  0.5293980000000  0.5555660000000 1.0
C      1  0.4643300000000  0.4991310000000  0.4825060000000 1.0
C      1  0.4482460000000  0.4610840000000  0.4697120000000 1.0
C      1  0.4514770000000  0.4373990000000  0.4888650000000 1.0
C      1  0.4602140000000  0.5229110000000  0.4392550000000 1.0
C      1  0.5477320000000  0.5249680000000  0.5278420000000 1.0
C      1  0.5470280000000  0.4615890000000  0.5443830000000 1.0
C      1  0.5428820000000  0.4746760000000  0.5158810000000 1.0
C      1  0.4885270000000  0.4451250000000  0.4726040000000 1.0
C      1  0.5337430000000  0.4356730000000  0.5416270000000 1.0
C      1  0.4434150000000  0.4712920000000  0.5197050000000 1.0
C      1  0.5271710000000  0.5002350000000  0.5681890000000 1.0
C      1  0.4899870000000  0.4571750000000  0.5198910000000 1.0
C      1  0.4677960000000  0.5540960000000  0.5410030000000 1.0
C      1  0.5074180000000  0.4343320000000  0.5291130000000 1.0
C      1  0.4673820000000  0.4709540000000  0.4493880000000 1.0
C      1  0.5276410000000  0.4989690000000  0.4457510000000 1.0
C      1  0.4747030000000  0.5706610000000  0.4908510000000 1.0
C      1  0.4962400000000  0.4653710000000  0.4583420000000 1.0
C      1  0.5537420000000  0.5496570000000  0.4856930000000 1.0
C      1  0.4908830000000  0.5242230000000  0.5124240000000 1.0
C      1  0.4515240000000  0.5600010000000  0.4768080000000 1.0
C      1  0.5070000000000  0.5504540000000  0.5088570000000 1.0
C      1  0.4351440000000  0.4426920000000  0.5134190000000 1.0
C      1  0.4453980000000  0.4791240000000  0.4915510000000 1.0
C      1  0.5601020000000  0.4796550000000  0.4714520000000 1.0
C      1  0.5448990000000  0.4506140000000  0.4975460000000 1.0
C      1  0.5054910000000  0.5021330000000  0.5240630000000 1.0
C      1  0.5564030000000  0.5013730000000  0.5128890000000 1.0
C      1  0.5012030000000  0.5395070000000  0.4608130000000 1.0
C      1  0.5519850000000  0.5171830000000  0.4432870000000 1.0
C      1  0.5089490000000  0.4791210000000  0.5064060000000 1.0
C      1  0.5026160000000  0.4922660000000  0.5526260000000 1.0
C      1  0.5248340000000  0.4701870000000  0.4508850000000 1.0
C      1  0.4827420000000  0.5676470000000  0.5188790000000 1.0
C      1  0.4971720000000  0.4897880000000  0.4797550000000 1.0
C      1  0.5451020000000  0.4565110000000  0.4677220000000 1.0
C      1  0.5073170000000  0.5368710000000  0.5596970000000 1.0
C      1  0.4741740000000  0.4986130000000  0.5537560000000 1.0
C      1  0.4801750000000  0.4374520000000  0.4977090000000 1.0
C      1  0.4453690000000  0.5510780000000  0.5244330000000 1.0
C      1  0.4994490000000  0.5588490000000  0.4820180000000 1.0
C      1  0.5319210000000  0.4298110000000  0.5127970000000 1.0
C      1  0.4640340000000  0.5217700000000  0.5020690000000 1.0
C      1  0.4549880000000  0.5493850000000  0.4499950000000 1.0
C      1  0.5681380000000  0.5024590000000  0.4860100000000 1.0
C      1  0.5642810000000  0.5270990000000  0.4680320000000 1.0
C      1  0.4418950000000  0.5417400000000  0.4980210000000 1.0
C      1  0.4806150000000  0.5416660000000  0.4416740000000 1.0
C      1  0.5392590000000  0.5468600000000  0.5106310000000 1.0
C      1  0.4676810000000  0.4765050000000  0.5356210000000 1.0
C      1  0.5474630000000  0.4775150000000  0.5691490000000 1.0
C      1  0.5347470000000  0.5251020000000  0.5546440000000 1.0
END
