TITL C-4164243-3780-568 1.81921052261029 125000 -8034.99109555684 0 0 54 (C1) n - 1
REM
REM in /home/nfs/bkarasulu/CARBON/AIRSS/Generating-Clusters/ReaxFF-fromJPCA2015/Units_Real/with-SteepDescent/Only-C1/SD-CG/Try1-3A/FIRE-CG
REM
REM
REM
REM
REM
REM ./C.cell (11c1c37f851c82e70ff6c80c92926a4b)
REM
REM compiler GCC version 9.2.1 20190827 (Red Hat 9.2.1-1)
REM options -cpp -mtune=generic -march=x86-64 -g -O0 -fpre-include=/usr/include/finclude/math-vector-fortran.h
REM seed 142605657 1344467068 1695043943 2119719361 -1595305242 1905239648 -83569478 335771009 -1556848482 -689960320 531191238 -566674297 1981709715 -1086897563 -856879294 485894008 2087378164 -879330143 -352541412 -1334803327 1268618484 -211657346 345830132 1630736347 1844234604 1997352305 1185323612 -1023205881 -1431873611 1094445293 504242915 -694026408 -872124244
REM
CELL 1.54180   50.00000   50.00000   50.00000   90.00000   90.00000   90.00000
LATT -1
SFAC C  
C      1  0.4840630000000  0.4439910000000  0.4733260000000 1.0
C      1  0.4698780000000  0.5612990000000  0.4662340000000 1.0
C      1  0.5598450000000  0.4460000000000  0.4889760000000 1.0
C      1  0.4780280000000  0.4597630000000  0.5428230000000 1.0
C      1  0.5471420000000  0.4623300000000  0.4318060000000 1.0
C      1  0.4833900000000  0.5557170000000  0.5128970000000 1.0
C      1  0.4280010000000  0.4957020000000  0.5177780000000 1.0
C      1  0.4713060000000  0.4431770000000  0.4982480000000 1.0
C      1  0.5388370000000  0.5587290000000  0.4995440000000 1.0
C      1  0.4667240000000  0.4667710000000  0.4639040000000 1.0
C      1  0.5441280000000  0.5207700000000  0.5570620000000 1.0
C      1  0.4771170000000  0.4800420000000  0.5639830000000 1.0
C      1  0.5254590000000  0.5286330000000  0.4625540000000 1.0
C      1  0.5626650000000  0.5416100000000  0.5095150000000 1.0
C      1  0.4575380000000  0.5035050000000  0.5630610000000 1.0
C      1  0.5210730000000  0.4604210000000  0.4445320000000 1.0
C      1  0.5021970000000  0.5565150000000  0.5345090000000 1.0
C      1  0.5565800000000  0.4921490000000  0.4734270000000 1.0
C      1  0.5106620000000  0.5160850000000  0.4394370000000 1.0
C      1  0.5548030000000  0.4599170000000  0.5332210000000 1.0
C      1  0.5136220000000  0.4463260000000  0.4701910000000 1.0
C      1  0.5302790000000  0.5620340000000  0.5277600000000 1.0
C      1  0.4964060000000  0.5353140000000  0.5547460000000 1.0
C      1  0.5586280000000  0.4782730000000  0.4485170000000 1.0
C      1  0.5055960000000  0.4861280000000  0.5603170000000 1.0
C      1  0.5193440000000  0.5529020000000  0.4781660000000 1.0
C      1  0.5513220000000  0.5436260000000  0.5374330000000 1.0
C      1  0.4376260000000  0.5217580000000  0.5069590000000 1.0
C      1  0.5307410000000  0.4450080000000  0.4934680000000 1.0
C      1  0.5283520000000  0.4549470000000  0.5216420000000 1.0
C      1  0.4409590000000  0.4721350000000  0.4765280000000 1.0
C      1  0.4822310000000  0.5195370000000  0.4421250000000 1.0
C      1  0.4694200000000  0.5269530000000  0.5500290000000 1.0
C      1  0.4264060000000  0.4981070000000  0.4664810000000 1.0
C      1  0.5631980000000  0.5005790000000  0.5642910000000 1.0
C      1  0.5068540000000  0.4862320000000  0.4410920000000 1.0
C      1  0.4847420000000  0.4906120000000  0.4605160000000 1.0
C      1  0.4675770000000  0.5291660000000  0.5182660000000 1.0
C      1  0.5035020000000  0.4978380000000  0.4871470000000 1.0
C      1  0.5741060000000  0.4719700000000  0.4865050000000 1.0
C      1  0.5602900000000  0.4819280000000  0.5511910000000 1.0
C      1  0.4373150000000  0.5012850000000  0.5435920000000 1.0
C      1  0.4870460000000  0.5121930000000  0.5021640000000 1.0
C      1  0.4916820000000  0.5607900000000  0.4855690000000 1.0
C      1  0.4664740000000  0.5430220000000  0.4451290000000 1.0
C      1  0.5157720000000  0.5137620000000  0.5597610000000 1.0
C      1  0.4329630000000  0.5265200000000  0.4798160000000 1.0
C      1  0.5067030000000  0.4648880000000  0.5382650000000 1.0
C      1  0.4224030000000  0.4898590000000  0.4428580000000 1.0
C      1  0.5316990000000  0.5065830000000  0.4806250000000 1.0
C      1  0.4455430000000  0.5473190000000  0.4642880000000 1.0
C      1  0.4394090000000  0.4702390000000  0.5053170000000 1.0
C      1  0.4579870000000  0.4525360000000  0.5207670000000 1.0
C      1  0.5743640000000  0.4565040000000  0.5116410000000 1.0
END
