TITL C-4164236-1577-688 19.8965508483141 125000 -29406.7784354114 0 0 197 (C1) n - 1
REM
REM in /home/nfs/bkarasulu/CARBON/AIRSS/Generating-Clusters/ReaxFF-fromJPCA2015/Units_Real/with-SteepDescent/Only-C1/SD-CG/Try1-3A/FIRE-CG
REM
REM
REM
REM
REM
REM ./C.cell (11c1c37f851c82e70ff6c80c92926a4b)
REM
REM compiler GCC version 9.2.1 20190827 (Red Hat 9.2.1-1)
REM options -cpp -mtune=generic -march=x86-64 -g -O0 -fpre-include=/usr/include/finclude/math-vector-fortran.h
REM seed 1877233846 -952250864 -1676166291 -1902269801 1054143841 1830739641 612548407 854794565 851699193 -399509706 -439942738 -1318993519 -1327474837 -468166676 -1183251768 -1788490509 152147530 1945748482 -2136117366 -1976502377 699573770 -445347059 -1021500248 1030366109 1808763134 -1086674073 -564662893 -1668759513 948242501 200786323 -1981775492 6730670 512287932
REM
CELL 1.54180   50.00000   50.00000   50.00000   90.00000   90.00000   90.00000
LATT -1
SFAC C  
C      1  0.5774630000000  0.4126020000000  0.4460570000000 1.0
C      1  0.5406960000000  0.4466350000000  0.4092230000000 1.0
C      1  0.4138510000000  0.5928220000000  0.4325210000000 1.0
C      1  0.4233970000000  0.4700910000000  0.5404240000000 1.0
C      1  0.5004920000000  0.5886690000000  0.4806480000000 1.0
C      1  0.5248960000000  0.6055030000000  0.5262070000000 1.0
C      1  0.4762940000000  0.4656750000000  0.5152850000000 1.0
C      1  0.6087430000000  0.4753910000000  0.4635120000000 1.0
C      1  0.4704960000000  0.4832610000000  0.4046260000000 1.0
C      1  0.4930500000000  0.4855840000000  0.6026960000000 1.0
C      1  0.3900900000000  0.4887060000000  0.4695210000000 1.0
C      1  0.5177350000000  0.5083180000000  0.5493600000000 1.0
C      1  0.5850790000000  0.4748560000000  0.4172850000000 1.0
C      1  0.4611120000000  0.5245760000000  0.5458210000000 1.0
C      1  0.4867250000000  0.5528670000000  0.4536660000000 1.0
C      1  0.5741340000000  0.5348790000000  0.4483780000000 1.0
C      1  0.4117650000000  0.5520750000000  0.4821890000000 1.0
C      1  0.4008760000000  0.5486260000000  0.4535020000000 1.0
C      1  0.4563620000000  0.5935220000000  0.5509840000000 1.0
C      1  0.4400810000000  0.5136260000000  0.4527970000000 1.0
C      1  0.5247030000000  0.5496380000000  0.6116740000000 1.0
C      1  0.3795150000000  0.5145420000000  0.4678840000000 1.0
C      1  0.5680770000000  0.5915930000000  0.4900840000000 1.0
C      1  0.5502310000000  0.5679160000000  0.5700130000000 1.0
C      1  0.5757590000000  0.4706950000000  0.5048530000000 1.0
C      1  0.5762200000000  0.5569490000000  0.5643620000000 1.0
C      1  0.5641840000000  0.5633690000000  0.4484670000000 1.0
C      1  0.4748000000000  0.5630270000000  0.4303850000000 1.0
C      1  0.4416040000000  0.6232130000000  0.4896240000000 1.0
C      1  0.5435040000000  0.4914880000000  0.3953530000000 1.0
C      1  0.4546410000000  0.4496570000000  0.6056380000000 1.0
C      1  0.4481190000000  0.4327950000000  0.5849090000000 1.0
C      1  0.5598830000000  0.4890050000000  0.4562740000000 1.0
C      1  0.4579620000000  0.5024200000000  0.6151480000000 1.0
C      1  0.5096070000000  0.4406420000000  0.6105330000000 1.0
C      1  0.4330790000000  0.5790750000000  0.5416600000000 1.0
C      1  0.3961180000000  0.5415430000000  0.5083330000000 1.0
C      1  0.6098470000000  0.5150700000000  0.4652230000000 1.0
C      1  0.6111630000000  0.5180610000000  0.5333690000000 1.0
C      1  0.5010950000000  0.5201080000000  0.5027930000000 1.0
C      1  0.5351710000000  0.4405820000000  0.4663760000000 1.0
C      1  0.5586930000000  0.5661620000000  0.4190000000000 1.0
C      1  0.5112580000000  0.5663550000000  0.4090570000000 1.0
C      1  0.5024290000000  0.4553180000000  0.5154140000000 1.0
C      1  0.4934770000000  0.4083450000000  0.5633560000000 1.0
C      1  0.4221680000000  0.4484700000000  0.4509030000000 1.0
C      1  0.4819370000000  0.5698580000000  0.4053880000000 1.0
C      1  0.5613330000000  0.4793090000000  0.5755780000000 1.0
C      1  0.4992680000000  0.5812680000000  0.5722200000000 1.0
C      1  0.5981660000000  0.5082880000000  0.5551680000000 1.0
C      1  0.5573340000000  0.4535800000000  0.5391640000000 1.0
C      1  0.5662570000000  0.5408500000000  0.4052390000000 1.0
C      1  0.5546780000000  0.5097270000000  0.4846890000000 1.0
C      1  0.5787840000000  0.5044430000000  0.5752970000000 1.0
C      1  0.5704080000000  0.5349720000000  0.4935250000000 1.0
C      1  0.5113540000000  0.5678990000000  0.4625000000000 1.0
C      1  0.5813810000000  0.4130100000000  0.5327690000000 1.0
C      1  0.5122670000000  0.5175100000000  0.5765430000000 1.0
C      1  0.4758680000000  0.4856770000000  0.4739180000000 1.0
C      1  0.4805880000000  0.5125420000000  0.3752940000000 1.0
C      1  0.4696650000000  0.4855900000000  0.5583600000000 1.0
C      1  0.4661040000000  0.4619990000000  0.4883450000000 1.0
C      1  0.5953600000000  0.4346740000000  0.4881650000000 1.0
C      1  0.5205350000000  0.3969510000000  0.5599330000000 1.0
C      1  0.4954270000000  0.4407170000000  0.4323060000000 1.0
C      1  0.5318490000000  0.4385270000000  0.5888140000000 1.0
C      1  0.3900780000000  0.4963750000000  0.5182110000000 1.0
C      1  0.5326110000000  0.5469690000000  0.5572350000000 1.0
C      1  0.5156120000000  0.5359600000000  0.4061410000000 1.0
C      1  0.4630070000000  0.4960320000000  0.4495600000000 1.0
C      1  0.4250600000000  0.4189440000000  0.5406210000000 1.0
C      1  0.5462640000000  0.5525690000000  0.4917750000000 1.0
C      1  0.5923760000000  0.5355360000000  0.4712180000000 1.0
C      1  0.4561990000000  0.5250890000000  0.3893450000000 1.0
C      1  0.5532080000000  0.6032550000000  0.5345000000000 1.0
C      1  0.5165310000000  0.4590270000000  0.4215780000000 1.0
C      1  0.4794740000000  0.3903550000000  0.5023880000000 1.0
C      1  0.5196080000000  0.6038750000000  0.4969200000000 1.0
C      1  0.4803350000000  0.4366510000000  0.4775720000000 1.0
C      1  0.5879930000000  0.5229630000000  0.4096040000000 1.0
C      1  0.5405060000000  0.4139500000000  0.5716400000000 1.0
C      1  0.5762310000000  0.4361890000000  0.5475880000000 1.0
C      1  0.5427220000000  0.5222160000000  0.5461460000000 1.0
C      1  0.5404600000000  0.6018500000000  0.4760880000000 1.0
C      1  0.4997520000000  0.5037510000000  0.5277160000000 1.0
C      1  0.4557370000000  0.5541000000000  0.3948490000000 1.0
C      1  0.5398160000000  0.4202930000000  0.4202610000000 1.0
C      1  0.4761300000000  0.4075120000000  0.4775880000000 1.0
C      1  0.4610490000000  0.3942170000000  0.5249350000000 1.0
C      1  0.5660380000000  0.4117730000000  0.5579210000000 1.0
C      1  0.5047040000000  0.4321170000000  0.5267770000000 1.0
C      1  0.4986220000000  0.5509970000000  0.5166270000000 1.0
C      1  0.5229070000000  0.4825650000000  0.4840650000000 1.0
C      1  0.5149800000000  0.4570570000000  0.5669050000000 1.0
C      1  0.4675610000000  0.4000010000000  0.5524900000000 1.0
C      1  0.4916050000000  0.4766820000000  0.5765030000000 1.0
C      1  0.5415230000000  0.4243660000000  0.4947820000000 1.0
C      1  0.5824700000000  0.4133060000000  0.5033540000000 1.0
C      1  0.5653650000000  0.4971210000000  0.5082480000000 1.0
C      1  0.5259130000000  0.4679760000000  0.5085350000000 1.0
C      1  0.4688860000000  0.4388240000000  0.4185600000000 1.0
C      1  0.5027480000000  0.4351370000000  0.4591870000000 1.0
C      1  0.4744170000000  0.5769600000000  0.4865470000000 1.0
C      1  0.4133290000000  0.5668190000000  0.4317190000000 1.0
C      1  0.4294870000000  0.6010150000000  0.4858860000000 1.0
C      1  0.5339550000000  0.5810730000000  0.4223810000000 1.0
C      1  0.5032260000000  0.5301550000000  0.3782020000000 1.0
C      1  0.4717180000000  0.5749870000000  0.5673860000000 1.0
C      1  0.4727450000000  0.5745180000000  0.5140380000000 1.0
C      1  0.5180040000000  0.5580290000000  0.5363910000000 1.0
C      1  0.5042600000000  0.3764610000000  0.5128760000000 1.0
C      1  0.3963060000000  0.5219120000000  0.5575760000000 1.0
C      1  0.5852190000000  0.4689000000000  0.4465120000000 1.0
C      1  0.4778700000000  0.4878990000000  0.5315010000000 1.0
C      1  0.5359490000000  0.4824500000000  0.6111420000000 1.0
C      1  0.5241920000000  0.5114290000000  0.4803700000000 1.0
C      1  0.5848360000000  0.5366010000000  0.5217850000000 1.0
C      1  0.4176550000000  0.5187700000000  0.5785660000000 1.0
C      1  0.4349970000000  0.4871040000000  0.4984520000000 1.0
C      1  0.5717680000000  0.5857610000000  0.5201020000000 1.0
C      1  0.4341360000000  0.4044250000000  0.5170650000000 1.0
C      1  0.5599330000000  0.4028400000000  0.4872120000000 1.0
C      1  0.4001230000000  0.5433700000000  0.5372460000000 1.0
C      1  0.5152330000000  0.5070360000000  0.4492530000000 1.0
C      1  0.5165030000000  0.5992160000000  0.5547320000000 1.0
C      1  0.4516980000000  0.4628820000000  0.4158610000000 1.0
C      1  0.4295680000000  0.4698290000000  0.4330910000000 1.0
C      1  0.5707730000000  0.5326330000000  0.5819700000000 1.0
C      1  0.4706260000000  0.6018620000000  0.5266010000000 1.0
C      1  0.5175360000000  0.4865880000000  0.3874410000000 1.0
C      1  0.4480020000000  0.5332860000000  0.5225770000000 1.0
C      1  0.5811590000000  0.5627340000000  0.5357130000000 1.0
C      1  0.5585950000000  0.3940550000000  0.4588250000000 1.0
C      1  0.5403850000000  0.4698440000000  0.4665080000000 1.0
C      1  0.5414440000000  0.3993260000000  0.4363410000000 1.0
C      1  0.4411950000000  0.4779960000000  0.5620040000000 1.0
C      1  0.4303360000000  0.5501240000000  0.4098610000000 1.0
C      1  0.5056020000000  0.5352160000000  0.6274280000000 1.0
C      1  0.5489800000000  0.5323660000000  0.6015200000000 1.0
C      1  0.5459450000000  0.5188940000000  0.4119930000000 1.0
C      1  0.5158680000000  0.4834900000000  0.4356560000000 1.0
C      1  0.4439710000000  0.5646180000000  0.5174400000000 1.0
C      1  0.4318460000000  0.5433110000000  0.5759030000000 1.0
C      1  0.4439240000000  0.4151030000000  0.5633470000000 1.0
C      1  0.5226020000000  0.4139240000000  0.5151290000000 1.0
C      1  0.5989950000000  0.4631810000000  0.4903150000000 1.0
C      1  0.3973320000000  0.5214760000000  0.4451890000000 1.0
C      1  0.4998650000000  0.4350010000000  0.5537690000000 1.0
C      1  0.4403110000000  0.5356790000000  0.4729670000000 1.0
C      1  0.4836690000000  0.5158850000000  0.6135550000000 1.0
C      1  0.4902930000000  0.4842780000000  0.3823320000000 1.0
C      1  0.4126100000000  0.4437610000000  0.5315650000000 1.0
C      1  0.5421530000000  0.4687720000000  0.5567200000000 1.0
C      1  0.5575300000000  0.5137000000000  0.4394780000000 1.0
C      1  0.5323180000000  0.5089290000000  0.5975570000000 1.0
C      1  0.4300200000000  0.4142490000000  0.4904160000000 1.0
C      1  0.5831700000000  0.5832130000000  0.4684050000000 1.0
C      1  0.5384370000000  0.5579620000000  0.4657970000000 1.0
C      1  0.4169890000000  0.5595190000000  0.5555790000000 1.0
C      1  0.4259990000000  0.5756800000000  0.4932460000000 1.0
C      1  0.5881730000000  0.4370660000000  0.4584180000000 1.0
C      1  0.5658180000000  0.5154340000000  0.5308350000000 1.0
C      1  0.3830780000000  0.5185370000000  0.4989400000000 1.0
C      1  0.3798310000000  0.4991840000000  0.5460360000000 1.0
C      1  0.4769420000000  0.5033810000000  0.4245140000000 1.0
C      1  0.4554600000000  0.3917440000000  0.4307070000000 1.0
C      1  0.5033900000000  0.5603570000000  0.5927740000000 1.0
C      1  0.5599990000000  0.4339860000000  0.4525510000000 1.0
C      1  0.6165190000000  0.4975060000000  0.4455850000000 1.0
C      1  0.4770730000000  0.5101380000000  0.4894530000000 1.0
C      1  0.4220310000000  0.5035950000000  0.4321880000000 1.0
C      1  0.6012280000000  0.4994340000000  0.4178770000000 1.0
C      1  0.4034170000000  0.4506340000000  0.4748250000000 1.0
C      1  0.5443760000000  0.5960030000000  0.5622220000000 1.0
C      1  0.5261590000000  0.5599720000000  0.5108480000000 1.0
C      1  0.4618980000000  0.5455370000000  0.5713470000000 1.0
C      1  0.4317720000000  0.4205910000000  0.4639970000000 1.0
C      1  0.4427910000000  0.4800740000000  0.6087320000000 1.0
C      1  0.5242740000000  0.3891540000000  0.5309780000000 1.0
C      1  0.5599780000000  0.4686390000000  0.4036910000000 1.0
C      1  0.4295970000000  0.4917680000000  0.5853890000000 1.0
C      1  0.4484600000000  0.5151130000000  0.4974710000000 1.0
C      1  0.4535430000000  0.3995190000000  0.4585900000000 1.0
C      1  0.4578820000000  0.6188680000000  0.5083070000000 1.0
C      1  0.5510400000000  0.4622770000000  0.5966430000000 1.0
C      1  0.4629370000000  0.5561620000000  0.4702050000000 1.0
C      1  0.4884770000000  0.5347740000000  0.5865250000000 1.0
C      1  0.5358200000000  0.5981700000000  0.4473270000000 1.0
C      1  0.4325450000000  0.5214430000000  0.4079360000000 1.0
C      1  0.4028920000000  0.4433140000000  0.5037010000000 1.0
C      1  0.4178260000000  0.4871420000000  0.5198050000000 1.0
C      1  0.4818060000000  0.4410720000000  0.6076750000000 1.0
C      1  0.4144400000000  0.4792550000000  0.4790530000000 1.0
C      1  0.5518090000000  0.4539600000000  0.5121000000000 1.0
C      1  0.5112630000000  0.4690700000000  0.6192660000000 1.0
C      1  0.4998580000000  0.5212860000000  0.4286360000000 1.0
C      1  0.4607010000000  0.4114340000000  0.4197780000000 1.0
END
