TITL C-4164238-4211-740 44.7339790841228 125000 -25829.539926918 0 0 174 (C1) n - 1
REM
REM in /home/nfs/bkarasulu/CARBON/AIRSS/Generating-Clusters/ReaxFF-fromJPCA2015/Units_Real/with-SteepDescent/Only-C1/SD-CG/Try1-3A/FIRE-CG
REM
REM
REM
REM
REM
REM ./C.cell (11c1c37f851c82e70ff6c80c92926a4b)
REM
REM compiler GCC version 9.2.1 20190827 (Red Hat 9.2.1-1)
REM options -cpp -mtune=generic -march=x86-64 -g -O0 -fpre-include=/usr/include/finclude/math-vector-fortran.h
REM seed 1389595373 -1513205751 1595442482 -745000099 394349780 62397175 -650417011 2041940751 -416731694 209885635 -1837649368 1223841804 -1393085462 1134038857 -785525317 1956647654 -1807832461 1340331671 -1646179944 -433449444 693583926 -102262337 -1151976779 -1076667368 869590028 -1277055221 -1148158990 -2140737917 -2004832716 -196059998 -817893662 -1382691752 2005535254
REM
CELL 1.54180   50.00000   50.00000   50.00000   90.00000   90.00000   90.00000
LATT -1
SFAC C  
C      1  0.5375980000000  0.5254640000000  0.5275930000000 1.0
C      1  0.4900270000000  0.4967900000000  0.6125270000000 1.0
C      1  0.5765070000000  0.5474080000000  0.4394740000000 1.0
C      1  0.4378900000000  0.4239500000000  0.5210540000000 1.0
C      1  0.4321190000000  0.4641320000000  0.5795170000000 1.0
C      1  0.5878550000000  0.5157420000000  0.5422680000000 1.0
C      1  0.5091070000000  0.5185910000000  0.6081990000000 1.0
C      1  0.4835850000000  0.5679140000000  0.4920230000000 1.0
C      1  0.4730120000000  0.4535620000000  0.4946910000000 1.0
C      1  0.4934910000000  0.5991720000000  0.5468380000000 1.0
C      1  0.5373960000000  0.4902190000000  0.4003220000000 1.0
C      1  0.5351240000000  0.4933000000000  0.5662810000000 1.0
C      1  0.5235690000000  0.5861820000000  0.4343320000000 1.0
C      1  0.5392590000000  0.5863830000000  0.5275040000000 1.0
C      1  0.5172800000000  0.5652960000000  0.4582590000000 1.0
C      1  0.5313760000000  0.4739640000000  0.5290820000000 1.0
C      1  0.5146440000000  0.5319480000000  0.3870580000000 1.0
C      1  0.4794690000000  0.5062350000000  0.4684460000000 1.0
C      1  0.4715730000000  0.3925470000000  0.5112360000000 1.0
C      1  0.4714130000000  0.5073300000000  0.5599860000000 1.0
C      1  0.5469300000000  0.4403930000000  0.4727360000000 1.0
C      1  0.5025440000000  0.5898980000000  0.4954570000000 1.0
C      1  0.5482120000000  0.5832580000000  0.4989830000000 1.0
C      1  0.4942140000000  0.4730400000000  0.6066910000000 1.0
C      1  0.6303490000000  0.5028990000000  0.5311470000000 1.0
C      1  0.4054240000000  0.5151570000000  0.5277700000000 1.0
C      1  0.5876310000000  0.5562090000000  0.5058260000000 1.0
C      1  0.4628590000000  0.4979210000000  0.6052570000000 1.0
C      1  0.6038000000000  0.5067560000000  0.4863530000000 1.0
C      1  0.4350090000000  0.5536570000000  0.4646810000000 1.0
C      1  0.5453470000000  0.4131340000000  0.4831230000000 1.0
C      1  0.5861460000000  0.5018410000000  0.3998520000000 1.0
C      1  0.5866810000000  0.4486660000000  0.4974860000000 1.0
C      1  0.4269410000000  0.5475030000000  0.5558610000000 1.0
C      1  0.5473580000000  0.4853170000000  0.6046780000000 1.0
C      1  0.4646540000000  0.5554210000000  0.5433420000000 1.0
C      1  0.6242870000000  0.5079670000000  0.5599090000000 1.0
C      1  0.4996380000000  0.4100730000000  0.5504940000000 1.0
C      1  0.4251050000000  0.4498880000000  0.5288990000000 1.0
C      1  0.5171420000000  0.5597500000000  0.3933350000000 1.0
C      1  0.4430820000000  0.4383410000000  0.4218800000000 1.0
C      1  0.4448670000000  0.5320990000000  0.4851140000000 1.0
C      1  0.6052720000000  0.4650100000000  0.5138750000000 1.0
C      1  0.4958120000000  0.5189390000000  0.5523600000000 1.0
C      1  0.4518300000000  0.5044300000000  0.5187680000000 1.0
C      1  0.3837980000000  0.5227480000000  0.5076740000000 1.0
C      1  0.5954070000000  0.4864750000000  0.4659570000000 1.0
C      1  0.5634980000000  0.5106680000000  0.4035480000000 1.0
C      1  0.4165850000000  0.5470020000000  0.4422790000000 1.0
C      1  0.4516640000000  0.4939370000000  0.5433660000000 1.0
C      1  0.5777880000000  0.4242820000000  0.5435740000000 1.0
C      1  0.4803970000000  0.4912830000000  0.4074350000000 1.0
C      1  0.4736890000000  0.5905740000000  0.4523980000000 1.0
C      1  0.5863400000000  0.4472730000000  0.5603600000000 1.0
C      1  0.5550150000000  0.4850460000000  0.4938480000000 1.0
C      1  0.4897390000000  0.4414560000000  0.5427380000000 1.0
C      1  0.4983980000000  0.5431100000000  0.5969880000000 1.0
C      1  0.4913200000000  0.4866740000000  0.3842540000000 1.0
C      1  0.4460510000000  0.4951800000000  0.4263530000000 1.0
C      1  0.5285180000000  0.4902820000000  0.4264810000000 1.0
C      1  0.5742290000000  0.5750490000000  0.4878210000000 1.0
C      1  0.5574540000000  0.4100150000000  0.5096060000000 1.0
C      1  0.4695710000000  0.5646120000000  0.5702350000000 1.0
C      1  0.5661580000000  0.5309590000000  0.5307580000000 1.0
C      1  0.4553740000000  0.4710130000000  0.5960500000000 1.0
C      1  0.4974870000000  0.3971310000000  0.5234750000000 1.0
C      1  0.5370870000000  0.5253150000000  0.4747500000000 1.0
C      1  0.5509540000000  0.4131650000000  0.5401440000000 1.0
C      1  0.4862650000000  0.5665460000000  0.4631910000000 1.0
C      1  0.5755440000000  0.5581890000000  0.5331970000000 1.0
C      1  0.5568340000000  0.4563860000000  0.4949180000000 1.0
C      1  0.4854600000000  0.5367890000000  0.5341920000000 1.0
C      1  0.4622180000000  0.5638540000000  0.4103350000000 1.0
C      1  0.4494990000000  0.5972790000000  0.5145100000000 1.0
C      1  0.4706650000000  0.5437170000000  0.5897650000000 1.0
C      1  0.5365510000000  0.5128660000000  0.6031120000000 1.0
C      1  0.4985000000000  0.3962670000000  0.4680430000000 1.0
C      1  0.5144450000000  0.5629160000000  0.5815530000000 1.0
C      1  0.6172070000000  0.4910570000000  0.5076870000000 1.0
C      1  0.4475150000000  0.4669120000000  0.5366490000000 1.0
C      1  0.5486670000000  0.4564730000000  0.5949190000000 1.0
C      1  0.5425950000000  0.4969030000000  0.4715880000000 1.0
C      1  0.5057740000000  0.5816100000000  0.4120740000000 1.0
C      1  0.4778820000000  0.5858410000000  0.4221420000000 1.0
C      1  0.5861150000000  0.4595000000000  0.4609940000000 1.0
C      1  0.4081610000000  0.4963970000000  0.4686470000000 1.0
C      1  0.5233880000000  0.5139970000000  0.5504540000000 1.0
C      1  0.4810500000000  0.4581570000000  0.5902380000000 1.0
C      1  0.5294410000000  0.4187190000000  0.5590080000000 1.0
C      1  0.5697780000000  0.5362690000000  0.4669350000000 1.0
C      1  0.3876310000000  0.5174040000000  0.4804540000000 1.0
C      1  0.4507250000000  0.4340220000000  0.4964490000000 1.0
C      1  0.4689220000000  0.4095210000000  0.4357710000000 1.0
C      1  0.4551920000000  0.4037660000000  0.5330790000000 1.0
C      1  0.5186190000000  0.4232910000000  0.4306850000000 1.0
C      1  0.5547020000000  0.4880940000000  0.5227280000000 1.0
C      1  0.4052370000000  0.5189000000000  0.4267930000000 1.0
C      1  0.4431310000000  0.4383250000000  0.5705500000000 1.0
C      1  0.4940650000000  0.5799380000000  0.5697230000000 1.0
C      1  0.4075660000000  0.4672330000000  0.5126460000000 1.0
C      1  0.4635890000000  0.4604830000000  0.4507570000000 1.0
C      1  0.5157440000000  0.6114390000000  0.4491960000000 1.0
C      1  0.5149320000000  0.5051730000000  0.3828620000000 1.0
C      1  0.5249780000000  0.5301670000000  0.5026550000000 1.0
C      1  0.5416300000000  0.5571310000000  0.5726730000000 1.0
C      1  0.5784640000000  0.4892330000000  0.5393220000000 1.0
C      1  0.4544800000000  0.5034570000000  0.4526450000000 1.0
C      1  0.4350830000000  0.5080400000000  0.4717040000000 1.0
C      1  0.4012320000000  0.5684790000000  0.4920970000000 1.0
C      1  0.4693960000000  0.6006930000000  0.5315020000000 1.0
C      1  0.5909610000000  0.5325650000000  0.4883770000000 1.0
C      1  0.5622830000000  0.4912650000000  0.5798390000000 1.0
C      1  0.5975780000000  0.4671200000000  0.5420120000000 1.0
C      1  0.5091960000000  0.4172930000000  0.5067800000000 1.0
C      1  0.5995360000000  0.5236290000000  0.5683260000000 1.0
C      1  0.5193190000000  0.5356570000000  0.4546070000000 1.0
C      1  0.5435600000000  0.4821820000000  0.4476790000000 1.0
C      1  0.4181090000000  0.4851910000000  0.5638700000000 1.0
C      1  0.4703900000000  0.4063030000000  0.5594670000000 1.0
C      1  0.4400220000000  0.5507820000000  0.5316330000000 1.0
C      1  0.5824210000000  0.4235720000000  0.5139000000000 1.0
C      1  0.5019160000000  0.4916110000000  0.5063950000000 1.0
C      1  0.4238840000000  0.5115720000000  0.5742690000000 1.0
C      1  0.5029610000000  0.4590920000000  0.3904710000000 1.0
C      1  0.4600500000000  0.5059020000000  0.4026070000000 1.0
C      1  0.5375070000000  0.4417030000000  0.4221460000000 1.0
C      1  0.4875900000000  0.4611700000000  0.4340680000000 1.0
C      1  0.4557540000000  0.5177760000000  0.5842180000000 1.0
C      1  0.5181800000000  0.4676760000000  0.5044500000000 1.0
C      1  0.4690970000000  0.5338510000000  0.4128290000000 1.0
C      1  0.4868980000000  0.5362360000000  0.4299180000000 1.0
C      1  0.4400740000000  0.5807190000000  0.4734920000000 1.0
C      1  0.4985470000000  0.4449130000000  0.5104440000000 1.0
C      1  0.4073150000000  0.5280550000000  0.5571370000000 1.0
C      1  0.5764790000000  0.5188270000000  0.5845730000000 1.0
C      1  0.5716820000000  0.5666030000000  0.4600890000000 1.0
C      1  0.5216820000000  0.4679650000000  0.5591400000000 1.0
C      1  0.4931880000000  0.6069460000000  0.4677760000000 1.0
C      1  0.4339820000000  0.4575900000000  0.4404940000000 1.0
C      1  0.4729680000000  0.4737950000000  0.4746380000000 1.0
C      1  0.4645960000000  0.4217610000000  0.5854110000000 1.0
C      1  0.4987850000000  0.5194370000000  0.4457840000000 1.0
C      1  0.4586970000000  0.5790320000000  0.4957020000000 1.0
C      1  0.4002490000000  0.5591020000000  0.4264840000000 1.0
C      1  0.4548320000000  0.4063490000000  0.4615640000000 1.0
C      1  0.4756570000000  0.5293530000000  0.4860040000000 1.0
C      1  0.5322810000000  0.4424140000000  0.5751500000000 1.0
C      1  0.4170440000000  0.4944840000000  0.4348750000000 1.0
C      1  0.4195440000000  0.5874760000000  0.4934290000000 1.0
C      1  0.5527960000000  0.5697820000000  0.5479890000000 1.0
C      1  0.5189700000000  0.4048210000000  0.4847950000000 1.0
C      1  0.4353980000000  0.4249570000000  0.4731600000000 1.0
C      1  0.5535610000000  0.4542960000000  0.4474390000000 1.0
C      1  0.4068660000000  0.4862780000000  0.5353640000000 1.0
C      1  0.4767700000000  0.4961990000000  0.5125060000000 1.0
C      1  0.5522900000000  0.5337020000000  0.5885200000000 1.0
C      1  0.4197260000000  0.4488770000000  0.4649980000000 1.0
C      1  0.5607310000000  0.5399870000000  0.4154530000000 1.0
C      1  0.5300210000000  0.4595100000000  0.3999570000000 1.0
C      1  0.4605870000000  0.4446670000000  0.5469260000000 1.0
C      1  0.4726970000000  0.3946890000000  0.4813550000000 1.0
C      1  0.4984530000000  0.4057210000000  0.4401480000000 1.0
C      1  0.5739250000000  0.4614250000000  0.5824320000000 1.0
C      1  0.3841690000000  0.5460550000000  0.4889170000000 1.0
C      1  0.4618840000000  0.4273110000000  0.4142800000000 1.0
C      1  0.4349770000000  0.5273450000000  0.5140250000000 1.0
C      1  0.5008150000000  0.4892780000000  0.4303540000000 1.0
C      1  0.4859890000000  0.4461940000000  0.4105620000000 1.0
C      1  0.4093170000000  0.4690630000000  0.4831840000000 1.0
C      1  0.5122220000000  0.5956950000000  0.5250310000000 1.0
C      1  0.4964370000000  0.5318780000000  0.5059860000000 1.0
C      1  0.4924510000000  0.4612690000000  0.5638450000000 1.0
C      1  0.5395310000000  0.5569970000000  0.4101950000000 1.0
C      1  0.5257850000000  0.5786530000000  0.4834320000000 1.0
END
