TITL C-4164244-2836-683 -0.506748777431069 125000 -22166.8480129976 0 0 147 (C1) n - 1
REM
REM in /home/nfs/bkarasulu/CARBON/AIRSS/Generating-Clusters/ReaxFF-fromJPCA2015/Units_Real/with-SteepDescent/Only-C1/SD-CG/Try1-3A/FIRE-CG
REM
REM
REM
REM
REM
REM ./C.cell (11c1c37f851c82e70ff6c80c92926a4b)
REM
REM compiler GCC version 9.2.1 20190827 (Red Hat 9.2.1-1)
REM options -cpp -mtune=generic -march=x86-64 -g -O0 -fpre-include=/usr/include/finclude/math-vector-fortran.h
REM seed -916305424 -1371813414 1644850692 101725865 -2087884228 1934992265 -219697114 -180760969 -152994908 -2071360672 -1865577979 1562766218 1479871123 -1747508697 908135357 874911590 -1311609894 -831567572 131343721 -15810281 1931129101 37618321 -795688889 2017188009 -542446675 1609435033 1264153463 -799930939 1470584168 1793782685 -1617149397 1957544857 -836433667
REM
CELL 1.54180   50.00000   50.00000   50.00000   90.00000   90.00000   90.00000
LATT -1
SFAC C  
C      1  0.5553200000000  0.4169850000000  0.4967000000000 1.0
C      1  0.5193290000000  0.4892810000000  0.4275250000000 1.0
C      1  0.4707940000000  0.5074320000000  0.5189520000000 1.0
C      1  0.4586800000000  0.5745350000000  0.5530860000000 1.0
C      1  0.6070060000000  0.4807900000000  0.5007790000000 1.0
C      1  0.5332840000000  0.5525880000000  0.4365660000000 1.0
C      1  0.5436370000000  0.5870550000000  0.4767030000000 1.0
C      1  0.4782430000000  0.4079880000000  0.4644630000000 1.0
C      1  0.5708110000000  0.5235230000000  0.4385640000000 1.0
C      1  0.4471630000000  0.4708200000000  0.4820920000000 1.0
C      1  0.5027660000000  0.4768410000000  0.6003700000000 1.0
C      1  0.5776020000000  0.4853220000000  0.5292600000000 1.0
C      1  0.4528150000000  0.4213410000000  0.5496330000000 1.0
C      1  0.4608190000000  0.5478690000000  0.5006300000000 1.0
C      1  0.4805430000000  0.5766330000000  0.4249310000000 1.0
C      1  0.4761720000000  0.4063890000000  0.5528040000000 1.0
C      1  0.4606110000000  0.5839890000000  0.4429960000000 1.0
C      1  0.4128850000000  0.5413050000000  0.4671520000000 1.0
C      1  0.4427730000000  0.4711680000000  0.5999420000000 1.0
C      1  0.5611050000000  0.5107300000000  0.5715250000000 1.0
C      1  0.4083750000000  0.5121040000000  0.4658230000000 1.0
C      1  0.4889960000000  0.4428830000000  0.4265030000000 1.0
C      1  0.4682770000000  0.4566470000000  0.4673850000000 1.0
C      1  0.4173200000000  0.5175870000000  0.5532440000000 1.0
C      1  0.5122160000000  0.5369720000000  0.5317910000000 1.0
C      1  0.5239110000000  0.4418400000000  0.4769950000000 1.0
C      1  0.5884550000000  0.4547100000000  0.4743630000000 1.0
C      1  0.5230310000000  0.5673380000000  0.4919250000000 1.0
C      1  0.5144160000000  0.4365140000000  0.5813340000000 1.0
C      1  0.4281030000000  0.5053940000000  0.4840570000000 1.0
C      1  0.5800680000000  0.5177510000000  0.4863760000000 1.0
C      1  0.4792270000000  0.4465340000000  0.5141740000000 1.0
C      1  0.4469510000000  0.4446890000000  0.5666390000000 1.0
C      1  0.4964880000000  0.4753280000000  0.3850810000000 1.0
C      1  0.5701040000000  0.4588650000000  0.5162730000000 1.0
C      1  0.5317100000000  0.4159110000000  0.4615350000000 1.0
C      1  0.5001000000000  0.3968640000000  0.5418080000000 1.0
C      1  0.4885020000000  0.5732230000000  0.5525040000000 1.0
C      1  0.5194900000000  0.5157650000000  0.5515610000000 1.0
C      1  0.5916430000000  0.5624040000000  0.4820430000000 1.0
C      1  0.4152460000000  0.4727320000000  0.5347610000000 1.0
C      1  0.4865390000000  0.4645850000000  0.5360710000000 1.0
C      1  0.5467950000000  0.5792550000000  0.5465590000000 1.0
C      1  0.4233850000000  0.5200350000000  0.5083060000000 1.0
C      1  0.4142750000000  0.4527460000000  0.5165590000000 1.0
C      1  0.5176480000000  0.6133820000000  0.5037550000000 1.0
C      1  0.5024090000000  0.3993670000000  0.4857150000000 1.0
C      1  0.5440520000000  0.6050870000000  0.5029230000000 1.0
C      1  0.4655540000000  0.5377090000000  0.4741860000000 1.0
C      1  0.6030310000000  0.5409400000000  0.4948270000000 1.0
C      1  0.4935890000000  0.5009780000000  0.5885220000000 1.0
C      1  0.5573090000000  0.4250710000000  0.4504070000000 1.0
C      1  0.4370610000000  0.4577600000000  0.4263140000000 1.0
C      1  0.5261210000000  0.4782980000000  0.4960640000000 1.0
C      1  0.4242510000000  0.5452910000000  0.5568150000000 1.0
C      1  0.6102980000000  0.5049300000000  0.5140170000000 1.0
C      1  0.5151300000000  0.4189180000000  0.5576750000000 1.0
C      1  0.5329380000000  0.5218440000000  0.4883670000000 1.0
C      1  0.5386940000000  0.4536850000000  0.5832840000000 1.0
C      1  0.4948000000000  0.5235910000000  0.5140120000000 1.0
C      1  0.5711920000000  0.4306200000000  0.4751520000000 1.0
C      1  0.4406890000000  0.4156950000000  0.4996620000000 1.0
C      1  0.5609800000000  0.5375560000000  0.5590030000000 1.0
C      1  0.4934020000000  0.5391140000000  0.4664720000000 1.0
C      1  0.4137980000000  0.5475670000000  0.4955090000000 1.0
C      1  0.5598620000000  0.5494220000000  0.4514600000000 1.0
C      1  0.5714330000000  0.5732030000000  0.4669390000000 1.0
C      1  0.4738780000000  0.4202740000000  0.4389600000000 1.0
C      1  0.4594150000000  0.5636580000000  0.5792520000000 1.0
C      1  0.5421040000000  0.5610500000000  0.5655590000000 1.0
C      1  0.5507920000000  0.4245730000000  0.5251250000000 1.0
C      1  0.5070570000000  0.5308210000000  0.4891710000000 1.0
C      1  0.5942110000000  0.4567130000000  0.5010430000000 1.0
C      1  0.4969720000000  0.5793160000000  0.4916580000000 1.0
C      1  0.4504990000000  0.4079890000000  0.4729460000000 1.0
C      1  0.4589840000000  0.4263370000000  0.5197500000000 1.0
C      1  0.4490850000000  0.5079240000000  0.4260020000000 1.0
C      1  0.4879160000000  0.5614510000000  0.5795360000000 1.0
C      1  0.5570790000000  0.5866800000000  0.5222460000000 1.0
C      1  0.4393540000000  0.5875470000000  0.4902460000000 1.0
C      1  0.5394760000000  0.5022620000000  0.5084330000000 1.0
C      1  0.5498420000000  0.4484390000000  0.4336540000000 1.0
C      1  0.5012990000000  0.3981650000000  0.5126300000000 1.0
C      1  0.5158400000000  0.5156400000000  0.5811680000000 1.0
C      1  0.5681800000000  0.5025900000000  0.5087080000000 1.0
C      1  0.5000060000000  0.4805970000000  0.4814040000000 1.0
C      1  0.5404340000000  0.5043730000000  0.5913120000000 1.0
C      1  0.5522050000000  0.5169770000000  0.4173490000000 1.0
C      1  0.4504210000000  0.5273040000000  0.5178460000000 1.0
C      1  0.4258370000000  0.5696850000000  0.5096610000000 1.0
C      1  0.4393120000000  0.4716830000000  0.5552760000000 1.0
C      1  0.5817460000000  0.5048970000000  0.4576270000000 1.0
C      1  0.4508950000000  0.5370060000000  0.4299710000000 1.0
C      1  0.4411440000000  0.5425940000000  0.5803180000000 1.0
C      1  0.4627080000000  0.5990780000000  0.5032180000000 1.0
C      1  0.5474640000000  0.4881410000000  0.4178690000000 1.0
C      1  0.4201680000000  0.4676340000000  0.4690300000000 1.0
C      1  0.4619260000000  0.4493740000000  0.5914610000000 1.0
C      1  0.4744340000000  0.5727310000000  0.5080480000000 1.0
C      1  0.4302840000000  0.4211290000000  0.4547300000000 1.0
C      1  0.5259050000000  0.4922880000000  0.5367650000000 1.0
C      1  0.4350720000000  0.5658080000000  0.5381920000000 1.0
C      1  0.4543070000000  0.5109020000000  0.4740220000000 1.0
C      1  0.4308180000000  0.4894250000000  0.5792380000000 1.0
C      1  0.5329670000000  0.3999130000000  0.4852920000000 1.0
C      1  0.5832000000000  0.4765890000000  0.4540210000000 1.0
C      1  0.5278960000000  0.5350430000000  0.4148530000000 1.0
C      1  0.5281360000000  0.4574740000000  0.4520650000000 1.0
C      1  0.4767890000000  0.5472430000000  0.4194490000000 1.0
C      1  0.5563370000000  0.5377750000000  0.4832620000000 1.0
C      1  0.5022560000000  0.5880290000000  0.4457000000000 1.0
C      1  0.4908330000000  0.4508490000000  0.4863280000000 1.0
C      1  0.5682820000000  0.4704230000000  0.4295590000000 1.0
C      1  0.5301960000000  0.5549900000000  0.5166490000000 1.0
C      1  0.4099210000000  0.5019860000000  0.5319000000000 1.0
C      1  0.4285580000000  0.4850590000000  0.4267150000000 1.0
C      1  0.5411530000000  0.4568850000000  0.4971150000000 1.0
C      1  0.4695920000000  0.4921920000000  0.4909100000000 1.0
C      1  0.4152830000000  0.4314330000000  0.4985000000000 1.0
C      1  0.5759120000000  0.5410910000000  0.5344210000000 1.0
C      1  0.5134110000000  0.4805380000000  0.4540230000000 1.0
C      1  0.5128310000000  0.5707920000000  0.5682080000000 1.0
C      1  0.5265870000000  0.4365660000000  0.5371710000000 1.0
C      1  0.5597540000000  0.4587940000000  0.5633410000000 1.0
C      1  0.4131130000000  0.4392690000000  0.4695810000000 1.0
C      1  0.5598280000000  0.5561850000000  0.5139590000000 1.0
C      1  0.5676040000000  0.4424690000000  0.5400720000000 1.0
C      1  0.4397790000000  0.5793660000000  0.4608040000000 1.0
C      1  0.6015290000000  0.5314720000000  0.5224990000000 1.0
C      1  0.4104940000000  0.4880470000000  0.4501050000000 1.0
C      1  0.4963800000000  0.5001960000000  0.4102560000000 1.0
C      1  0.4685110000000  0.4866190000000  0.5455730000000 1.0
C      1  0.5155950000000  0.4654130000000  0.5391600000000 1.0
C      1  0.5319300000000  0.4772730000000  0.5987110000000 1.0
C      1  0.5279770000000  0.5990170000000  0.4525430000000 1.0
C      1  0.4451060000000  0.4311830000000  0.4318490000000 1.0
C      1  0.4990850000000  0.5304690000000  0.4105380000000 1.0
C      1  0.4930780000000  0.4545610000000  0.4012970000000 1.0
C      1  0.4726460000000  0.4915520000000  0.4274420000000 1.0
C      1  0.4919410000000  0.4508820000000  0.5933870000000 1.0
C      1  0.5083960000000  0.5588320000000  0.4508280000000 1.0
C      1  0.4332580000000  0.5525510000000  0.4489140000000 1.0
C      1  0.4765150000000  0.4654480000000  0.4408630000000 1.0
C      1  0.4907460000000  0.6083800000000  0.4953530000000 1.0
C      1  0.5684300000000  0.4859590000000  0.5574900000000 1.0
C      1  0.4479920000000  0.5141850000000  0.5804700000000 1.0
C      1  0.4728830000000  0.5026680000000  0.5699690000000 1.0
END
