TITL C-4164246-3563-409 -2.00791718301011 125000 -26397.2141499304 0 0 171 (C1) n - 1
REM
REM in /home/nfs/bkarasulu/CARBON/AIRSS/Generating-Clusters/ReaxFF-fromJPCA2015/Units_Real/with-SteepDescent/Only-C1/SD-CG/Try1-3A/FIRE-CG
REM
REM
REM
REM
REM
REM ./C.cell (11c1c37f851c82e70ff6c80c92926a4b)
REM
REM compiler GCC version 9.2.1 20190827 (Red Hat 9.2.1-1)
REM options -cpp -mtune=generic -march=x86-64 -g -O0 -fpre-include=/usr/include/finclude/math-vector-fortran.h
REM seed -624408252 809484193 -1730389224 657172066 768831482 -1167935465 2018899162 -1211263796 1419879151 1943837468 -587891634 -1239435551 2140141438 531622373 1153489618 -1718574749 1751248069 1027485481 526562573 1412695505 460556705 345672969 -561807236 -1383382865 -479038844 966455811 -1349561224 -1369306636 1364600507 -1985879822 185241935 1792730204 490100815
REM
CELL 1.54180   50.00000   50.00000   50.00000   90.00000   90.00000   90.00000
LATT -1
SFAC C  
C      1  0.4499960000000  0.4676600000000  0.4862960000000 1.0
C      1  0.4443790000000  0.5018840000000  0.4154760000000 1.0
C      1  0.5052830000000  0.5946700000000  0.5132220000000 1.0
C      1  0.3914100000000  0.4899800000000  0.5304220000000 1.0
C      1  0.5511410000000  0.5978890000000  0.4768830000000 1.0
C      1  0.5693960000000  0.5681670000000  0.4423280000000 1.0
C      1  0.5809410000000  0.5290600000000  0.5641670000000 1.0
C      1  0.5845610000000  0.5441960000000  0.4409960000000 1.0
C      1  0.4710980000000  0.5870570000000  0.4424800000000 1.0
C      1  0.4474480000000  0.5702040000000  0.4425400000000 1.0
C      1  0.4433450000000  0.4875340000000  0.6045770000000 1.0
C      1  0.4769320000000  0.5507130000000  0.5213980000000 1.0
C      1  0.4197450000000  0.5317120000000  0.4537130000000 1.0
C      1  0.4699120000000  0.4878890000000  0.4025000000000 1.0
C      1  0.5398350000000  0.5680200000000  0.4296810000000 1.0
C      1  0.5902720000000  0.5371080000000  0.4700570000000 1.0
C      1  0.5114390000000  0.5268280000000  0.4943900000000 1.0
C      1  0.5381070000000  0.4873660000000  0.4647600000000 1.0
C      1  0.4005890000000  0.5305930000000  0.5587860000000 1.0
C      1  0.4523640000000  0.3996420000000  0.4697140000000 1.0
C      1  0.5780520000000  0.4561790000000  0.5738700000000 1.0
C      1  0.4129360000000  0.4371640000000  0.4811350000000 1.0
C      1  0.4622630000000  0.5758810000000  0.5710230000000 1.0
C      1  0.5668360000000  0.5288480000000  0.4856950000000 1.0
C      1  0.4453570000000  0.5986170000000  0.5084500000000 1.0
C      1  0.4080930000000  0.5544020000000  0.4964730000000 1.0
C      1  0.4175120000000  0.4512910000000  0.5484910000000 1.0
C      1  0.4363770000000  0.5453830000000  0.4331730000000 1.0
C      1  0.4832860000000  0.4360250000000  0.5857760000000 1.0
C      1  0.6078770000000  0.5291250000000  0.5074870000000 1.0
C      1  0.4214980000000  0.4382710000000  0.4545070000000 1.0
C      1  0.5772930000000  0.5724650000000  0.4986710000000 1.0
C      1  0.4755670000000  0.4898050000000  0.5258020000000 1.0
C      1  0.5794750000000  0.5208070000000  0.4238890000000 1.0
C      1  0.4758780000000  0.5377670000000  0.3999150000000 1.0
C      1  0.5989370000000  0.4868920000000  0.5408780000000 1.0
C      1  0.5931260000000  0.4981650000000  0.4365970000000 1.0
C      1  0.5013090000000  0.4202320000000  0.5671180000000 1.0
C      1  0.4788300000000  0.4203250000000  0.4043200000000 1.0
C      1  0.5434950000000  0.4911710000000  0.5487880000000 1.0
C      1  0.5245170000000  0.5546030000000  0.4042250000000 1.0
C      1  0.5117690000000  0.4037340000000  0.5211700000000 1.0
C      1  0.4854890000000  0.4858500000000  0.5529310000000 1.0
C      1  0.6078200000000  0.4663640000000  0.4603440000000 1.0
C      1  0.4235990000000  0.5053810000000  0.5941790000000 1.0
C      1  0.4936520000000  0.4573350000000  0.6015390000000 1.0
C      1  0.5318230000000  0.5472160000000  0.4496460000000 1.0
C      1  0.4590160000000  0.4539640000000  0.4618100000000 1.0
C      1  0.5040270000000  0.4477140000000  0.5320390000000 1.0
C      1  0.4598820000000  0.4277640000000  0.5293800000000 1.0
C      1  0.5533700000000  0.5165060000000  0.4106330000000 1.0
C      1  0.4872850000000  0.4493750000000  0.4603480000000 1.0
C      1  0.4445920000000  0.5561980000000  0.5788960000000 1.0
C      1  0.4691730000000  0.3941020000000  0.4938150000000 1.0
C      1  0.4406250000000  0.5184190000000  0.5035030000000 1.0
C      1  0.4264890000000  0.5456960000000  0.4772450000000 1.0
C      1  0.6121480000000  0.5203590000000  0.4793510000000 1.0
C      1  0.5565190000000  0.4134990000000  0.4978090000000 1.0
C      1  0.5072010000000  0.4812040000000  0.6089670000000 1.0
C      1  0.5297470000000  0.4266480000000  0.5680870000000 1.0
C      1  0.4035470000000  0.4898460000000  0.5800920000000 1.0
C      1  0.5479470000000  0.4691800000000  0.4834280000000 1.0
C      1  0.5125060000000  0.5106330000000  0.3850900000000 1.0
C      1  0.4946370000000  0.5812740000000  0.4267230000000 1.0
C      1  0.4938360000000  0.5318480000000  0.5373830000000 1.0
C      1  0.4860250000000  0.4073490000000  0.4307280000000 1.0
C      1  0.5657980000000  0.5105890000000  0.5098670000000 1.0
C      1  0.4546210000000  0.4415500000000  0.5780910000000 1.0
C      1  0.3973540000000  0.5464610000000  0.5355640000000 1.0
C      1  0.4703660000000  0.5050440000000  0.4631000000000 1.0
C      1  0.5185270000000  0.5863740000000  0.5718500000000 1.0
C      1  0.5820340000000  0.5505870000000  0.5439620000000 1.0
C      1  0.5863760000000  0.4554610000000  0.5085420000000 1.0
C      1  0.4921380000000  0.4162050000000  0.5396470000000 1.0
C      1  0.5935610000000  0.4573650000000  0.5363130000000 1.0
C      1  0.4285370000000  0.5298590000000  0.5735870000000 1.0
C      1  0.5234480000000  0.5986720000000  0.4656580000000 1.0
C      1  0.4343920000000  0.5898880000000  0.5312500000000 1.0
C      1  0.5943000000000  0.4683810000000  0.4338520000000 1.0
C      1  0.4833650000000  0.5287990000000  0.4517690000000 1.0
C      1  0.5409830000000  0.5142520000000  0.5329880000000 1.0
C      1  0.5014380000000  0.4452360000000  0.4846940000000 1.0
C      1  0.5031890000000  0.4642850000000  0.5555690000000 1.0
C      1  0.4966630000000  0.5588850000000  0.4068640000000 1.0
C      1  0.5294790000000  0.4521300000000  0.5202590000000 1.0
C      1  0.4607440000000  0.4091570000000  0.4438810000000 1.0
C      1  0.5798730000000  0.4317010000000  0.4931960000000 1.0
C      1  0.4507070000000  0.5952710000000  0.4821690000000 1.0
C      1  0.4928680000000  0.4800460000000  0.4195580000000 1.0
C      1  0.3910060000000  0.5350100000000  0.5095930000000 1.0
C      1  0.5753330000000  0.4465730000000  0.4419010000000 1.0
C      1  0.5428570000000  0.4037220000000  0.4738760000000 1.0
C      1  0.5376620000000  0.4163480000000  0.4468070000000 1.0
C      1  0.5759830000000  0.4380400000000  0.5534900000000 1.0
C      1  0.4014010000000  0.4892780000000  0.4834700000000 1.0
C      1  0.5052520000000  0.5416180000000  0.5618940000000 1.0
C      1  0.5479340000000  0.4705290000000  0.5296210000000 1.0
C      1  0.5008700000000  0.4706070000000  0.4468140000000 1.0
C      1  0.4875130000000  0.4506130000000  0.5085080000000 1.0
C      1  0.5113230000000  0.4029640000000  0.4455540000000 1.0
C      1  0.4841630000000  0.5130190000000  0.3885020000000 1.0
C      1  0.4936180000000  0.5724660000000  0.5610130000000 1.0
C      1  0.4141870000000  0.4628280000000  0.5752070000000 1.0
C      1  0.6071490000000  0.4963360000000  0.4627360000000 1.0
C      1  0.5354060000000  0.5413480000000  0.5975910000000 1.0
C      1  0.5497020000000  0.4930110000000  0.5780830000000 1.0
C      1  0.4321850000000  0.4143130000000  0.4873410000000 1.0
C      1  0.4986330000000  0.3944600000000  0.4969880000000 1.0
C      1  0.4761730000000  0.5497870000000  0.4695730000000 1.0
C      1  0.4235930000000  0.5610680000000  0.5221470000000 1.0
C      1  0.4121880000000  0.5029410000000  0.4573180000000 1.0
C      1  0.4592910000000  0.5924310000000  0.5463840000000 1.0
C      1  0.5313470000000  0.5055470000000  0.4255830000000 1.0
C      1  0.4659440000000  0.5060510000000  0.5998160000000 1.0
C      1  0.5009110000000  0.5994920000000  0.4844590000000 1.0
C      1  0.5302200000000  0.4674400000000  0.4468430000000 1.0
C      1  0.5434740000000  0.5337860000000  0.4705070000000 1.0
C      1  0.4555940000000  0.4370920000000  0.4065010000000 1.0
C      1  0.4503180000000  0.5305400000000  0.4130880000000 1.0
C      1  0.5312360000000  0.4742510000000  0.5943200000000 1.0
C      1  0.5378010000000  0.5356970000000  0.5530070000000 1.0
C      1  0.4038930000000  0.4643760000000  0.5252540000000 1.0
C      1  0.5411010000000  0.4105670000000  0.5228980000000 1.0
C      1  0.4422870000000  0.4365140000000  0.5521050000000 1.0
C      1  0.4508340000000  0.4981070000000  0.4839230000000 1.0
C      1  0.4485660000000  0.4069180000000  0.5107450000000 1.0
C      1  0.4053590000000  0.4633540000000  0.4958910000000 1.0
C      1  0.4595440000000  0.4531100000000  0.5101440000000 1.0
C      1  0.5160590000000  0.4901970000000  0.4063530000000 1.0
C      1  0.4494970000000  0.5038020000000  0.5282250000000 1.0
C      1  0.4379040000000  0.4607350000000  0.5919350000000 1.0
C      1  0.4945880000000  0.5090310000000  0.6046880000000 1.0
C      1  0.5340450000000  0.5304550000000  0.3916700000000 1.0
C      1  0.5396800000000  0.5855560000000  0.5510070000000 1.0
C      1  0.3911040000000  0.5054140000000  0.5052730000000 1.0
C      1  0.5322730000000  0.5931300000000  0.5233560000000 1.0
C      1  0.4666420000000  0.4580370000000  0.3897550000000 1.0
C      1  0.5635380000000  0.4774890000000  0.5057500000000 1.0
C      1  0.5898180000000  0.4429550000000  0.4675750000000 1.0
C      1  0.4273300000000  0.4956700000000  0.4360870000000 1.0
C      1  0.5288420000000  0.4497780000000  0.4924050000000 1.0
C      1  0.5237720000000  0.4554020000000  0.5732660000000 1.0
C      1  0.4910370000000  0.5459350000000  0.4932240000000 1.0
C      1  0.5461490000000  0.4437170000000  0.4401090000000 1.0
C      1  0.4758830000000  0.5998210000000  0.4687280000000 1.0
C      1  0.3913970000000  0.5033390000000  0.5569060000000 1.0
C      1  0.5302250000000  0.5671810000000  0.5883370000000 1.0
C      1  0.4945150000000  0.4902160000000  0.5038760000000 1.0
C      1  0.4908210000000  0.4884290000000  0.4755510000000 1.0
C      1  0.5082860000000  0.5313970000000  0.5917890000000 1.0
C      1  0.5544300000000  0.5254390000000  0.5783910000000 1.0
C      1  0.4471310000000  0.5649320000000  0.4705850000000 1.0
C      1  0.4702440000000  0.5047070000000  0.5700970000000 1.0
C      1  0.5928290000000  0.5019650000000  0.5650230000000 1.0
C      1  0.5728820000000  0.5803090000000  0.4682020000000 1.0
C      1  0.4449310000000  0.4363880000000  0.4377270000000 1.0
C      1  0.4851280000000  0.5819680000000  0.5326130000000 1.0
C      1  0.5935250000000  0.5064740000000  0.5196310000000 1.0
C      1  0.5550440000000  0.5601980000000  0.5498310000000 1.0
C      1  0.5196980000000  0.5892120000000  0.4387440000000 1.0
C      1  0.5915370000000  0.5533290000000  0.5156350000000 1.0
C      1  0.5788520000000  0.4826480000000  0.5823410000000 1.0
C      1  0.4907720000000  0.4411040000000  0.3839520000000 1.0
C      1  0.5238770000000  0.5129470000000  0.4714040000000 1.0
C      1  0.4483990000000  0.5143230000000  0.5550960000000 1.0
C      1  0.5560070000000  0.5918820000000  0.5052180000000 1.0
C      1  0.4476780000000  0.5440530000000  0.5161000000000 1.0
C      1  0.5136110000000  0.5249150000000  0.4445380000000 1.0
C      1  0.5115010000000  0.5142770000000  0.5204400000000 1.0
C      1  0.5506580000000  0.4219250000000  0.5480480000000 1.0
C      1  0.5158140000000  0.3919230000000  0.4729910000000 1.0
END
