TITL C-4164239-2837-777 3.53557581032532 125000 -14749.792737144 0 0 98 (C1) n - 1
REM
REM in /home/nfs/bkarasulu/CARBON/AIRSS/Generating-Clusters/ReaxFF-fromJPCA2015/Units_Real/with-SteepDescent/Only-C1/SD-CG/Try1-3A/FIRE-CG
REM
REM
REM
REM
REM
REM ./C.cell (11c1c37f851c82e70ff6c80c92926a4b)
REM
REM compiler GCC version 9.2.1 20190827 (Red Hat 9.2.1-1)
REM options -cpp -mtune=generic -march=x86-64 -g -O0 -fpre-include=/usr/include/finclude/math-vector-fortran.h
REM seed 1764004415 -1573999547 -1442825526 -249027933 1937739990 1542088705 -1216860662 -2037585020 -1605527081 -1738719697 581194981 -688000785 70606951 486183091 -2050090542 112845293 1126756740 123116523 -1928665343 -1932360596 -433228618 -1832815404 -1354081696 -1225796099 801554504 1876182582 11119939 -363507492 -38834679 -1331113713 -1191555725 639640036 722790739
REM
CELL 1.54180   50.00000   50.00000   50.00000   90.00000   90.00000   90.00000
LATT -1
SFAC C  
C      1  0.4240620000000  0.4596450000000  0.4817540000000 1.0
C      1  0.5748910000000  0.4483970000000  0.4810200000000 1.0
C      1  0.4724310000000  0.5320700000000  0.4718470000000 1.0
C      1  0.4327000000000  0.4398280000000  0.4611600000000 1.0
C      1  0.4308100000000  0.5361190000000  0.4932370000000 1.0
C      1  0.4836450000000  0.4969370000000  0.4240360000000 1.0
C      1  0.5103770000000  0.4673460000000  0.5182210000000 1.0
C      1  0.4955540000000  0.4120560000000  0.4958040000000 1.0
C      1  0.4539680000000  0.5312400000000  0.4483200000000 1.0
C      1  0.4746340000000  0.5498750000000  0.5558200000000 1.0
C      1  0.5728370000000  0.5010850000000  0.5068140000000 1.0
C      1  0.4839080000000  0.4664680000000  0.5315910000000 1.0
C      1  0.5408840000000  0.4738040000000  0.4270620000000 1.0
C      1  0.4249760000000  0.4876780000000  0.4717610000000 1.0
C      1  0.4842370000000  0.5730840000000  0.5391750000000 1.0
C      1  0.4807610000000  0.4582530000000  0.4790290000000 1.0
C      1  0.5373580000000  0.5029390000000  0.4234990000000 1.0
C      1  0.5271580000000  0.5193180000000  0.5914300000000 1.0
C      1  0.5670150000000  0.5718180000000  0.4883460000000 1.0
C      1  0.4768310000000  0.4886850000000  0.5841440000000 1.0
C      1  0.4579470000000  0.4238130000000  0.4583420000000 1.0
C      1  0.4480220000000  0.4820840000000  0.5790400000000 1.0
C      1  0.4838900000000  0.5404040000000  0.5836300000000 1.0
C      1  0.5285950000000  0.5305270000000  0.4941880000000 1.0
C      1  0.5622450000000  0.4617580000000  0.4431800000000 1.0
C      1  0.5076430000000  0.4633160000000  0.4901110000000 1.0
C      1  0.5222090000000  0.4359790000000  0.4433540000000 1.0
C      1  0.4965850000000  0.5961090000000  0.4773640000000 1.0
C      1  0.4981530000000  0.5608560000000  0.4445140000000 1.0
C      1  0.5787750000000  0.5493040000000  0.5034300000000 1.0
C      1  0.5790000000000  0.5479480000000  0.4743340000000 1.0
C      1  0.5237210000000  0.4753270000000  0.5723410000000 1.0
C      1  0.5615040000000  0.4498930000000  0.5070470000000 1.0
C      1  0.4726970000000  0.4319050000000  0.5013710000000 1.0
C      1  0.5134000000000  0.5734780000000  0.5387420000000 1.0
C      1  0.5687780000000  0.5269750000000  0.5199230000000 1.0
C      1  0.5421600000000  0.5860350000000  0.4926300000000 1.0
C      1  0.4363610000000  0.4492470000000  0.5345990000000 1.0
C      1  0.5009830000000  0.5342660000000  0.5433370000000 1.0
C      1  0.5425080000000  0.4968270000000  0.5837120000000 1.0
C      1  0.4744910000000  0.5099770000000  0.4907010000000 1.0
C      1  0.4337000000000  0.4885300000000  0.5166040000000 1.0
C      1  0.4316230000000  0.5207090000000  0.5567720000000 1.0
C      1  0.4871860000000  0.4638580000000  0.4228830000000 1.0
C      1  0.4738050000000  0.5910810000000  0.4935560000000 1.0
C      1  0.4446440000000  0.5519410000000  0.5168290000000 1.0
C      1  0.5292330000000  0.4476290000000  0.5655250000000 1.0
C      1  0.4900000000000  0.5544170000000  0.4733380000000 1.0
C      1  0.5093330000000  0.5521120000000  0.4957800000000 1.0
C      1  0.5386800000000  0.5440380000000  0.4419910000000 1.0
C      1  0.4601770000000  0.4329170000000  0.5301790000000 1.0
C      1  0.5536350000000  0.5120210000000  0.5622840000000 1.0
C      1  0.4764200000000  0.5105980000000  0.5196370000000 1.0
C      1  0.4652790000000  0.5730500000000  0.5169810000000 1.0
C      1  0.4241570000000  0.4597830000000  0.5105170000000 1.0
C      1  0.5321410000000  0.4294860000000  0.5417440000000 1.0
C      1  0.4552170000000  0.5066310000000  0.4329670000000 1.0
C      1  0.5069860000000  0.4304780000000  0.5563650000000 1.0
C      1  0.5247540000000  0.5481720000000  0.5530430000000 1.0
C      1  0.5772150000000  0.5000640000000  0.4775190000000 1.0
C      1  0.4371210000000  0.4873440000000  0.4444740000000 1.0
C      1  0.5329280000000  0.4845920000000  0.5253310000000 1.0
C      1  0.5730420000000  0.5231020000000  0.4597510000000 1.0
C      1  0.5217130000000  0.5745910000000  0.5105140000000 1.0
C      1  0.4967380000000  0.5062810000000  0.5401470000000 1.0
C      1  0.4332660000000  0.4710360000000  0.5559050000000 1.0
C      1  0.4431450000000  0.4586840000000  0.4413680000000 1.0
C      1  0.5781990000000  0.4735080000000  0.4653370000000 1.0
C      1  0.5236190000000  0.4186400000000  0.4918800000000 1.0
C      1  0.5530000000000  0.5312600000000  0.5447620000000 1.0
C      1  0.5573090000000  0.5227130000000  0.4343760000000 1.0
C      1  0.5314890000000  0.5273390000000  0.4659170000000 1.0
C      1  0.5128000000000  0.5413320000000  0.5834110000000 1.0
C      1  0.4414740000000  0.5107000000000  0.5830810000000 1.0
C      1  0.5197450000000  0.5018750000000  0.4604580000000 1.0
C      1  0.4262840000000  0.5074760000000  0.4925860000000 1.0
C      1  0.4464410000000  0.5418960000000  0.5430150000000 1.0
C      1  0.5246620000000  0.5959130000000  0.4700130000000 1.0
C      1  0.5195200000000  0.5785490000000  0.4480290000000 1.0
C      1  0.5398930000000  0.4306190000000  0.5133800000000 1.0
C      1  0.4764850000000  0.4869060000000  0.4746060000000 1.0
C      1  0.4234670000000  0.4955520000000  0.5446860000000 1.0
C      1  0.4647020000000  0.4858930000000  0.5234670000000 1.0
C      1  0.5134130000000  0.5426860000000  0.4262110000000 1.0
C      1  0.5231890000000  0.4863230000000  0.4829950000000 1.0
C      1  0.4691360000000  0.5167710000000  0.5918620000000 1.0
C      1  0.4701820000000  0.4100420000000  0.4809240000000 1.0
C      1  0.5603540000000  0.4769700000000  0.5182770000000 1.0
C      1  0.4924890000000  0.4977250000000  0.4526250000000 1.0
C      1  0.4810980000000  0.4418430000000  0.5480530000000 1.0
C      1  0.5176540000000  0.4551120000000  0.4248930000000 1.0
C      1  0.5608290000000  0.4356240000000  0.4581560000000 1.0
C      1  0.4313380000000  0.5433930000000  0.4645440000000 1.0
C      1  0.5346250000000  0.4220960000000  0.4637240000000 1.0
C      1  0.4716740000000  0.4491740000000  0.4476000000000 1.0
C      1  0.4984440000000  0.4878790000000  0.5644030000000 1.0
C      1  0.5250690000000  0.5041060000000  0.5050970000000 1.0
C      1  0.5105730000000  0.5142650000000  0.4196630000000 1.0
END
