TITL C-4164232-771-169 -2.96130153720299 125000 -17833.188800816 0 0 120 (C1) n - 1
REM
REM in /home/nfs/bkarasulu/CARBON/AIRSS/Generating-Clusters/ReaxFF-fromJPCA2015/Units_Real/with-SteepDescent/Only-C1/SD-CG/Try1-3A/FIRE-CG
REM
REM
REM
REM
REM
REM ./C.cell (11c1c37f851c82e70ff6c80c92926a4b)
REM
REM compiler GCC version 9.2.1 20190827 (Red Hat 9.2.1-1)
REM options -cpp -mtune=generic -march=x86-64 -g -O0 -fpre-include=/usr/include/finclude/math-vector-fortran.h
REM seed -1042657495 322183682 -535343575 -714308837 2006162681 808992977 -261575733 -1377317197 -1944819326 -1204645505 -310307430 77081858 1610714155 -1460006118 1887173765 402763036 -1057411959 1619288248 1617458045 722805572 -1735958172 -218657023 1339678332 -326995107 334842755 -978384150 -687400558 -1856636535 -434609917 1308253645 435809530 -283939574 -1171942419
REM
CELL 1.54180   50.00000   50.00000   50.00000   90.00000   90.00000   90.00000
LATT -1
SFAC C  
C      1  0.5291800000000  0.4917700000000  0.4127490000000 1.0
C      1  0.5311730000000  0.4457320000000  0.4360960000000 1.0
C      1  0.4081490000000  0.4825990000000  0.5153430000000 1.0
C      1  0.4496700000000  0.5649150000000  0.4698370000000 1.0
C      1  0.4275340000000  0.5010230000000  0.5642280000000 1.0
C      1  0.5598350000000  0.4284030000000  0.4853190000000 1.0
C      1  0.4624840000000  0.5356340000000  0.4706920000000 1.0
C      1  0.4221060000000  0.5425970000000  0.5410430000000 1.0
C      1  0.5801730000000  0.4429660000000  0.4701880000000 1.0
C      1  0.3939770000000  0.5280840000000  0.4980470000000 1.0
C      1  0.5027290000000  0.4816240000000  0.4477180000000 1.0
C      1  0.6058460000000  0.4806570000000  0.4987730000000 1.0
C      1  0.4777830000000  0.5368630000000  0.5246050000000 1.0
C      1  0.4165250000000  0.4902110000000  0.5404760000000 1.0
C      1  0.4555140000000  0.4268140000000  0.5265100000000 1.0
C      1  0.4664490000000  0.5360400000000  0.4157590000000 1.0
C      1  0.4979990000000  0.4689460000000  0.4956980000000 1.0
C      1  0.3991490000000  0.5518070000000  0.4787390000000 1.0
C      1  0.5075230000000  0.5046250000000  0.5461040000000 1.0
C      1  0.4811040000000  0.4267620000000  0.4868560000000 1.0
C      1  0.5252110000000  0.5039400000000  0.5876480000000 1.0
C      1  0.4601920000000  0.5164110000000  0.5233360000000 1.0
C      1  0.5493400000000  0.5088830000000  0.5712280000000 1.0
C      1  0.4691640000000  0.4899670000000  0.5257270000000 1.0
C      1  0.5003090000000  0.4936240000000  0.4086820000000 1.0
C      1  0.5427190000000  0.4724680000000  0.4804830000000 1.0
C      1  0.5452590000000  0.5632010000000  0.4406550000000 1.0
C      1  0.5185660000000  0.5521030000000  0.5483320000000 1.0
C      1  0.5114900000000  0.4585080000000  0.5376010000000 1.0
C      1  0.4443470000000  0.5197590000000  0.4267100000000 1.0
C      1  0.4092930000000  0.5269590000000  0.5215210000000 1.0
C      1  0.4540180000000  0.4245030000000  0.4966370000000 1.0
C      1  0.4336770000000  0.4450520000000  0.4883530000000 1.0
C      1  0.4602800000000  0.5809060000000  0.5268530000000 1.0
C      1  0.4929290000000  0.4812060000000  0.5405110000000 1.0
C      1  0.5144230000000  0.4507720000000  0.5112470000000 1.0
C      1  0.5362930000000  0.4234800000000  0.4524110000000 1.0
C      1  0.6029930000000  0.4548030000000  0.4841300000000 1.0
C      1  0.5461090000000  0.5101340000000  0.5247230000000 1.0
C      1  0.4772350000000  0.5584200000000  0.5698000000000 1.0
C      1  0.4796630000000  0.5780600000000  0.5474310000000 1.0
C      1  0.5191270000000  0.4740750000000  0.5898480000000 1.0
C      1  0.4811240000000  0.4765380000000  0.4275420000000 1.0
C      1  0.5781390000000  0.4800180000000  0.5505260000000 1.0
C      1  0.4279800000000  0.4516550000000  0.4573360000000 1.0
C      1  0.5116200000000  0.5419710000000  0.4690750000000 1.0
C      1  0.5444250000000  0.4699530000000  0.4234900000000 1.0
C      1  0.5469540000000  0.4218920000000  0.5461960000000 1.0
C      1  0.5717090000000  0.4539670000000  0.5216090000000 1.0
C      1  0.4884830000000  0.5978700000000  0.4663840000000 1.0
C      1  0.4713230000000  0.5788820000000  0.4513130000000 1.0
C      1  0.5497380000000  0.5560540000000  0.4916290000000 1.0
C      1  0.5736430000000  0.5471610000000  0.5090580000000 1.0
C      1  0.4242720000000  0.5256250000000  0.4468230000000 1.0
C      1  0.4825780000000  0.5590930000000  0.5022650000000 1.0
C      1  0.5158210000000  0.5664890000000  0.4517230000000 1.0
C      1  0.4930100000000  0.5394080000000  0.4239350000000 1.0
C      1  0.4544070000000  0.4613330000000  0.5603540000000 1.0
C      1  0.4476450000000  0.4387040000000  0.4395060000000 1.0
C      1  0.4884190000000  0.5197060000000  0.4040150000000 1.0
C      1  0.5390130000000  0.4562080000000  0.5779490000000 1.0
C      1  0.4789240000000  0.4442260000000  0.5623680000000 1.0
C      1  0.5473150000000  0.4516660000000  0.5017370000000 1.0
C      1  0.5850400000000  0.5266370000000  0.4915370000000 1.0
C      1  0.4812440000000  0.4265410000000  0.5378430000000 1.0
C      1  0.4282010000000  0.4796390000000  0.4510720000000 1.0
C      1  0.5423620000000  0.5386070000000  0.5345390000000 1.0
C      1  0.5186530000000  0.4602940000000  0.4595960000000 1.0
C      1  0.5351710000000  0.5038590000000  0.4944530000000 1.0
C      1  0.5502290000000  0.5147180000000  0.4177790000000 1.0
C      1  0.4531970000000  0.4882830000000  0.5720580000000 1.0
C      1  0.3885920000000  0.5690130000000  0.4952450000000 1.0
C      1  0.5397410000000  0.4089400000000  0.4761610000000 1.0
C      1  0.4145030000000  0.5013810000000  0.4634740000000 1.0
C      1  0.4517650000000  0.4655000000000  0.4918790000000 1.0
C      1  0.4761300000000  0.4487770000000  0.4402470000000 1.0
C      1  0.5663050000000  0.4602660000000  0.5662880000000 1.0
C      1  0.4937980000000  0.5009040000000  0.4661000000000 1.0
C      1  0.5767300000000  0.5017650000000  0.5342320000000 1.0
C      1  0.4568950000000  0.5760220000000  0.5006030000000 1.0
C      1  0.5024420000000  0.5301810000000  0.5356190000000 1.0
C      1  0.5272900000000  0.5796920000000  0.4988490000000 1.0
C      1  0.4901250000000  0.5649130000000  0.4341860000000 1.0
C      1  0.4704700000000  0.4748990000000  0.5020810000000 1.0
C      1  0.4990300000000  0.4238370000000  0.5111590000000 1.0
C      1  0.4873090000000  0.5432330000000  0.4808810000000 1.0
C      1  0.5076680000000  0.5783990000000  0.5355320000000 1.0
C      1  0.4251810000000  0.5511170000000  0.4605850000000 1.0
C      1  0.4031430000000  0.5022130000000  0.4902370000000 1.0
C      1  0.4376420000000  0.5317200000000  0.5184360000000 1.0
C      1  0.5684450000000  0.4695250000000  0.4660820000000 1.0
C      1  0.4579820000000  0.5358620000000  0.5755520000000 1.0
C      1  0.5354520000000  0.4977250000000  0.5486580000000 1.0
C      1  0.5696600000000  0.4405110000000  0.5460870000000 1.0
C      1  0.4997470000000  0.5190170000000  0.5849080000000 1.0
C      1  0.5047120000000  0.5778830000000  0.5099640000000 1.0
C      1  0.5975610000000  0.4572790000000  0.5114520000000 1.0
C      1  0.4204490000000  0.4561970000000  0.5171620000000 1.0
C      1  0.5162990000000  0.5893640000000  0.4736320000000 1.0
C      1  0.4709600000000  0.5104440000000  0.5808500000000 1.0
C      1  0.5263480000000  0.4416830000000  0.5557830000000 1.0
C      1  0.5370200000000  0.4102970000000  0.5234290000000 1.0
C      1  0.5727720000000  0.5201510000000  0.5562420000000 1.0
C      1  0.5761390000000  0.5292710000000  0.4624890000000 1.0
C      1  0.5329940000000  0.5319120000000  0.4846600000000 1.0
C      1  0.4537500000000  0.4941710000000  0.4385640000000 1.0
C      1  0.4906450000000  0.4438280000000  0.4650720000000 1.0
C      1  0.4387950000000  0.4486770000000  0.5386410000000 1.0
C      1  0.5069710000000  0.4958980000000  0.4915940000000 1.0
C      1  0.5703840000000  0.5103040000000  0.4398370000000 1.0
C      1  0.5703210000000  0.5440540000000  0.5384350000000 1.0
C      1  0.4674980000000  0.5098670000000  0.4602350000000 1.0
C      1  0.5022810000000  0.5461490000000  0.5751790000000 1.0
C      1  0.4970270000000  0.4583750000000  0.5800970000000 1.0
C      1  0.5230730000000  0.4046090000000  0.5020310000000 1.0
C      1  0.5463250000000  0.5410200000000  0.4246560000000 1.0
C      1  0.5921690000000  0.5040440000000  0.5077900000000 1.0
C      1  0.5629000000000  0.5546760000000  0.4622870000000 1.0
C      1  0.5672650000000  0.4813550000000  0.4387860000000 1.0
C      1  0.4311220000000  0.5307730000000  0.5656990000000 1.0
END
