TITL C-4164237-1827-367 1.00196824570158 125000 -9976.19482034386 0 0 68 (C1) n - 1
REM
REM in /home/nfs/bkarasulu/CARBON/AIRSS/Generating-Clusters/ReaxFF-fromJPCA2015/Units_Real/with-SteepDescent/Only-C1/SD-CG/Try1-3A/FIRE-CG
REM
REM
REM
REM
REM
REM ./C.cell (11c1c37f851c82e70ff6c80c92926a4b)
REM
REM compiler GCC version 9.2.1 20190827 (Red Hat 9.2.1-1)
REM options -cpp -mtune=generic -march=x86-64 -g -O0 -fpre-include=/usr/include/finclude/math-vector-fortran.h
REM seed 1626170452 1780224437 2088996664 2020198552 -277276765 -1599311287 1349371418 1555580309 1671431404 207628475 1826650645 92692516 -133103191 828167283 -72813400 1070347367 -1098982112 1788119326 -1056074182 531006639 1956946974 -603173820 -1346655324 44910483 1633679592 936362834 1456457427 1179715077 -1994889550 -1783132180 -565024642 -1354155948 1376998236
REM
CELL 1.54180   50.00000   50.00000   50.00000   90.00000   90.00000   90.00000
LATT -1
SFAC C  
C      1  0.4962230000000  0.4813680000000  0.4798940000000 1.0
C      1  0.4937100000000  0.4782080000000  0.5089330000000 1.0
C      1  0.5461150000000  0.4951430000000  0.4594210000000 1.0
C      1  0.5380070000000  0.4693020000000  0.5644880000000 1.0
C      1  0.4834910000000  0.4426030000000  0.4425110000000 1.0
C      1  0.4799620000000  0.5219260000000  0.5290710000000 1.0
C      1  0.5562330000000  0.4913080000000  0.5595980000000 1.0
C      1  0.5194090000000  0.5608340000000  0.5436870000000 1.0
C      1  0.5295860000000  0.5093730000000  0.5318730000000 1.0
C      1  0.5144990000000  0.4871490000000  0.4284440000000 1.0
C      1  0.5142370000000  0.4201790000000  0.4776090000000 1.0
C      1  0.5226540000000  0.4933260000000  0.4783440000000 1.0
C      1  0.4592090000000  0.4565370000000  0.4454060000000 1.0
C      1  0.4637450000000  0.5381340000000  0.5685660000000 1.0
C      1  0.5536120000000  0.4486570000000  0.5045320000000 1.0
C      1  0.4961250000000  0.4670740000000  0.4335320000000 1.0
C      1  0.5504580000000  0.4538720000000  0.4535860000000 1.0
C      1  0.5314070000000  0.4948350000000  0.5764380000000 1.0
C      1  0.5142520000000  0.4221660000000  0.5080410000000 1.0
C      1  0.5328100000000  0.4365630000000  0.4644560000000 1.0
C      1  0.4822970000000  0.5240880000000  0.4707890000000 1.0
C      1  0.4713030000000  0.4322820000000  0.4929690000000 1.0
C      1  0.4361590000000  0.4983140000000  0.5405940000000 1.0
C      1  0.5415260000000  0.5699950000000  0.5242560000000 1.0
C      1  0.4464280000000  0.4470510000000  0.4907740000000 1.0
C      1  0.5698050000000  0.4848800000000  0.4948140000000 1.0
C      1  0.4311130000000  0.5114360000000  0.4809010000000 1.0
C      1  0.4680940000000  0.5431900000000  0.4854680000000 1.0
C      1  0.5223050000000  0.5314300000000  0.5509720000000 1.0
C      1  0.5211980000000  0.4574320000000  0.5418350000000 1.0
C      1  0.5311510000000  0.5355790000000  0.4415480000000 1.0
C      1  0.4520090000000  0.5505370000000  0.5456500000000 1.0
C      1  0.5354470000000  0.4369710000000  0.5213990000000 1.0
C      1  0.4852400000000  0.5297740000000  0.4423410000000 1.0
C      1  0.5507880000000  0.5312570000000  0.4896940000000 1.0
C      1  0.4940350000000  0.5698390000000  0.5365370000000 1.0
C      1  0.4634330000000  0.4860590000000  0.5510880000000 1.0
C      1  0.4400840000000  0.4607990000000  0.4654530000000 1.0
C      1  0.4433760000000  0.5324150000000  0.4976840000000 1.0
C      1  0.5100990000000  0.5145790000000  0.5707200000000 1.0
C      1  0.5676710000000  0.5096020000000  0.5071150000000 1.0
C      1  0.4709100000000  0.5795830000000  0.5037360000000 1.0
C      1  0.4855870000000  0.5686180000000  0.4868340000000 1.0
C      1  0.5589210000000  0.5074380000000  0.5350820000000 1.0
C      1  0.4724420000000  0.5765540000000  0.4630560000000 1.0
C      1  0.5185520000000  0.5693540000000  0.4799280000000 1.0
C      1  0.4981800000000  0.5226300000000  0.5081560000000 1.0
C      1  0.4882510000000  0.4286400000000  0.5178850000000 1.0
C      1  0.5659870000000  0.4597170000000  0.4823320000000 1.0
C      1  0.4464640000000  0.4908280000000  0.4655100000000 1.0
C      1  0.4873230000000  0.4278090000000  0.4694360000000 1.0
C      1  0.4482470000000  0.5258950000000  0.5271130000000 1.0
C      1  0.4753010000000  0.5606560000000  0.4412580000000 1.0
C      1  0.5215430000000  0.5188560000000  0.4911640000000 1.0
C      1  0.5161600000000  0.4833760000000  0.5271700000000 1.0
C      1  0.5095990000000  0.5181850000000  0.4319100000000 1.0
C      1  0.4212310000000  0.4807580000000  0.5252380000000 1.0
C      1  0.5246090000000  0.5636500000000  0.4522870000000 1.0
C      1  0.4425950000000  0.4656560000000  0.5138480000000 1.0
C      1  0.5504280000000  0.5241520000000  0.4602840000000 1.0
C      1  0.4677350000000  0.5745610000000  0.5317210000000 1.0
C      1  0.4755960000000  0.4972090000000  0.4662340000000 1.0
C      1  0.5411410000000  0.4771240000000  0.4371910000000 1.0
C      1  0.5410760000000  0.5608240000000  0.4967700000000 1.0
C      1  0.4716040000000  0.4566190000000  0.5596480000000 1.0
C      1  0.4910450000000  0.4433990000000  0.5435710000000 1.0
C      1  0.4819580000000  0.5136670000000  0.5590360000000 1.0
C      1  0.4682130000000  0.4781750000000  0.5225700000000 1.0
END
