TITL C-4164245-3996-14 90.6967411074701 125000 -23169.2360341577 0 0 158 (C1) n - 1
REM
REM in /home/nfs/bkarasulu/CARBON/AIRSS/Generating-Clusters/ReaxFF-fromJPCA2015/Units_Real/with-SteepDescent/Only-C1/SD-CG/Try1-3A/FIRE-CG
REM
REM
REM
REM
REM
REM ./C.cell (11c1c37f851c82e70ff6c80c92926a4b)
REM
REM compiler GCC version 9.2.1 20190827 (Red Hat 9.2.1-1)
REM options -cpp -mtune=generic -march=x86-64 -g -O0 -fpre-include=/usr/include/finclude/math-vector-fortran.h
REM seed 844791306 644751417 -840028290 -754422705 -2001224688 431315445 -101934844 757705302 -1896237861 349989554 1694310521 -1499450939 675383528 898926990 543179130 568156415 1688335190 1366557385 -1226106034 -819947205 -1523559694 1278810476 1076194627 -1056648600 748540593 -1812638776 -1667947142 1984049150 737057571 954716937 1728530515 1077199634 -1925482749
REM
CELL 1.54180   50.00000   50.00000   50.00000   90.00000   90.00000   90.00000
LATT -1
SFAC C  
C      1  0.4287470000000  0.5113500000000  0.4943730000000 1.0
C      1  0.5851090000000  0.5298930000000  0.4530160000000 1.0
C      1  0.4705600000000  0.4715750000000  0.5371260000000 1.0
C      1  0.4924980000000  0.5296020000000  0.4635990000000 1.0
C      1  0.5482640000000  0.4883640000000  0.4499520000000 1.0
C      1  0.6155620000000  0.4989770000000  0.4761320000000 1.0
C      1  0.4661550000000  0.5132170000000  0.5629210000000 1.0
C      1  0.4700700000000  0.5814820000000  0.4446300000000 1.0
C      1  0.5045340000000  0.5920500000000  0.4805390000000 1.0
C      1  0.5438380000000  0.4956820000000  0.5264500000000 1.0
C      1  0.4076840000000  0.5271910000000  0.5418650000000 1.0
C      1  0.5210980000000  0.5814890000000  0.4427530000000 1.0
C      1  0.4380930000000  0.4671270000000  0.4225410000000 1.0
C      1  0.5504590000000  0.5394620000000  0.5464020000000 1.0
C      1  0.5258780000000  0.4504980000000  0.5116400000000 1.0
C      1  0.3947800000000  0.4772680000000  0.4793750000000 1.0
C      1  0.5371390000000  0.5152120000000  0.5462380000000 1.0
C      1  0.4966360000000  0.5924470000000  0.4516950000000 1.0
C      1  0.5124960000000  0.5672080000000  0.5702920000000 1.0
C      1  0.4851590000000  0.4385130000000  0.5677350000000 1.0
C      1  0.4405470000000  0.4293680000000  0.4566610000000 1.0
C      1  0.5206580000000  0.5536140000000  0.4134770000000 1.0
C      1  0.4730900000000  0.5654510000000  0.4220440000000 1.0
C      1  0.5902980000000  0.5444810000000  0.5327760000000 1.0
C      1  0.5002710000000  0.5209620000000  0.5135890000000 1.0
C      1  0.4182710000000  0.5334090000000  0.4396550000000 1.0
C      1  0.5615990000000  0.4447500000000  0.4484150000000 1.0
C      1  0.5580970000000  0.5803800000000  0.4749980000000 1.0
C      1  0.5570680000000  0.4238190000000  0.5375620000000 1.0
C      1  0.5934610000000  0.4689800000000  0.5323180000000 1.0
C      1  0.4539080000000  0.4079380000000  0.4648100000000 1.0
C      1  0.4719580000000  0.5231160000000  0.5163210000000 1.0
C      1  0.5952940000000  0.4973590000000  0.5405150000000 1.0
C      1  0.5241320000000  0.5050630000000  0.4515450000000 1.0
C      1  0.5452940000000  0.4625700000000  0.4605050000000 1.0
C      1  0.4613780000000  0.5151410000000  0.5935420000000 1.0
C      1  0.4940590000000  0.4760100000000  0.5549160000000 1.0
C      1  0.4675140000000  0.6024290000000  0.5310120000000 1.0
C      1  0.4703280000000  0.5636610000000  0.4901410000000 1.0
C      1  0.5618440000000  0.3925790000000  0.4968980000000 1.0
C      1  0.6227870000000  0.4791000000000  0.4583520000000 1.0
C      1  0.5391940000000  0.4816540000000  0.4110010000000 1.0
C      1  0.5743430000000  0.4464240000000  0.5289300000000 1.0
C      1  0.4156670000000  0.4578150000000  0.5142290000000 1.0
C      1  0.6078120000000  0.5196300000000  0.4937500000000 1.0
C      1  0.5056260000000  0.4345920000000  0.4145140000000 1.0
C      1  0.5837090000000  0.4616140000000  0.5057710000000 1.0
C      1  0.4386980000000  0.5235100000000  0.4205840000000 1.0
C      1  0.5317570000000  0.4490070000000  0.5750290000000 1.0
C      1  0.3869740000000  0.5068060000000  0.4740230000000 1.0
C      1  0.5595120000000  0.5275400000000  0.4203840000000 1.0
C      1  0.4467830000000  0.4895320000000  0.4963590000000 1.0
C      1  0.4435650000000  0.5553570000000  0.5709840000000 1.0
C      1  0.6028500000000  0.5198640000000  0.5233880000000 1.0
C      1  0.5006890000000  0.4870200000000  0.4513000000000 1.0
C      1  0.4745160000000  0.4659090000000  0.6058270000000 1.0
C      1  0.4013280000000  0.5171740000000  0.4537110000000 1.0
C      1  0.5085170000000  0.4028420000000  0.5066950000000 1.0
C      1  0.4776780000000  0.4305280000000  0.4228350000000 1.0
C      1  0.5351280000000  0.5938220000000  0.5171930000000 1.0
C      1  0.5735470000000  0.5560230000000  0.5125470000000 1.0
C      1  0.4658860000000  0.5457990000000  0.5560530000000 1.0
C      1  0.5445220000000  0.4062020000000  0.5181590000000 1.0
C      1  0.4267060000000  0.4521370000000  0.4477410000000 1.0
C      1  0.3960640000000  0.4611710000000  0.5017880000000 1.0
C      1  0.4705920000000  0.4956220000000  0.5105840000000 1.0
C      1  0.4537180000000  0.4002540000000  0.4967800000000 1.0
C      1  0.5481630000000  0.5754050000000  0.4472800000000 1.0
C      1  0.4802640000000  0.3920100000000  0.5073920000000 1.0
C      1  0.5043750000000  0.4785450000000  0.4784440000000 1.0
C      1  0.4586760000000  0.4502990000000  0.4207440000000 1.0
C      1  0.5620130000000  0.4813680000000  0.5882730000000 1.0
C      1  0.5308990000000  0.5204190000000  0.5990640000000 1.0
C      1  0.4193890000000  0.5661370000000  0.5282930000000 1.0
C      1  0.5025600000000  0.4676070000000  0.3805730000000 1.0
C      1  0.5386490000000  0.4669030000000  0.5974330000000 1.0
C      1  0.4220160000000  0.4692370000000  0.4715280000000 1.0
C      1  0.5138620000000  0.5451990000000  0.5083120000000 1.0
C      1  0.5089940000000  0.6036990000000  0.5229360000000 1.0
C      1  0.4683270000000  0.5210400000000  0.4589670000000 1.0
C      1  0.4935330000000  0.4094850000000  0.5623800000000 1.0
C      1  0.5391990000000  0.5458130000000  0.6018640000000 1.0
C      1  0.5800090000000  0.4592440000000  0.4316190000000 1.0
C      1  0.4234660000000  0.4802780000000  0.5531190000000 1.0
C      1  0.4506040000000  0.4885300000000  0.5503870000000 1.0
C      1  0.4253830000000  0.5539320000000  0.4620690000000 1.0
C      1  0.5100750000000  0.5213010000000  0.5408540000000 1.0
C      1  0.5422640000000  0.4209370000000  0.4495040000000 1.0
C      1  0.4344760000000  0.4149230000000  0.5119890000000 1.0
C      1  0.4831480000000  0.5495390000000  0.6008720000000 1.0
C      1  0.4074570000000  0.5201080000000  0.5122650000000 1.0
C      1  0.4389750000000  0.4629600000000  0.4964730000000 1.0
C      1  0.4054370000000  0.5570260000000  0.4831770000000 1.0
C      1  0.5588060000000  0.5040350000000  0.5047930000000 1.0
C      1  0.4512310000000  0.5761520000000  0.4670620000000 1.0
C      1  0.5151470000000  0.4612480000000  0.4015110000000 1.0
C      1  0.4610540000000  0.6079930000000  0.5045200000000 1.0
C      1  0.5231700000000  0.4931130000000  0.5936380000000 1.0
C      1  0.5115380000000  0.4279670000000  0.5234780000000 1.0
C      1  0.4155320000000  0.4322860000000  0.5248440000000 1.0
C      1  0.4568790000000  0.5416310000000  0.5017990000000 1.0
C      1  0.4938380000000  0.5041510000000  0.5576520000000 1.0
C      1  0.5256510000000  0.4571040000000  0.4808020000000 1.0
C      1  0.5887410000000  0.5368370000000  0.4790940000000 1.0
C      1  0.5003500000000  0.3936990000000  0.4379460000000 1.0
C      1  0.4746110000000  0.4969520000000  0.4422470000000 1.0
C      1  0.4963550000000  0.5630380000000  0.4115340000000 1.0
C      1  0.4735300000000  0.4068190000000  0.4425110000000 1.0
C      1  0.5839310000000  0.5153080000000  0.4317600000000 1.0
C      1  0.5211560000000  0.4315870000000  0.4679830000000 1.0
C      1  0.5332660000000  0.5425480000000  0.4885590000000 1.0
C      1  0.4428950000000  0.5308800000000  0.4772810000000 1.0
C      1  0.5464840000000  0.5532950000000  0.4262570000000 1.0
C      1  0.4866290000000  0.4287520000000  0.5401730000000 1.0
C      1  0.4403680000000  0.5929400000000  0.4895010000000 1.0
C      1  0.4887940000000  0.5637850000000  0.5532030000000 1.0
C      1  0.5208410000000  0.4088600000000  0.5660720000000 1.0
C      1  0.5731270000000  0.4904770000000  0.4635160000000 1.0
C      1  0.4197410000000  0.5538340000000  0.5528020000000 1.0
C      1  0.3913610000000  0.5321750000000  0.4909780000000 1.0
C      1  0.4994630000000  0.4804760000000  0.6087180000000 1.0
C      1  0.4399520000000  0.4457880000000  0.5702520000000 1.0
C      1  0.5931730000000  0.4852520000000  0.4440260000000 1.0
C      1  0.5445900000000  0.4234970000000  0.5651220000000 1.0
C      1  0.5096280000000  0.5582030000000  0.5983250000000 1.0
C      1  0.5762140000000  0.5381450000000  0.5599370000000 1.0
C      1  0.4808210000000  0.4377520000000  0.4958310000000 1.0
C      1  0.4036530000000  0.5029360000000  0.5579930000000 1.0
C      1  0.4181700000000  0.5766690000000  0.5020750000000 1.0
C      1  0.5203070000000  0.5315110000000  0.4644380000000 1.0
C      1  0.5658520000000  0.4678060000000  0.4072540000000 1.0
C      1  0.4847520000000  0.5238860000000  0.4037200000000 1.0
C      1  0.5408060000000  0.5623180000000  0.5617280000000 1.0
C      1  0.5589930000000  0.5820260000000  0.5036110000000 1.0
C      1  0.4735430000000  0.4949260000000  0.6107620000000 1.0
C      1  0.4719880000000  0.4987650000000  0.4122550000000 1.0
C      1  0.4197130000000  0.4485220000000  0.5524340000000 1.0
C      1  0.5381140000000  0.5107370000000  0.4085190000000 1.0
C      1  0.5143950000000  0.5271820000000  0.4043110000000 1.0
C      1  0.5594770000000  0.5555920000000  0.5823080000000 1.0
C      1  0.5489120000000  0.4022540000000  0.4724310000000 1.0
C      1  0.4429730000000  0.4955870000000  0.4129250000000 1.0
C      1  0.4555320000000  0.5438260000000  0.5972940000000 1.0
C      1  0.4988390000000  0.5649700000000  0.4931910000000 1.0
C      1  0.4917150000000  0.6102720000000  0.4992130000000 1.0
C      1  0.4990050000000  0.4201770000000  0.4825700000000 1.0
C      1  0.4892630000000  0.5923060000000  0.5452400000000 1.0
C      1  0.5574570000000  0.4976620000000  0.5727120000000 1.0
C      1  0.4652360000000  0.4519030000000  0.5120540000000 1.0
C      1  0.4631120000000  0.4457750000000  0.5862270000000 1.0
C      1  0.5323720000000  0.4698750000000  0.5298060000000 1.0
C      1  0.5816080000000  0.5079090000000  0.5642800000000 1.0
C      1  0.5724570000000  0.4839780000000  0.4904680000000 1.0
C      1  0.5603780000000  0.5332520000000  0.4958440000000 1.0
C      1  0.5198660000000  0.4134320000000  0.4271900000000 1.0
C      1  0.4624880000000  0.5400470000000  0.4139750000000 1.0
C      1  0.5189450000000  0.4645440000000  0.5537700000000 1.0
C      1  0.4970020000000  0.4942000000000  0.5003760000000 1.0
END
