TITL C-4164234-2335-230 -4.43006171410127 125000 -16706.1392154543 0 0 111 (C1) n - 1
REM
REM in /home/nfs/bkarasulu/CARBON/AIRSS/Generating-Clusters/ReaxFF-fromJPCA2015/Units_Real/with-SteepDescent/Only-C1/SD-CG/Try1-3A/FIRE-CG
REM
REM
REM
REM
REM
REM ./C.cell (11c1c37f851c82e70ff6c80c92926a4b)
REM
REM compiler GCC version 9.2.1 20190827 (Red Hat 9.2.1-1)
REM options -cpp -mtune=generic -march=x86-64 -g -O0 -fpre-include=/usr/include/finclude/math-vector-fortran.h
REM seed -224880669 928025695 1354856197 -2091106636 1816777845 -968059601 1712699268 -1756540359 -96882191 1372180228 160911282 -367791969 1794460419 230705701 -1082260625 461568854 333087501 1490976652 -1545729265 -755687874 1078141159 1056226612 -1086106168 -447156960 73138508 -1325771712 654888611 910201997 -2087144216 541306410 -1899879805 -530458050 -1565808704
REM
CELL 1.54180   50.00000   50.00000   50.00000   90.00000   90.00000   90.00000
LATT -1
SFAC C  
C      1  0.5438490000000  0.5845040000000  0.4872170000000 1.0
C      1  0.4903890000000  0.5461570000000  0.4762760000000 1.0
C      1  0.4707230000000  0.5606420000000  0.4609740000000 1.0
C      1  0.5597220000000  0.4333230000000  0.4608960000000 1.0
C      1  0.4352240000000  0.5111050000000  0.5354840000000 1.0
C      1  0.4977800000000  0.4950930000000  0.5930670000000 1.0
C      1  0.5724270000000  0.4869320000000  0.5572840000000 1.0
C      1  0.5792220000000  0.4321350000000  0.4798210000000 1.0
C      1  0.5901680000000  0.4905840000000  0.5344780000000 1.0
C      1  0.4312660000000  0.5575190000000  0.4870350000000 1.0
C      1  0.5060530000000  0.4852660000000  0.5003530000000 1.0
C      1  0.5336240000000  0.4757920000000  0.4106210000000 1.0
C      1  0.5399030000000  0.4346600000000  0.4420860000000 1.0
C      1  0.5371000000000  0.5530680000000  0.5547110000000 1.0
C      1  0.5954450000000  0.4685350000000  0.5154240000000 1.0
C      1  0.4546950000000  0.5823880000000  0.5182100000000 1.0
C      1  0.5112130000000  0.5291340000000  0.4625800000000 1.0
C      1  0.5719280000000  0.5646550000000  0.5105940000000 1.0
C      1  0.5108130000000  0.4559600000000  0.4959770000000 1.0
C      1  0.5264150000000  0.5649110000000  0.5267920000000 1.0
C      1  0.4653250000000  0.5903470000000  0.4923620000000 1.0
C      1  0.4606860000000  0.4484080000000  0.4495520000000 1.0
C      1  0.4101550000000  0.5039340000000  0.5165850000000 1.0
C      1  0.4730620000000  0.5465700000000  0.5458680000000 1.0
C      1  0.5213570000000  0.4957540000000  0.5755590000000 1.0
C      1  0.5503350000000  0.4804730000000  0.5042420000000 1.0
C      1  0.5628490000000  0.5132860000000  0.5665600000000 1.0
C      1  0.4943050000000  0.5916410000000  0.4958930000000 1.0
C      1  0.5200430000000  0.4924120000000  0.5452690000000 1.0
C      1  0.5516290000000  0.4351600000000  0.5467330000000 1.0
C      1  0.5065810000000  0.4774700000000  0.4188470000000 1.0
C      1  0.4095150000000  0.4806780000000  0.4984410000000 1.0
C      1  0.5875900000000  0.5064300000000  0.4895480000000 1.0
C      1  0.5266630000000  0.5396680000000  0.4376000000000 1.0
C      1  0.5395030000000  0.4762170000000  0.5318530000000 1.0
C      1  0.5325610000000  0.5276410000000  0.4898890000000 1.0
C      1  0.5738110000000  0.4250940000000  0.5296540000000 1.0
C      1  0.5184740000000  0.5414770000000  0.5723800000000 1.0
C      1  0.5885320000000  0.4405530000000  0.5090190000000 1.0
C      1  0.4606780000000  0.4989290000000  0.4266550000000 1.0
C      1  0.4368530000000  0.5586920000000  0.5162370000000 1.0
C      1  0.4993020000000  0.4782830000000  0.4469020000000 1.0
C      1  0.4641030000000  0.4725090000000  0.5257900000000 1.0
C      1  0.5122080000000  0.4298350000000  0.4534510000000 1.0
C      1  0.5624690000000  0.5386530000000  0.5515080000000 1.0
C      1  0.5562280000000  0.5393750000000  0.4769560000000 1.0
C      1  0.4765980000000  0.5757030000000  0.5363510000000 1.0
C      1  0.4320610000000  0.5020660000000  0.4340790000000 1.0
C      1  0.4731440000000  0.4057720000000  0.5014020000000 1.0
C      1  0.4847300000000  0.4199500000000  0.5258520000000 1.0
C      1  0.4579150000000  0.5015240000000  0.5180680000000 1.0
C      1  0.4397090000000  0.4353950000000  0.5660100000000 1.0
C      1  0.5758020000000  0.5205760000000  0.4668310000000 1.0
C      1  0.5025310000000  0.5023100000000  0.5247850000000 1.0
C      1  0.5168400000000  0.5885290000000  0.4749300000000 1.0
C      1  0.4822140000000  0.4257290000000  0.4503510000000 1.0
C      1  0.4956430000000  0.4670320000000  0.5898610000000 1.0
C      1  0.5451980000000  0.5213450000000  0.4247960000000 1.0
C      1  0.5648200000000  0.5651340000000  0.4820540000000 1.0
C      1  0.4179270000000  0.4545000000000  0.5073230000000 1.0
C      1  0.5151690000000  0.4465010000000  0.5613540000000 1.0
C      1  0.5526760000000  0.4639410000000  0.5550300000000 1.0
C      1  0.4511540000000  0.5060360000000  0.5831550000000 1.0
C      1  0.5508620000000  0.4594190000000  0.4270500000000 1.0
C      1  0.4532530000000  0.4498930000000  0.4782750000000 1.0
C      1  0.4922860000000  0.4534740000000  0.5685180000000 1.0
C      1  0.5480770000000  0.5803650000000  0.5152480000000 1.0
C      1  0.4326130000000  0.4343240000000  0.4925970000000 1.0
C      1  0.4938870000000  0.5299370000000  0.5211160000000 1.0
C      1  0.5329410000000  0.5047320000000  0.4040720000000 1.0
C      1  0.4558500000000  0.4254060000000  0.5352410000000 1.0
C      1  0.5079780000000  0.5600610000000  0.4266450000000 1.0
C      1  0.5124080000000  0.4550210000000  0.4674730000000 1.0
C      1  0.4676600000000  0.5604300000000  0.4373940000000 1.0
C      1  0.4587540000000  0.4923580000000  0.4907870000000 1.0
C      1  0.4287300000000  0.4595420000000  0.5577610000000 1.0
C      1  0.4386070000000  0.4539990000000  0.5296310000000 1.0
C      1  0.5001850000000  0.5831610000000  0.5225410000000 1.0
C      1  0.4336800000000  0.4917060000000  0.5638280000000 1.0
C      1  0.4145430000000  0.5137240000000  0.4562590000000 1.0
C      1  0.4793030000000  0.5181870000000  0.4136550000000 1.0
C      1  0.5889700000000  0.5152840000000  0.5175830000000 1.0
C      1  0.4781610000000  0.5167340000000  0.5862460000000 1.0
C      1  0.5212540000000  0.4307750000000  0.5406660000000 1.0
C      1  0.5079490000000  0.4344170000000  0.5167520000000 1.0
C      1  0.4084260000000  0.5242450000000  0.4983010000000 1.0
C      1  0.4770250000000  0.5306020000000  0.4964600000000 1.0
C      1  0.5669870000000  0.5082200000000  0.4413100000000 1.0
C      1  0.5312210000000  0.4968360000000  0.4908360000000 1.0
C      1  0.4128820000000  0.4866790000000  0.4684490000000 1.0
C      1  0.5379070000000  0.5195240000000  0.5808430000000 1.0
C      1  0.4889740000000  0.5380620000000  0.5705100000000 1.0
C      1  0.5117450000000  0.5764520000000  0.4499540000000 1.0
C      1  0.4695990000000  0.4662940000000  0.4962010000000 1.0
C      1  0.4503110000000  0.5748670000000  0.4716990000000 1.0
C      1  0.5780220000000  0.5407060000000  0.5265710000000 1.0
C      1  0.4450150000000  0.5396380000000  0.5365530000000 1.0
C      1  0.5785970000000  0.4785030000000  0.4938160000000 1.0
C      1  0.4458410000000  0.4142830000000  0.5102020000000 1.0
C      1  0.4583010000000  0.4821300000000  0.5726910000000 1.0
C      1  0.4741960000000  0.5095390000000  0.4772080000000 1.0
C      1  0.4320950000000  0.4771990000000  0.4487420000000 1.0
C      1  0.4810490000000  0.5473630000000  0.4174110000000 1.0
C      1  0.4763670000000  0.4718980000000  0.5536530000000 1.0
C      1  0.5196880000000  0.5386690000000  0.5139740000000 1.0
C      1  0.5026930000000  0.5031260000000  0.4054450000000 1.0
C      1  0.5706180000000  0.4790310000000  0.4376010000000 1.0
C      1  0.4702790000000  0.4733650000000  0.4377380000000 1.0
C      1  0.4129130000000  0.5377990000000  0.4744250000000 1.0
C      1  0.4951130000000  0.5044510000000  0.4597950000000 1.0
C      1  0.4792790000000  0.4136770000000  0.4748070000000 1.0
END
