TITL C-4164232-771-84 88.0526419469017 125000 -26767.2599122576 0 0 182 (C1) n - 1
REM
REM in /home/nfs/bkarasulu/CARBON/AIRSS/Generating-Clusters/ReaxFF-fromJPCA2015/Units_Real/with-SteepDescent/Only-C1/SD-CG/Try1-3A/FIRE-CG
REM
REM
REM
REM
REM
REM ./C.cell (11c1c37f851c82e70ff6c80c92926a4b)
REM
REM compiler GCC version 9.2.1 20190827 (Red Hat 9.2.1-1)
REM options -cpp -mtune=generic -march=x86-64 -g -O0 -fpre-include=/usr/include/finclude/math-vector-fortran.h
REM seed -1222440020 1748908441 2130332938 1298091788 -808902552 -2014962259 -877233337 -1883344116 -871153832 -914763812 -887567364 -1406028197 -1070537561 1691227966 2075125691 -1843812179 -928514063 1727075028 479805953 898503383 -1646051933 -1922134892 -292883757 -1445949205 853891051 350821253 -2061917459 -752008740 -851627970 374842417 2010912945 121370651 -2056454904
REM
CELL 1.54180   50.00000   50.00000   50.00000   90.00000   90.00000   90.00000
LATT -1
SFAC C  
C      1  0.4328460000000  0.5831840000000  0.5044210000000 1.0
C      1  0.3914320000000  0.4956820000000  0.5040720000000 1.0
C      1  0.4458550000000  0.5230830000000  0.4196430000000 1.0
C      1  0.4444130000000  0.3986130000000  0.5431080000000 1.0
C      1  0.4949270000000  0.5524420000000  0.5679340000000 1.0
C      1  0.4985470000000  0.3937340000000  0.5258570000000 1.0
C      1  0.4180910000000  0.4668940000000  0.5719740000000 1.0
C      1  0.4824070000000  0.4546990000000  0.4992020000000 1.0
C      1  0.5322280000000  0.5322930000000  0.4592750000000 1.0
C      1  0.4165980000000  0.5648920000000  0.4891490000000 1.0
C      1  0.6004280000000  0.5198970000000  0.4938270000000 1.0
C      1  0.3979450000000  0.5240330000000  0.5085610000000 1.0
C      1  0.5477390000000  0.4632230000000  0.4241290000000 1.0
C      1  0.4455580000000  0.4599810000000  0.4665580000000 1.0
C      1  0.4832290000000  0.5737550000000  0.5208790000000 1.0
C      1  0.5551910000000  0.5466970000000  0.4174550000000 1.0
C      1  0.4328590000000  0.4803150000000  0.4837650000000 1.0
C      1  0.4470880000000  0.5908510000000  0.4782270000000 1.0
C      1  0.5057130000000  0.3972340000000  0.4430460000000 1.0
C      1  0.4818790000000  0.5901280000000  0.5637580000000 1.0
C      1  0.5909990000000  0.5088070000000  0.4543630000000 1.0
C      1  0.4994230000000  0.6058490000000  0.4824780000000 1.0
C      1  0.3995750000000  0.4526550000000  0.5075850000000 1.0
C      1  0.4703750000000  0.6005120000000  0.5193260000000 1.0
C      1  0.4804340000000  0.4427490000000  0.5939720000000 1.0
C      1  0.6020760000000  0.5330100000000  0.4657210000000 1.0
C      1  0.4594420000000  0.5436770000000  0.5850710000000 1.0
C      1  0.5083170000000  0.5878980000000  0.5504180000000 1.0
C      1  0.5263580000000  0.4833450000000  0.4341300000000 1.0
C      1  0.5723350000000  0.4334510000000  0.5447280000000 1.0
C      1  0.5699690000000  0.5502680000000  0.5828700000000 1.0
C      1  0.5379100000000  0.5294650000000  0.4009790000000 1.0
C      1  0.5433650000000  0.4831900000000  0.6006670000000 1.0
C      1  0.4798380000000  0.5102220000000  0.5412060000000 1.0
C      1  0.4552360000000  0.5671200000000  0.4229480000000 1.0
C      1  0.3914470000000  0.4740290000000  0.5245590000000 1.0
C      1  0.5479030000000  0.4524880000000  0.4935130000000 1.0
C      1  0.5432290000000  0.4948620000000  0.5308910000000 1.0
C      1  0.4804490000000  0.5544780000000  0.5420390000000 1.0
C      1  0.5287080000000  0.6001450000000  0.4874120000000 1.0
C      1  0.5051820000000  0.5690390000000  0.4486270000000 1.0
C      1  0.4717060000000  0.5174340000000  0.5917220000000 1.0
C      1  0.4805470000000  0.5568670000000  0.4561640000000 1.0
C      1  0.4456670000000  0.4918910000000  0.5134850000000 1.0
C      1  0.5100650000000  0.4154240000000  0.4894140000000 1.0
C      1  0.4370300000000  0.5785170000000  0.5336730000000 1.0
C      1  0.5610010000000  0.5833840000000  0.5271520000000 1.0
C      1  0.5180210000000  0.4847430000000  0.3888640000000 1.0
C      1  0.5571360000000  0.5774600000000  0.5543380000000 1.0
C      1  0.5111960000000  0.5285990000000  0.4142440000000 1.0
C      1  0.4570030000000  0.4936740000000  0.5808600000000 1.0
C      1  0.4308460000000  0.5604590000000  0.4374820000000 1.0
C      1  0.4875680000000  0.5277160000000  0.3974420000000 1.0
C      1  0.5431960000000  0.5020580000000  0.3906270000000 1.0
C      1  0.4197890000000  0.5178560000000  0.5752570000000 1.0
C      1  0.4144410000000  0.5130840000000  0.5465720000000 1.0
C      1  0.5208640000000  0.4209100000000  0.5499660000000 1.0
C      1  0.4017060000000  0.5377030000000  0.5346610000000 1.0
C      1  0.5379710000000  0.4953910000000  0.4812400000000 1.0
C      1  0.5925040000000  0.4373120000000  0.4994780000000 1.0
C      1  0.4233240000000  0.5355160000000  0.4965030000000 1.0
C      1  0.5886600000000  0.5387170000000  0.5143100000000 1.0
C      1  0.4949670000000  0.6144470000000  0.5093340000000 1.0
C      1  0.4908870000000  0.4988740000000  0.3877260000000 1.0
C      1  0.5819140000000  0.5220950000000  0.5422890000000 1.0
C      1  0.4732430000000  0.4957620000000  0.5178240000000 1.0
C      1  0.4934440000000  0.4712540000000  0.5965820000000 1.0
C      1  0.5143260000000  0.5733390000000  0.4203930000000 1.0
C      1  0.5341110000000  0.4552670000000  0.5686690000000 1.0
C      1  0.5219670000000  0.4586990000000  0.4007300000000 1.0
C      1  0.5802160000000  0.5520860000000  0.4607460000000 1.0
C      1  0.5279530000000  0.4270330000000  0.5776110000000 1.0
C      1  0.5117440000000  0.5136150000000  0.5054400000000 1.0
C      1  0.5944910000000  0.4781890000000  0.5209010000000 1.0
C      1  0.6032630000000  0.4614380000000  0.4834750000000 1.0
C      1  0.4122970000000  0.4791960000000  0.5459160000000 1.0
C      1  0.6115350000000  0.4859740000000  0.4973460000000 1.0
C      1  0.5570000000000  0.5403280000000  0.4461250000000 1.0
C      1  0.4742470000000  0.3991650000000  0.5422980000000 1.0
C      1  0.5612320000000  0.4478440000000  0.4678280000000 1.0
C      1  0.5776720000000  0.4692450000000  0.4323750000000 1.0
C      1  0.5669740000000  0.4997380000000  0.4058250000000 1.0
C      1  0.4360760000000  0.4645920000000  0.4119330000000 1.0
C      1  0.4586840000000  0.4059520000000  0.4915900000000 1.0
C      1  0.4107140000000  0.5132810000000  0.4491870000000 1.0
C      1  0.5712140000000  0.5718090000000  0.4802300000000 1.0
C      1  0.4741210000000  0.5956150000000  0.4661990000000 1.0
C      1  0.4257800000000  0.4216780000000  0.5451310000000 1.0
C      1  0.4856970000000  0.3981970000000  0.5013580000000 1.0
C      1  0.5058920000000  0.5667550000000  0.5029510000000 1.0
C      1  0.5862990000000  0.4964430000000  0.4266930000000 1.0
C      1  0.5531410000000  0.4566870000000  0.5906570000000 1.0
C      1  0.4314030000000  0.4406340000000  0.5686620000000 1.0
C      1  0.4587570000000  0.5955110000000  0.5454430000000 1.0
C      1  0.5443040000000  0.5927810000000  0.4413680000000 1.0
C      1  0.5777130000000  0.5232780000000  0.5743650000000 1.0
C      1  0.4685340000000  0.5903070000000  0.4368770000000 1.0
C      1  0.4695170000000  0.4741100000000  0.4580190000000 1.0
C      1  0.4483250000000  0.4403260000000  0.4243690000000 1.0
C      1  0.5468560000000  0.5699970000000  0.5789920000000 1.0
C      1  0.5028740000000  0.4243140000000  0.5949350000000 1.0
C      1  0.5543610000000  0.5243950000000  0.5317240000000 1.0
C      1  0.5391920000000  0.5400420000000  0.5512120000000 1.0
C      1  0.4878710000000  0.4667360000000  0.5509450000000 1.0
C      1  0.4618680000000  0.4764530000000  0.5571770000000 1.0
C      1  0.5310070000000  0.5213960000000  0.5733250000000 1.0
C      1  0.5159470000000  0.6072230000000  0.5303880000000 1.0
C      1  0.5170850000000  0.5008600000000  0.5296380000000 1.0
C      1  0.4565670000000  0.4113030000000  0.4630650000000 1.0
C      1  0.4376400000000  0.5070480000000  0.4635990000000 1.0
C      1  0.4763970000000  0.5681290000000  0.5840690000000 1.0
C      1  0.4971940000000  0.4808220000000  0.4299620000000 1.0
C      1  0.4815800000000  0.4795410000000  0.4832180000000 1.0
C      1  0.5100570000000  0.4507930000000  0.4597970000000 1.0
C      1  0.5899230000000  0.4950770000000  0.5460550000000 1.0
C      1  0.4584060000000  0.4785630000000  0.4018970000000 1.0
C      1  0.5145670000000  0.4878220000000  0.6081910000000 1.0
C      1  0.4875160000000  0.4592320000000  0.4419810000000 1.0
C      1  0.4705480000000  0.5342120000000  0.4946030000000 1.0
C      1  0.4593470000000  0.4357400000000  0.5737460000000 1.0
C      1  0.5477730000000  0.4800680000000  0.5026650000000 1.0
C      1  0.5742480000000  0.4491740000000  0.5702920000000 1.0
C      1  0.5857800000000  0.4592620000000  0.4591410000000 1.0
C      1  0.4890500000000  0.5542840000000  0.4829260000000 1.0
C      1  0.5728140000000  0.4794090000000  0.5629890000000 1.0
C      1  0.5785830000000  0.5033860000000  0.4810010000000 1.0
C      1  0.5088710000000  0.5250180000000  0.4433370000000 1.0
C      1  0.5042630000000  0.4358650000000  0.4066230000000 1.0
C      1  0.5550460000000  0.4032050000000  0.4787000000000 1.0
C      1  0.5273700000000  0.5514670000000  0.5139660000000 1.0
C      1  0.4412790000000  0.4345540000000  0.4520620000000 1.0
C      1  0.4804170000000  0.4112440000000  0.4457130000000 1.0
C      1  0.5725270000000  0.4824850000000  0.4990640000000 1.0
C      1  0.5505520000000  0.4419040000000  0.4422690000000 1.0
C      1  0.5255220000000  0.4388400000000  0.5035680000000 1.0
C      1  0.4225050000000  0.5561580000000  0.5467280000000 1.0
C      1  0.4375180000000  0.5194560000000  0.5236350000000 1.0
C      1  0.5056370000000  0.5057150000000  0.5560740000000 1.0
C      1  0.5440660000000  0.5736400000000  0.4184030000000 1.0
C      1  0.4572130000000  0.4461490000000  0.5206770000000 1.0
C      1  0.5476460000000  0.4731330000000  0.5499730000000 1.0
C      1  0.4469920000000  0.5301450000000  0.4774320000000 1.0
C      1  0.5565690000000  0.5030180000000  0.5834560000000 1.0
C      1  0.4014930000000  0.4859020000000  0.4510050000000 1.0
C      1  0.4329690000000  0.5434920000000  0.5717490000000 1.0
C      1  0.4811730000000  0.4853080000000  0.4067170000000 1.0
C      1  0.4917860000000  0.4355860000000  0.4774010000000 1.0
C      1  0.5185720000000  0.5342880000000  0.5972800000000 1.0
C      1  0.4654210000000  0.5328590000000  0.5289450000000 1.0
C      1  0.4640360000000  0.5419990000000  0.4072290000000 1.0
C      1  0.4988290000000  0.5135210000000  0.6035810000000 1.0
C      1  0.4704700000000  0.4295620000000  0.5456890000000 1.0
C      1  0.5761480000000  0.5640890000000  0.5084800000000 1.0
C      1  0.5394300000000  0.6001360000000  0.5151590000000 1.0
C      1  0.5277520000000  0.4016800000000  0.4663110000000 1.0
C      1  0.5159170000000  0.5934000000000  0.4397790000000 1.0
C      1  0.5905560000000  0.4453030000000  0.5257770000000 1.0
C      1  0.5019270000000  0.4801120000000  0.5707020000000 1.0
C      1  0.5287430000000  0.4293760000000  0.4461250000000 1.0
C      1  0.5331000000000  0.5241050000000  0.4879680000000 1.0
C      1  0.4861370000000  0.5051660000000  0.4955780000000 1.0
C      1  0.5694880000000  0.4160260000000  0.5004990000000 1.0
C      1  0.4417590000000  0.4265230000000  0.5053230000000 1.0
C      1  0.4774510000000  0.4329890000000  0.4230080000000 1.0
C      1  0.5290050000000  0.4007280000000  0.5320760000000 1.0
C      1  0.4283220000000  0.4914030000000  0.5850060000000 1.0
C      1  0.4971110000000  0.4410710000000  0.5411020000000 1.0
C      1  0.4173050000000  0.4760960000000  0.4312510000000 1.0
C      1  0.4272230000000  0.5746630000000  0.4633490000000 1.0
C      1  0.5048300000000  0.4537350000000  0.5171260000000 1.0
C      1  0.5178210000000  0.5607330000000  0.5852050000000 1.0
C      1  0.5496970000000  0.5890260000000  0.4700920000000 1.0
C      1  0.4027850000000  0.4766450000000  0.4837300000000 1.0
C      1  0.5225590000000  0.5609780000000  0.5395990000000 1.0
C      1  0.5159470000000  0.4152440000000  0.4229680000000 1.0
C      1  0.4806770000000  0.5266650000000  0.4529300000000 1.0
C      1  0.5554050000000  0.4146170000000  0.5275560000000 1.0
C      1  0.4585450000000  0.5105990000000  0.4432340000000 1.0
C      1  0.5239860000000  0.4792450000000  0.4623360000000 1.0
C      1  0.4149350000000  0.4302890000000  0.5173170000000 1.0
C      1  0.4434150000000  0.4709520000000  0.5346220000000 1.0
C      1  0.4207940000000  0.5334630000000  0.4307140000000 1.0
END
