TITL C-4164237-1827-50 21.5871139375234 125000 -26955.1726465199 0 0 182 (C1) n - 1
REM
REM in /home/nfs/bkarasulu/CARBON/AIRSS/Generating-Clusters/ReaxFF-fromJPCA2015/Units_Real/with-SteepDescent/Only-C1/SD-CG/Try1-3A/FIRE-CG
REM
REM
REM
REM
REM
REM ./C.cell (11c1c37f851c82e70ff6c80c92926a4b)
REM
REM compiler GCC version 9.2.1 20190827 (Red Hat 9.2.1-1)
REM options -cpp -mtune=generic -march=x86-64 -g -O0 -fpre-include=/usr/include/finclude/math-vector-fortran.h
REM seed -738037971 -23726308 -1317344349 1517032105 539658280 1242208375 1929032445 1523972078 -521247358 1226777577 -734420290 2036124962 1568891455 2081620224 49003218 1059489968 -1238899579 1175095101 2099770818 -1409964062 755976288 -665156769 1152671202 527948252 -763318612 -1069082048 -1867185789 694746606 -1796868360 -703325338 -955748986 -1866596994 1374692561
REM
CELL 1.54180   50.00000   50.00000   50.00000   90.00000   90.00000   90.00000
LATT -1
SFAC C  
C      1  0.4858200000000  0.4520730000000  0.4666180000000 1.0
C      1  0.6091490000000  0.4785710000000  0.4839720000000 1.0
C      1  0.5423390000000  0.4194050000000  0.4360190000000 1.0
C      1  0.5138450000000  0.4085280000000  0.4427400000000 1.0
C      1  0.6032760000000  0.5477830000000  0.5148920000000 1.0
C      1  0.4704120000000  0.4912370000000  0.5052070000000 1.0
C      1  0.5323730000000  0.5322280000000  0.5731770000000 1.0
C      1  0.4491230000000  0.5831150000000  0.5639990000000 1.0
C      1  0.4379430000000  0.5575190000000  0.5744660000000 1.0
C      1  0.5095180000000  0.5755100000000  0.4371640000000 1.0
C      1  0.4941640000000  0.4502720000000  0.4935350000000 1.0
C      1  0.5497260000000  0.4142570000000  0.5249290000000 1.0
C      1  0.6093860000000  0.4978580000000  0.4617550000000 1.0
C      1  0.5037290000000  0.5511410000000  0.5395250000000 1.0
C      1  0.4935320000000  0.4534960000000  0.5859180000000 1.0
C      1  0.5086290000000  0.5229780000000  0.3939920000000 1.0
C      1  0.4256740000000  0.5312840000000  0.5030490000000 1.0
C      1  0.5891910000000  0.5166740000000  0.5532710000000 1.0
C      1  0.4769690000000  0.5959300000000  0.4683300000000 1.0
C      1  0.4263630000000  0.5413540000000  0.4309590000000 1.0
C      1  0.4343720000000  0.5716580000000  0.4337610000000 1.0
C      1  0.4536270000000  0.4410590000000  0.4972520000000 1.0
C      1  0.4545890000000  0.5763960000000  0.5363720000000 1.0
C      1  0.4330230000000  0.4483690000000  0.4292440000000 1.0
C      1  0.4387550000000  0.4160570000000  0.4597440000000 1.0
C      1  0.4072540000000  0.5261070000000  0.4794850000000 1.0
C      1  0.5571830000000  0.5241680000000  0.4845900000000 1.0
C      1  0.4031470000000  0.4577360000000  0.5668280000000 1.0
C      1  0.4746400000000  0.5186650000000  0.5019710000000 1.0
C      1  0.4700670000000  0.4600530000000  0.4024680000000 1.0
C      1  0.5539190000000  0.4878850000000  0.5284940000000 1.0
C      1  0.5099750000000  0.5167250000000  0.4402310000000 1.0
C      1  0.4533410000000  0.5359340000000  0.4972770000000 1.0
C      1  0.4235520000000  0.5441490000000  0.5541220000000 1.0
C      1  0.4919430000000  0.4722070000000  0.5121710000000 1.0
C      1  0.5060780000000  0.5597770000000  0.4620220000000 1.0
C      1  0.5582800000000  0.4746520000000  0.4312290000000 1.0
C      1  0.5618610000000  0.4055610000000  0.4830760000000 1.0
C      1  0.4144580000000  0.5582490000000  0.5242790000000 1.0
C      1  0.4790220000000  0.4286340000000  0.4991450000000 1.0
C      1  0.4092740000000  0.4601210000000  0.5382960000000 1.0
C      1  0.5403520000000  0.4994730000000  0.4787750000000 1.0
C      1  0.4386180000000  0.4038680000000  0.4864260000000 1.0
C      1  0.5283040000000  0.4232680000000  0.5662850000000 1.0
C      1  0.5766770000000  0.5168940000000  0.5040330000000 1.0
C      1  0.5641920000000  0.5211060000000  0.4153240000000 1.0
C      1  0.5633460000000  0.5692130000000  0.4967050000000 1.0
C      1  0.4577800000000  0.5425940000000  0.5917180000000 1.0
C      1  0.6007420000000  0.4876210000000  0.4363870000000 1.0
C      1  0.5485800000000  0.5859500000000  0.5115670000000 1.0
C      1  0.4976470000000  0.5269880000000  0.6170270000000 1.0
C      1  0.4443250000000  0.4782550000000  0.4327180000000 1.0
C      1  0.6054070000000  0.5220730000000  0.5012520000000 1.0
C      1  0.5399850000000  0.4817230000000  0.3852920000000 1.0
C      1  0.4974970000000  0.6008410000000  0.5512580000000 1.0
C      1  0.4456180000000  0.4424750000000  0.5470960000000 1.0
C      1  0.5233270000000  0.5980940000000  0.5016430000000 1.0
C      1  0.5896260000000  0.5596780000000  0.4914970000000 1.0
C      1  0.4850320000000  0.5302680000000  0.4335400000000 1.0
C      1  0.3944640000000  0.5003430000000  0.5171930000000 1.0
C      1  0.5845000000000  0.5496770000000  0.4640540000000 1.0
C      1  0.4654320000000  0.5296240000000  0.4535620000000 1.0
C      1  0.4623080000000  0.4181450000000  0.4405200000000 1.0
C      1  0.4777140000000  0.6021910000000  0.5005050000000 1.0
C      1  0.4866380000000  0.4080270000000  0.4526340000000 1.0
C      1  0.5446660000000  0.5491310000000  0.4942320000000 1.0
C      1  0.4607770000000  0.3928000000000  0.5016950000000 1.0
C      1  0.5176170000000  0.5892890000000  0.5689530000000 1.0
C      1  0.4071690000000  0.4468140000000  0.5124520000000 1.0
C      1  0.5980630000000  0.5263580000000  0.4538400000000 1.0
C      1  0.4680390000000  0.5227230000000  0.6109030000000 1.0
C      1  0.5243010000000  0.5324550000000  0.5061200000000 1.0
C      1  0.5259870000000  0.5978440000000  0.4714160000000 1.0
C      1  0.5676100000000  0.5130260000000  0.5319900000000 1.0
C      1  0.5400350000000  0.4852730000000  0.5036440000000 1.0
C      1  0.3929720000000  0.4832150000000  0.4667260000000 1.0
C      1  0.5848610000000  0.4627280000000  0.4383210000000 1.0
C      1  0.4087770000000  0.4584040000000  0.4727880000000 1.0
C      1  0.4523270000000  0.5958450000000  0.5143210000000 1.0
C      1  0.4534030000000  0.4910270000000  0.5545250000000 1.0
C      1  0.4565200000000  0.4371460000000  0.4172510000000 1.0
C      1  0.3903850000000  0.5046480000000  0.4879670000000 1.0
C      1  0.5516130000000  0.4841970000000  0.4566620000000 1.0
C      1  0.5487190000000  0.4859700000000  0.5988750000000 1.0
C      1  0.5241970000000  0.5698380000000  0.5489340000000 1.0
C      1  0.4339900000000  0.5751210000000  0.4761480000000 1.0
C      1  0.5460900000000  0.5331010000000  0.5468310000000 1.0
C      1  0.5045500000000  0.5257750000000  0.5770420000000 1.0
C      1  0.5953200000000  0.4521760000000  0.4854950000000 1.0
C      1  0.5842300000000  0.4769200000000  0.5274310000000 1.0
C      1  0.4232980000000  0.5078710000000  0.5210560000000 1.0
C      1  0.5133020000000  0.5743360000000  0.5947410000000 1.0
C      1  0.5128060000000  0.5335730000000  0.4632310000000 1.0
C      1  0.5639310000000  0.4212380000000  0.4581980000000 1.0
C      1  0.5671900000000  0.4677280000000  0.5656000000000 1.0
C      1  0.4638960000000  0.4880710000000  0.3909020000000 1.0
C      1  0.5028500000000  0.5992550000000  0.4531230000000 1.0
C      1  0.5499020000000  0.4418090000000  0.5113950000000 1.0
C      1  0.4720020000000  0.5024470000000  0.4624740000000 1.0
C      1  0.4996790000000  0.4948510000000  0.4763800000000 1.0
C      1  0.5764420000000  0.4543990000000  0.5081480000000 1.0
C      1  0.3973900000000  0.4995060000000  0.4426980000000 1.0
C      1  0.5395600000000  0.4557150000000  0.3982930000000 1.0
C      1  0.4758750000000  0.5942220000000  0.5696290000000 1.0
C      1  0.5104890000000  0.4994870000000  0.5465330000000 1.0
C      1  0.4591240000000  0.5526370000000  0.4753030000000 1.0
C      1  0.5404980000000  0.4374160000000  0.4159670000000 1.0
C      1  0.5189090000000  0.5005550000000  0.3868440000000 1.0
C      1  0.4749050000000  0.4336740000000  0.5741780000000 1.0
C      1  0.4391730000000  0.4833530000000  0.5106780000000 1.0
C      1  0.4843220000000  0.5469200000000  0.5808730000000 1.0
C      1  0.5608050000000  0.5597600000000  0.4475390000000 1.0
C      1  0.4831840000000  0.5687710000000  0.4772840000000 1.0
C      1  0.4624550000000  0.4017700000000  0.5311990000000 1.0
C      1  0.4703610000000  0.5271570000000  0.5440010000000 1.0
C      1  0.5666300000000  0.5558080000000  0.5472510000000 1.0
C      1  0.5216020000000  0.3982570000000  0.5252090000000 1.0
C      1  0.3903530000000  0.5101550000000  0.5451800000000 1.0
C      1  0.4748820000000  0.5525730000000  0.5354440000000 1.0
C      1  0.5043860000000  0.5222740000000  0.4887080000000 1.0
C      1  0.4851600000000  0.5752590000000  0.5908580000000 1.0
C      1  0.6113130000000  0.4813690000000  0.5355760000000 1.0
C      1  0.5210530000000  0.4449330000000  0.5834140000000 1.0
C      1  0.5222670000000  0.4134170000000  0.4703840000000 1.0
C      1  0.4281850000000  0.4242620000000  0.5073160000000 1.0
C      1  0.4751630000000  0.4728520000000  0.4273390000000 1.0
C      1  0.5119380000000  0.4887900000000  0.4506340000000 1.0
C      1  0.4296660000000  0.5813600000000  0.5038400000000 1.0
C      1  0.4584250000000  0.4570400000000  0.4738100000000 1.0
C      1  0.5549090000000  0.4232450000000  0.5544180000000 1.0
C      1  0.4796970000000  0.5141740000000  0.3875440000000 1.0
C      1  0.5901380000000  0.5151230000000  0.4283920000000 1.0
C      1  0.5615840000000  0.5101670000000  0.5958830000000 1.0
C      1  0.5291770000000  0.4420000000000  0.4770380000000 1.0
C      1  0.4791680000000  0.5038290000000  0.5501490000000 1.0
C      1  0.4210880000000  0.4641110000000  0.4966730000000 1.0
C      1  0.5836090000000  0.4428280000000  0.4601010000000 1.0
C      1  0.5072790000000  0.4730940000000  0.5362140000000 1.0
C      1  0.5774350000000  0.4991990000000  0.5729380000000 1.0
C      1  0.4210480000000  0.4386400000000  0.4536710000000 1.0
C      1  0.4384970000000  0.4928640000000  0.5796210000000 1.0
C      1  0.6159340000000  0.4945370000000  0.5071480000000 1.0
C      1  0.4508760000000  0.4828520000000  0.4616180000000 1.0
C      1  0.4964390000000  0.4652480000000  0.4440180000000 1.0
C      1  0.4862840000000  0.4807670000000  0.5965430000000 1.0
C      1  0.5323050000000  0.4801320000000  0.5477530000000 1.0
C      1  0.4404700000000  0.4700830000000  0.5374730000000 1.0
C      1  0.4559770000000  0.5756720000000  0.4178270000000 1.0
C      1  0.5222850000000  0.5457300000000  0.4117200000000 1.0
C      1  0.5001100000000  0.6016810000000  0.5186580000000 1.0
C      1  0.4468480000000  0.4422690000000  0.5760870000000 1.0
C      1  0.5445020000000  0.5362420000000  0.5988570000000 1.0
C      1  0.4397760000000  0.4181910000000  0.5335450000000 1.0
C      1  0.5745590000000  0.4433110000000  0.5509360000000 1.0
C      1  0.5355120000000  0.3911270000000  0.4851540000000 1.0
C      1  0.5750910000000  0.4102810000000  0.5087760000000 1.0
C      1  0.4855400000000  0.4015130000000  0.4866110000000 1.0
C      1  0.5927580000000  0.5443400000000  0.5423130000000 1.0
C      1  0.3884450000000  0.5621330000000  0.5238260000000 1.0
C      1  0.5504900000000  0.5776120000000  0.5391190000000 1.0
C      1  0.4618090000000  0.5363970000000  0.3927650000000 1.0
C      1  0.5109980000000  0.3892320000000  0.5007900000000 1.0
C      1  0.5463720000000  0.4618660000000  0.5865110000000 1.0
C      1  0.5878450000000  0.4334020000000  0.5214470000000 1.0
C      1  0.4286650000000  0.4647390000000  0.5824000000000 1.0
C      1  0.4804910000000  0.4133590000000  0.5517670000000 1.0
C      1  0.4190100000000  0.5157600000000  0.5539530000000 1.0
C      1  0.5318850000000  0.4591130000000  0.5015900000000 1.0
C      1  0.4973890000000  0.5575180000000  0.4181080000000 1.0
C      1  0.4469090000000  0.5889020000000  0.4546270000000 1.0
C      1  0.5191800000000  0.5478370000000  0.6087000000000 1.0
C      1  0.4389290000000  0.5264150000000  0.4094450000000 1.0
C      1  0.4618470000000  0.4961110000000  0.5994040000000 1.0
C      1  0.4721930000000  0.5632160000000  0.3996820000000 1.0
C      1  0.5085630000000  0.4082120000000  0.5492600000000 1.0
C      1  0.5044080000000  0.5046140000000  0.5990190000000 1.0
C      1  0.4428430000000  0.4975640000000  0.4080140000000 1.0
C      1  0.5205540000000  0.5282910000000  0.5328310000000 1.0
C      1  0.5555100000000  0.4940620000000  0.4071360000000 1.0
C      1  0.5478590000000  0.5436510000000  0.4240850000000 1.0
C      1  0.4104020000000  0.5263830000000  0.4500890000000 1.0
C      1  0.5452850000000  0.5799020000000  0.4593740000000 1.0
END
