TITL C-4164246-3563-352 90.5177863248097 125000 -19149.8068215609 0 0 129 (C1) n - 1
REM
REM in /home/nfs/bkarasulu/CARBON/AIRSS/Generating-Clusters/ReaxFF-fromJPCA2015/Units_Real/with-SteepDescent/Only-C1/SD-CG/Try1-3A/FIRE-CG
REM
REM
REM
REM
REM
REM ./C.cell (11c1c37f851c82e70ff6c80c92926a4b)
REM
REM compiler GCC version 9.2.1 20190827 (Red Hat 9.2.1-1)
REM options -cpp -mtune=generic -march=x86-64 -g -O0 -fpre-include=/usr/include/finclude/math-vector-fortran.h
REM seed -613662340 975229283 -559724716 1769979103 1105851769 1232159566 -1999492536 -333788023 -1996176453 1723266899 2114316351 -1386620192 -257280413 526157922 -899870945 46245738 -1760264722 920457988 360758082 -284422732 1904712790 1599645888 -1560028245 -207412418 455105238 -2049862014 634975818 815496021 -2063174605 -182182997 1365667082 -925124708 -1798469427
REM
CELL 1.54180   50.00000   50.00000   50.00000   90.00000   90.00000   90.00000
LATT -1
SFAC C  
C      1  0.4204730000000  0.4747480000000  0.5071260000000 1.0
C      1  0.4255270000000  0.4877890000000  0.5528420000000 1.0
C      1  0.5107710000000  0.5713010000000  0.5693160000000 1.0
C      1  0.4363520000000  0.5053420000000  0.4692800000000 1.0
C      1  0.5555290000000  0.5356750000000  0.4872490000000 1.0
C      1  0.4916110000000  0.4846470000000  0.5549720000000 1.0
C      1  0.4949330000000  0.5847690000000  0.5333170000000 1.0
C      1  0.5574930000000  0.5246830000000  0.5125660000000 1.0
C      1  0.5402140000000  0.5618320000000  0.4962890000000 1.0
C      1  0.5700660000000  0.4454200000000  0.5523500000000 1.0
C      1  0.4646460000000  0.4690770000000  0.4596360000000 1.0
C      1  0.4162040000000  0.5486840000000  0.5267270000000 1.0
C      1  0.5218810000000  0.5783450000000  0.5424560000000 1.0
C      1  0.4704370000000  0.5775200000000  0.4352350000000 1.0
C      1  0.4225830000000  0.4480730000000  0.4667060000000 1.0
C      1  0.4876000000000  0.5515130000000  0.4783790000000 1.0
C      1  0.5179060000000  0.4745180000000  0.5615060000000 1.0
C      1  0.5321330000000  0.4829160000000  0.5074520000000 1.0
C      1  0.5732980000000  0.5062000000000  0.4458300000000 1.0
C      1  0.5436340000000  0.4887370000000  0.4056530000000 1.0
C      1  0.4444470000000  0.5687100000000  0.4649170000000 1.0
C      1  0.4523950000000  0.5767970000000  0.5126260000000 1.0
C      1  0.5223050000000  0.5538610000000  0.5898760000000 1.0
C      1  0.4963430000000  0.4619030000000  0.4087770000000 1.0
C      1  0.5052910000000  0.4262820000000  0.5470120000000 1.0
C      1  0.5122920000000  0.5515750000000  0.4313200000000 1.0
C      1  0.4940210000000  0.5789080000000  0.4837540000000 1.0
C      1  0.4329970000000  0.4645790000000  0.4200300000000 1.0
C      1  0.4085670000000  0.4938640000000  0.5305620000000 1.0
C      1  0.5871250000000  0.5382290000000  0.4789890000000 1.0
C      1  0.4421120000000  0.4323030000000  0.4801260000000 1.0
C      1  0.5370780000000  0.4436920000000  0.4197960000000 1.0
C      1  0.4883770000000  0.4904160000000  0.6157230000000 1.0
C      1  0.4642810000000  0.4895520000000  0.5997340000000 1.0
C      1  0.4791670000000  0.4666400000000  0.5100480000000 1.0
C      1  0.4758690000000  0.4263410000000  0.5489080000000 1.0
C      1  0.4979040000000  0.5800570000000  0.4355760000000 1.0
C      1  0.4106430000000  0.5214070000000  0.5304060000000 1.0
C      1  0.5770180000000  0.5184980000000  0.5516560000000 1.0
C      1  0.5223870000000  0.5287510000000  0.5296130000000 1.0
C      1  0.4645150000000  0.4308720000000  0.4361940000000 1.0
C      1  0.5747010000000  0.4700460000000  0.4873290000000 1.0
C      1  0.4867150000000  0.5118340000000  0.5552280000000 1.0
C      1  0.4690310000000  0.4393860000000  0.4641080000000 1.0
C      1  0.4446650000000  0.4295410000000  0.5090150000000 1.0
C      1  0.4693650000000  0.4598200000000  0.5900700000000 1.0
C      1  0.5909410000000  0.5101960000000  0.4739960000000 1.0
C      1  0.4823270000000  0.5122670000000  0.4020780000000 1.0
C      1  0.4826360000000  0.5134990000000  0.4523030000000 1.0
C      1  0.5260850000000  0.5088660000000  0.4179050000000 1.0
C      1  0.5413210000000  0.5136310000000  0.4712700000000 1.0
C      1  0.5163130000000  0.4272980000000  0.4327400000000 1.0
C      1  0.4408200000000  0.5638820000000  0.5350240000000 1.0
C      1  0.4900030000000  0.4363320000000  0.4230270000000 1.0
C      1  0.5614670000000  0.4550620000000  0.4328230000000 1.0
C      1  0.4838870000000  0.5730190000000  0.5572280000000 1.0
C      1  0.5653990000000  0.4836320000000  0.4298120000000 1.0
C      1  0.4407630000000  0.5608050000000  0.4902200000000 1.0
C      1  0.5742110000000  0.5389640000000  0.5308070000000 1.0
C      1  0.4578790000000  0.5290760000000  0.4031330000000 1.0
C      1  0.4422910000000  0.4611190000000  0.5478840000000 1.0
C      1  0.4415190000000  0.5106930000000  0.5605280000000 1.0
C      1  0.5452480000000  0.5870860000000  0.4841760000000 1.0
C      1  0.5780950000000  0.4420760000000  0.4982610000000 1.0
C      1  0.5924490000000  0.4916200000000  0.4927160000000 1.0
C      1  0.4070180000000  0.4992770000000  0.4698930000000 1.0
C      1  0.5700120000000  0.4368420000000  0.4538140000000 1.0
C      1  0.5246790000000  0.4640760000000  0.4046010000000 1.0
C      1  0.5329100000000  0.5147160000000  0.3937100000000 1.0
C      1  0.5402520000000  0.5535880000000  0.4415640000000 1.0
C      1  0.4636150000000  0.5226880000000  0.5428660000000 1.0
C      1  0.4955060000000  0.4970280000000  0.4731330000000 1.0
C      1  0.4097450000000  0.4710210000000  0.4795070000000 1.0
C      1  0.5145430000000  0.4098510000000  0.5247790000000 1.0
C      1  0.4310090000000  0.4511620000000  0.5219680000000 1.0
C      1  0.5918110000000  0.5049350000000  0.5152720000000 1.0
C      1  0.4930190000000  0.4592300000000  0.6069430000000 1.0
C      1  0.4625970000000  0.5412850000000  0.4909470000000 1.0
C      1  0.5108360000000  0.5889490000000  0.4610660000000 1.0
C      1  0.4362390000000  0.4415200000000  0.4385730000000 1.0
C      1  0.4818070000000  0.5441500000000  0.5989360000000 1.0
C      1  0.5214020000000  0.4481650000000  0.5518230000000 1.0
C      1  0.4501250000000  0.5124910000000  0.5883120000000 1.0
C      1  0.4583390000000  0.5407860000000  0.5852780000000 1.0
C      1  0.5908340000000  0.4954320000000  0.5404420000000 1.0
C      1  0.4971130000000  0.5386100000000  0.4541990000000 1.0
C      1  0.5878770000000  0.4682440000000  0.5534180000000 1.0
C      1  0.4604020000000  0.5536400000000  0.5550170000000 1.0
C      1  0.5140270000000  0.4733050000000  0.4700090000000 1.0
C      1  0.4446640000000  0.5364260000000  0.4288520000000 1.0
C      1  0.4599890000000  0.4435870000000  0.5665150000000 1.0
C      1  0.4643600000000  0.5176190000000  0.5091280000000 1.0
C      1  0.4033570000000  0.5240560000000  0.4836830000000 1.0
C      1  0.4718220000000  0.4709840000000  0.5377010000000 1.0
C      1  0.5432650000000  0.4855690000000  0.5713860000000 1.0
C      1  0.5502670000000  0.5256020000000  0.4466450000000 1.0
C      1  0.5659770000000  0.4666160000000  0.5722770000000 1.0
C      1  0.5308180000000  0.5298850000000  0.5750140000000 1.0
C      1  0.5034820000000  0.4832090000000  0.5138230000000 1.0
C      1  0.5539930000000  0.5126330000000  0.5704080000000 1.0
C      1  0.5443830000000  0.4369390000000  0.5410320000000 1.0
C      1  0.4447470000000  0.5660850000000  0.4373290000000 1.0
C      1  0.5589780000000  0.5646840000000  0.5323230000000 1.0
C      1  0.5859770000000  0.4487990000000  0.4728840000000 1.0
C      1  0.5048540000000  0.5138520000000  0.6207240000000 1.0
C      1  0.5235870000000  0.4154290000000  0.4588470000000 1.0
C      1  0.4116380000000  0.5474770000000  0.4972800000000 1.0
C      1  0.5390790000000  0.5074350000000  0.5214690000000 1.0
C      1  0.5008490000000  0.4481610000000  0.4747220000000 1.0
C      1  0.5036360000000  0.4202030000000  0.4805980000000 1.0
C      1  0.5415730000000  0.4177850000000  0.5196220000000 1.0
C      1  0.4629990000000  0.4762790000000  0.4869660000000 1.0
C      1  0.5096190000000  0.5264260000000  0.5548440000000 1.0
C      1  0.5092540000000  0.5282910000000  0.4053570000000 1.0
C      1  0.4798660000000  0.5856210000000  0.5088610000000 1.0
C      1  0.5315880000000  0.5568350000000  0.5265000000000 1.0
C      1  0.4535480000000  0.5181480000000  0.4498150000000 1.0
C      1  0.5380270000000  0.5781750000000  0.4570490000000 1.0
C      1  0.5055720000000  0.5431920000000  0.6127560000000 1.0
C      1  0.5509550000000  0.4199170000000  0.4680770000000 1.0
C      1  0.4575210000000  0.4784610000000  0.4321700000000 1.0
C      1  0.4785660000000  0.4849150000000  0.4116640000000 1.0
C      1  0.4455720000000  0.4960680000000  0.4947740000000 1.0
C      1  0.4911890000000  0.5061610000000  0.5002790000000 1.0
C      1  0.5611320000000  0.5793050000000  0.5073750000000 1.0
C      1  0.4693780000000  0.4183400000000  0.5214470000000 1.0
C      1  0.5413140000000  0.4842320000000  0.4790850000000 1.0
C      1  0.4925930000000  0.4091180000000  0.5062500000000 1.0
C      1  0.5577390000000  0.4217160000000  0.4961910000000 1.0
END
