TITL C-4164238-4211-299 -5.45406084740074 125000 -27754.9010141619 0 0 186 (C1) n - 1
REM
REM in /home/nfs/bkarasulu/CARBON/AIRSS/Generating-Clusters/ReaxFF-fromJPCA2015/Units_Real/with-SteepDescent/Only-C1/SD-CG/Try1-3A/FIRE-CG
REM
REM
REM
REM
REM
REM ./C.cell (11c1c37f851c82e70ff6c80c92926a4b)
REM
REM compiler GCC version 9.2.1 20190827 (Red Hat 9.2.1-1)
REM options -cpp -mtune=generic -march=x86-64 -g -O0 -fpre-include=/usr/include/finclude/math-vector-fortran.h
REM seed -205001004 1189055213 -1417987393 2100136250 -191618521 1955555836 -1790173786 71911247 -66649414 -163070453 -1448717352 -260030234 -559184394 420684590 351268883 -2103039460 344021431 354809423 752546127 631544931 998396644 1066652473 -1301773637 2144189638 958679147 -645583791 1638750350 -63531021 210668179 938520154 -1311347050 -2038665599 -616494845
REM
CELL 1.54180   50.00000   50.00000   50.00000   90.00000   90.00000   90.00000
LATT -1
SFAC C  
C      1  0.5236580000000  0.3968360000000  0.5086720000000 1.0
C      1  0.4421590000000  0.5288000000000  0.5238100000000 1.0
C      1  0.5133730000000  0.4258370000000  0.5024000000000 1.0
C      1  0.5394700000000  0.5441380000000  0.5038860000000 1.0
C      1  0.5646730000000  0.5934870000000  0.4698180000000 1.0
C      1  0.4591250000000  0.4671460000000  0.4145760000000 1.0
C      1  0.4215100000000  0.4698290000000  0.4365850000000 1.0
C      1  0.5201930000000  0.4024830000000  0.5587670000000 1.0
C      1  0.5182680000000  0.5103270000000  0.5707610000000 1.0
C      1  0.5337950000000  0.4974900000000  0.5964910000000 1.0
C      1  0.4984170000000  0.4018770000000  0.4664230000000 1.0
C      1  0.3994520000000  0.4642570000000  0.5213700000000 1.0
C      1  0.5764690000000  0.4751570000000  0.4252790000000 1.0
C      1  0.5631550000000  0.4167030000000  0.4327270000000 1.0
C      1  0.5330990000000  0.3707850000000  0.4664470000000 1.0
C      1  0.4220710000000  0.4993280000000  0.4354900000000 1.0
C      1  0.4509000000000  0.4194540000000  0.4576210000000 1.0
C      1  0.4521000000000  0.5389810000000  0.4560210000000 1.0
C      1  0.4019960000000  0.5054980000000  0.4911010000000 1.0
C      1  0.5586810000000  0.5779470000000  0.5478000000000 1.0
C      1  0.5255450000000  0.5483270000000  0.4246930000000 1.0
C      1  0.5065080000000  0.5668930000000  0.5643680000000 1.0
C      1  0.5561420000000  0.4594900000000  0.4109690000000 1.0
C      1  0.4820490000000  0.5705870000000  0.5451710000000 1.0
C      1  0.4187030000000  0.4844940000000  0.5289110000000 1.0
C      1  0.6001820000000  0.5661910000000  0.4885710000000 1.0
C      1  0.4397080000000  0.4052940000000  0.5027230000000 1.0
C      1  0.4629310000000  0.4716670000000  0.5492740000000 1.0
C      1  0.4762440000000  0.5487160000000  0.5280100000000 1.0
C      1  0.4852840000000  0.4336810000000  0.4160460000000 1.0
C      1  0.5017830000000  0.4920400000000  0.4989330000000 1.0
C      1  0.4710510000000  0.5301650000000  0.5642310000000 1.0
C      1  0.5946920000000  0.4595840000000  0.4440360000000 1.0
C      1  0.5493640000000  0.5061280000000  0.4748810000000 1.0
C      1  0.4698600000000  0.4025540000000  0.4732620000000 1.0
C      1  0.5026380000000  0.6213350000000  0.4934490000000 1.0
C      1  0.6049750000000  0.4870410000000  0.5630520000000 1.0
C      1  0.5605310000000  0.5110270000000  0.5900360000000 1.0
C      1  0.5386110000000  0.5459790000000  0.5991070000000 1.0
C      1  0.4704100000000  0.4544610000000  0.5723200000000 1.0
C      1  0.4548950000000  0.5058810000000  0.4891310000000 1.0
C      1  0.5284040000000  0.6096890000000  0.4865690000000 1.0
C      1  0.5882450000000  0.5689830000000  0.5157600000000 1.0
C      1  0.4414430000000  0.5456320000000  0.4175910000000 1.0
C      1  0.4204360000000  0.5716300000000  0.4662190000000 1.0
C      1  0.3965450000000  0.4917670000000  0.4665830000000 1.0
C      1  0.4396120000000  0.4510220000000  0.4226070000000 1.0
C      1  0.6065590000000  0.4610910000000  0.5173840000000 1.0
C      1  0.5422730000000  0.4341820000000  0.4191480000000 1.0
C      1  0.4069990000000  0.5345810000000  0.5586690000000 1.0
C      1  0.5064440000000  0.3942860000000  0.5344700000000 1.0
C      1  0.5116470000000  0.4806300000000  0.4484240000000 1.0
C      1  0.5191350000000  0.5424810000000  0.4600700000000 1.0
C      1  0.5206630000000  0.5914570000000  0.4620820000000 1.0
C      1  0.5058340000000  0.4994720000000  0.6145570000000 1.0
C      1  0.4584450000000  0.4311540000000  0.4318840000000 1.0
C      1  0.4731110000000  0.5822440000000  0.4660300000000 1.0
C      1  0.4828430000000  0.6215240000000  0.4709550000000 1.0
C      1  0.5021900000000  0.4510650000000  0.4533350000000 1.0
C      1  0.3819890000000  0.5182660000000  0.4750670000000 1.0
C      1  0.4772580000000  0.5055780000000  0.4308850000000 1.0
C      1  0.4952760000000  0.4425250000000  0.5835740000000 1.0
C      1  0.4805470000000  0.5813770000000  0.4250380000000 1.0
C      1  0.5390270000000  0.5331780000000  0.4776660000000 1.0
C      1  0.4901300000000  0.5983850000000  0.4483250000000 1.0
C      1  0.4535400000000  0.4804130000000  0.4933770000000 1.0
C      1  0.4284970000000  0.5546970000000  0.5576240000000 1.0
C      1  0.4075200000000  0.4357490000000  0.5232830000000 1.0
C      1  0.5547060000000  0.4023230000000  0.5088840000000 1.0
C      1  0.5195270000000  0.5873120000000  0.5261230000000 1.0
C      1  0.5305110000000  0.5826800000000  0.5526800000000 1.0
C      1  0.5496330000000  0.4857280000000  0.5278700000000 1.0
C      1  0.5026020000000  0.4138540000000  0.5797130000000 1.0
C      1  0.4383090000000  0.4842590000000  0.5504070000000 1.0
C      1  0.4640290000000  0.3935470000000  0.5017180000000 1.0
C      1  0.4943740000000  0.4689060000000  0.5156660000000 1.0
C      1  0.4608510000000  0.4700200000000  0.4668710000000 1.0
C      1  0.5134560000000  0.4294410000000  0.4190880000000 1.0
C      1  0.5526740000000  0.3710200000000  0.4538750000000 1.0
C      1  0.4521110000000  0.4318150000000  0.5685940000000 1.0
C      1  0.4654660000000  0.4655100000000  0.5211300000000 1.0
C      1  0.4776670000000  0.3974020000000  0.5297210000000 1.0
C      1  0.5736610000000  0.5558760000000  0.5599670000000 1.0
C      1  0.5492850000000  0.5058690000000  0.4064220000000 1.0
C      1  0.4331710000000  0.6274870000000  0.5234250000000 1.0
C      1  0.4291120000000  0.4499330000000  0.5718440000000 1.0
C      1  0.4611480000000  0.6251730000000  0.5232580000000 1.0
C      1  0.4334360000000  0.5560820000000  0.5285620000000 1.0
C      1  0.4991670000000  0.5086080000000  0.5223890000000 1.0
C      1  0.4933820000000  0.5223350000000  0.6205350000000 1.0
C      1  0.4886320000000  0.5716330000000  0.4886260000000 1.0
C      1  0.5882200000000  0.4307950000000  0.4866470000000 1.0
C      1  0.4967730000000  0.5250870000000  0.4628490000000 1.0
C      1  0.5675440000000  0.5880630000000  0.5205010000000 1.0
C      1  0.4525470000000  0.4999450000000  0.5946200000000 1.0
C      1  0.4891120000000  0.5386760000000  0.4057540000000 1.0
C      1  0.4165460000000  0.4379410000000  0.5497480000000 1.0
C      1  0.4910540000000  0.5883660000000  0.5248810000000 1.0
C      1  0.4547390000000  0.5530080000000  0.5705150000000 1.0
C      1  0.4576110000000  0.6175790000000  0.4817680000000 1.0
C      1  0.5686040000000  0.4982230000000  0.5466800000000 1.0
C      1  0.4805320000000  0.4575100000000  0.3990860000000 1.0
C      1  0.4729050000000  0.5505110000000  0.5007520000000 1.0
C      1  0.5035810000000  0.4995720000000  0.4201290000000 1.0
C      1  0.5515150000000  0.4566210000000  0.5353670000000 1.0
C      1  0.5746500000000  0.4892160000000  0.5750100000000 1.0
C      1  0.5003150000000  0.5631810000000  0.4142140000000 1.0
C      1  0.5469140000000  0.5881980000000  0.4470090000000 1.0
C      1  0.5626950000000  0.4596420000000  0.5854900000000 1.0
C      1  0.4073690000000  0.5478600000000  0.4615980000000 1.0
C      1  0.4072160000000  0.5055770000000  0.5710150000000 1.0
C      1  0.4671490000000  0.4358510000000  0.5194890000000 1.0
C      1  0.5749320000000  0.4392940000000  0.5351370000000 1.0
C      1  0.4119850000000  0.5697660000000  0.5129130000000 1.0
C      1  0.4762150000000  0.4980400000000  0.6125530000000 1.0
C      1  0.5000700000000  0.4977670000000  0.4708900000000 1.0
C      1  0.5143380000000  0.5654570000000  0.4752140000000 1.0
C      1  0.4259040000000  0.4299290000000  0.4703040000000 1.0
C      1  0.4968800000000  0.4802070000000  0.3976190000000 1.0
C      1  0.5411550000000  0.4888950000000  0.4533580000000 1.0
C      1  0.4170130000000  0.5104100000000  0.5181770000000 1.0
C      1  0.4629220000000  0.4823120000000  0.4394420000000 1.0
C      1  0.5630770000000  0.3974980000000  0.4567230000000 1.0
C      1  0.4185570000000  0.4212310000000  0.4980690000000 1.0
C      1  0.5679840000000  0.5242230000000  0.5357450000000 1.0
C      1  0.4563270000000  0.5327910000000  0.4846450000000 1.0
C      1  0.5263780000000  0.5065870000000  0.5296760000000 1.0
C      1  0.4571770000000  0.5280910000000  0.5895270000000 1.0
C      1  0.6080160000000  0.5217970000000  0.5207670000000 1.0
C      1  0.4700280000000  0.5221180000000  0.5356660000000 1.0
C      1  0.5583460000000  0.4343640000000  0.5744800000000 1.0
C      1  0.5892550000000  0.5446920000000  0.5356950000000 1.0
C      1  0.5295010000000  0.5653110000000  0.5137190000000 1.0
C      1  0.3864800000000  0.4637480000000  0.4710440000000 1.0
C      1  0.4305520000000  0.4844410000000  0.5789150000000 1.0
C      1  0.5838800000000  0.5244690000000  0.4427480000000 1.0
C      1  0.3946590000000  0.5296660000000  0.5325920000000 1.0
C      1  0.5847340000000  0.5722390000000  0.4638680000000 1.0
C      1  0.5950560000000  0.4784970000000  0.4940840000000 1.0
C      1  0.5033380000000  0.5700490000000  0.5968720000000 1.0
C      1  0.5499770000000  0.4118330000000  0.5596070000000 1.0
C      1  0.6038800000000  0.4651140000000  0.5449280000000 1.0
C      1  0.5617010000000  0.5394440000000  0.5832960000000 1.0
C      1  0.5097780000000  0.4594760000000  0.5365220000000 1.0
C      1  0.5435960000000  0.4788250000000  0.3932830000000 1.0
C      1  0.5156260000000  0.4261030000000  0.4598660000000 1.0
C      1  0.5124780000000  0.5363920000000  0.5653520000000 1.0
C      1  0.4765400000000  0.5309790000000  0.4434040000000 1.0
C      1  0.5608300000000  0.4832970000000  0.4955330000000 1.0
C      1  0.4877730000000  0.6160540000000  0.5185260000000 1.0
C      1  0.5955940000000  0.5176830000000  0.4687510000000 1.0
C      1  0.5647700000000  0.4126240000000  0.5340760000000 1.0
C      1  0.4609270000000  0.5327830000000  0.3984690000000 1.0
C      1  0.5467850000000  0.4604160000000  0.4891490000000 1.0
C      1  0.5423300000000  0.5297580000000  0.5274260000000 1.0
C      1  0.4246850000000  0.5284560000000  0.4393730000000 1.0
C      1  0.5824790000000  0.4351900000000  0.4388300000000 1.0
C      1  0.5326460000000  0.4374220000000  0.4833930000000 1.0
C      1  0.4492870000000  0.5691950000000  0.4545720000000 1.0
C      1  0.6045110000000  0.5080640000000  0.4941290000000 1.0
C      1  0.4181910000000  0.5874500000000  0.4902020000000 1.0
C      1  0.6102300000000  0.5053050000000  0.5420560000000 1.0
C      1  0.5544050000000  0.6008730000000  0.4967860000000 1.0
C      1  0.5755210000000  0.5528260000000  0.4427660000000 1.0
C      1  0.3841290000000  0.5007440000000  0.5575270000000 1.0
C      1  0.5940220000000  0.4345900000000  0.5150740000000 1.0
C      1  0.5288330000000  0.4502690000000  0.5516250000000 1.0
C      1  0.5185910000000  0.4589240000000  0.5762040000000 1.0
C      1  0.4859610000000  0.4330950000000  0.4973790000000 1.0
C      1  0.5251210000000  0.5204420000000  0.4126420000000 1.0
C      1  0.3785680000000  0.4628290000000  0.4992680000000 1.0
C      1  0.4109320000000  0.4523460000000  0.4587900000000 1.0
C      1  0.5950810000000  0.4562300000000  0.4735150000000 1.0
C      1  0.5374580000000  0.4694290000000  0.5935060000000 1.0
C      1  0.4812000000000  0.4498400000000  0.4731180000000 1.0
C      1  0.5512960000000  0.5639450000000  0.4318810000000 1.0
C      1  0.5685910000000  0.4088510000000  0.4845880000000 1.0
C      1  0.4628070000000  0.4194920000000  0.5420970000000 1.0
C      1  0.5174640000000  0.4705720000000  0.3888760000000 1.0
C      1  0.5122140000000  0.5472950000000  0.6115930000000 1.0
C      1  0.5729320000000  0.5040730000000  0.4234180000000 1.0
C      1  0.3925050000000  0.5488850000000  0.5104610000000 1.0
C      1  0.3892770000000  0.5432520000000  0.4816990000000 1.0
C      1  0.4534420000000  0.5707740000000  0.4246960000000 1.0
C      1  0.5131160000000  0.3826930000000  0.4823580000000 1.0
C      1  0.4333800000000  0.6127940000000  0.4940610000000 1.0
END
