TITL C-4164241-3639-112 -7.07433022331968 125000 -14004.7114030096 0 0 95 (C1) n - 1
REM
REM in /home/nfs/bkarasulu/CARBON/AIRSS/Generating-Clusters/ReaxFF-fromJPCA2015/Units_Real/with-SteepDescent/Only-C1/SD-CG/Try1-3A/FIRE-CG
REM
REM
REM
REM
REM
REM ./C.cell (11c1c37f851c82e70ff6c80c92926a4b)
REM
REM compiler GCC version 9.2.1 20190827 (Red Hat 9.2.1-1)
REM options -cpp -mtune=generic -march=x86-64 -g -O0 -fpre-include=/usr/include/finclude/math-vector-fortran.h
REM seed 942549336 591712684 962148018 1641395703 -950715558 -2067287275 -1830190410 -910617424 1104165710 1321431890 -1009978162 86277587 -478126388 -1476715080 -661432112 -2030002317 2010020269 -228674159 1723295851 1440550657 956000467 -1620588401 1205865608 -356951300 579990615 -1391808045 1117230630 1662200771 -1234282432 -1087573011 828459570 -1594184855 -1438664991
REM
CELL 1.54180   50.00000   50.00000   50.00000   90.00000   90.00000   90.00000
LATT -1
SFAC C  
C      1  0.4330070000000  0.5291430000000  0.4600670000000 1.0
C      1  0.5184890000000  0.4203640000000  0.4567820000000 1.0
C      1  0.4613240000000  0.5756950000000  0.5388450000000 1.0
C      1  0.5636730000000  0.5484480000000  0.4936210000000 1.0
C      1  0.4883010000000  0.5345830000000  0.5283940000000 1.0
C      1  0.4433270000000  0.4398120000000  0.4455690000000 1.0
C      1  0.5343720000000  0.5186620000000  0.4253650000000 1.0
C      1  0.4863960000000  0.5295910000000  0.4345320000000 1.0
C      1  0.5474860000000  0.4456750000000  0.5194470000000 1.0
C      1  0.5746970000000  0.4560650000000  0.5107330000000 1.0
C      1  0.5174970000000  0.5287970000000  0.5732410000000 1.0
C      1  0.4456330000000  0.4862710000000  0.5566530000000 1.0
C      1  0.4599360000000  0.4561890000000  0.4312240000000 1.0
C      1  0.5332820000000  0.4936360000000  0.4129570000000 1.0
C      1  0.4915170000000  0.4830780000000  0.5532120000000 1.0
C      1  0.4897490000000  0.5711860000000  0.4456250000000 1.0
C      1  0.5349860000000  0.4152330000000  0.4802410000000 1.0
C      1  0.4645660000000  0.4831080000000  0.4360040000000 1.0
C      1  0.5056440000000  0.5522910000000  0.4308620000000 1.0
C      1  0.4949540000000  0.5099150000000  0.5645030000000 1.0
C      1  0.4944230000000  0.4324480000000  0.5475200000000 1.0
C      1  0.5845690000000  0.5059770000000  0.5158610000000 1.0
C      1  0.5925320000000  0.4425860000000  0.4957120000000 1.0
C      1  0.4195670000000  0.5392700000000  0.4838410000000 1.0
C      1  0.5617200000000  0.4688190000000  0.4581740000000 1.0
C      1  0.5124870000000  0.5046340000000  0.4660680000000 1.0
C      1  0.4595890000000  0.5184020000000  0.4664480000000 1.0
C      1  0.5573810000000  0.4485040000000  0.4411370000000 1.0
C      1  0.4877660000000  0.4502390000000  0.5071140000000 1.0
C      1  0.4949980000000  0.4571370000000  0.4795990000000 1.0
C      1  0.5301640000000  0.4256710000000  0.5076840000000 1.0
C      1  0.4382030000000  0.5589110000000  0.4954290000000 1.0
C      1  0.4855830000000  0.5969100000000  0.4906530000000 1.0
C      1  0.4632580000000  0.4110820000000  0.4674660000000 1.0
C      1  0.5231670000000  0.5356260000000  0.4937880000000 1.0
C      1  0.5266240000000  0.5744150000000  0.5545240000000 1.0
C      1  0.4694810000000  0.4666460000000  0.5644040000000 1.0
C      1  0.5466530000000  0.5559400000000  0.5431030000000 1.0
C      1  0.5515650000000  0.5640090000000  0.5149150000000 1.0
C      1  0.4793510000000  0.5856080000000  0.5176850000000 1.0
C      1  0.4500540000000  0.4878500000000  0.4916170000000 1.0
C      1  0.4352930000000  0.4440560000000  0.4986050000000 1.0
C      1  0.4892600000000  0.5553310000000  0.4837310000000 1.0
C      1  0.5299580000000  0.5836540000000  0.5071570000000 1.0
C      1  0.4886350000000  0.5261450000000  0.4643210000000 1.0
C      1  0.5418020000000  0.5388330000000  0.4709280000000 1.0
C      1  0.5226860000000  0.5958640000000  0.5332730000000 1.0
C      1  0.4106340000000  0.5133940000000  0.4950180000000 1.0
C      1  0.4400000000000  0.4779570000000  0.5306190000000 1.0
C      1  0.4345360000000  0.5038330000000  0.5125900000000 1.0
C      1  0.5034100000000  0.4734080000000  0.5289470000000 1.0
C      1  0.5736960000000  0.4998230000000  0.5371080000000 1.0
C      1  0.4547670000000  0.4518310000000  0.5205640000000 1.0
C      1  0.5327770000000  0.5416870000000  0.4389640000000 1.0
C      1  0.4381770000000  0.5290270000000  0.5325600000000 1.0
C      1  0.4272760000000  0.4698230000000  0.4885170000000 1.0
C      1  0.4202100000000  0.5035990000000  0.4555520000000 1.0
C      1  0.4472220000000  0.5157680000000  0.5564220000000 1.0
C      1  0.4710640000000  0.4316000000000  0.4407350000000 1.0
C      1  0.5320350000000  0.4619780000000  0.5376290000000 1.0
C      1  0.5807770000000  0.4829800000000  0.4995250000000 1.0
C      1  0.5030120000000  0.4283230000000  0.5194340000000 1.0
C      1  0.5038830000000  0.4839800000000  0.6024590000000 1.0
C      1  0.5095150000000  0.4459340000000  0.5703590000000 1.0
C      1  0.4075320000000  0.4904020000000  0.4777350000000 1.0
C      1  0.5349670000000  0.4606510000000  0.5663390000000 1.0
C      1  0.5393940000000  0.4639920000000  0.4221840000000 1.0
C      1  0.5077320000000  0.4930660000000  0.5104840000000 1.0
C      1  0.5642110000000  0.4893780000000  0.4737230000000 1.0
C      1  0.5434830000000  0.4869570000000  0.5768590000000 1.0
C      1  0.4739540000000  0.5877930000000  0.4635010000000 1.0
C      1  0.4830880000000  0.5678540000000  0.5557840000000 1.0
C      1  0.5116540000000  0.4608390000000  0.4277560000000 1.0
C      1  0.6071380000000  0.4274640000000  0.4832540000000 1.0
C      1  0.4821940000000  0.5022470000000  0.4238050000000 1.0
C      1  0.4609680000000  0.5645950000000  0.4768430000000 1.0
C      1  0.5752430000000  0.5292110000000  0.5087810000000 1.0
C      1  0.5068390000000  0.4826640000000  0.4844140000000 1.0
C      1  0.5468260000000  0.4231460000000  0.4543070000000 1.0
C      1  0.4425290000000  0.5560240000000  0.5243270000000 1.0
C      1  0.5425150000000  0.5309890000000  0.5571240000000 1.0
C      1  0.5043140000000  0.4856200000000  0.4139170000000 1.0
C      1  0.5248370000000  0.5025730000000  0.5925690000000 1.0
C      1  0.4853650000000  0.5572370000000  0.5122330000000 1.0
C      1  0.5408270000000  0.5083930000000  0.4682260000000 1.0
C      1  0.4743730000000  0.5267490000000  0.5528180000000 1.0
C      1  0.5088810000000  0.5806220000000  0.4858510000000 1.0
C      1  0.5091080000000  0.5211650000000  0.5137600000000 1.0
C      1  0.4991240000000  0.4436230000000  0.4523830000000 1.0
C      1  0.4410710000000  0.4279370000000  0.4739200000000 1.0
C      1  0.4501020000000  0.4927770000000  0.4597780000000 1.0
C      1  0.4916430000000  0.4610210000000  0.5880860000000 1.0
C      1  0.4677740000000  0.4426440000000  0.5461390000000 1.0
C      1  0.5578460000000  0.5058980000000  0.5586060000000 1.0
C      1  0.5058740000000  0.5592150000000  0.5688580000000 1.0
END
