TITL C-4164234-2335-627 43.8947189988309 125000 -29332.5483019813 0 0 196 (C1) n - 1
REM
REM in /home/nfs/bkarasulu/CARBON/AIRSS/Generating-Clusters/ReaxFF-fromJPCA2015/Units_Real/with-SteepDescent/Only-C1/SD-CG/Try1-3A/FIRE-CG
REM
REM
REM
REM
REM
REM ./C.cell (11c1c37f851c82e70ff6c80c92926a4b)
REM
REM compiler GCC version 9.2.1 20190827 (Red Hat 9.2.1-1)
REM options -cpp -mtune=generic -march=x86-64 -g -O0 -fpre-include=/usr/include/finclude/math-vector-fortran.h
REM seed 1792064172 649475788 -1574566627 644604786 324599659 -33374422 1694102971 856905859 -847303881 -785022178 1011262903 -362775041 -1192828742 10842521 -623215394 -1275184012 1955884570 -1025780088 680027830 -1946196595 -709096941 1374393887 1406966561 -708093114 625463890 -172226429 530067682 -1201243161 -1510398966 1156930929 -990006069 1878005352 580971970
REM
CELL 1.54180   50.00000   50.00000   50.00000   90.00000   90.00000   90.00000
LATT -1
SFAC C  
C      1  0.4571830000000  0.4333370000000  0.4540180000000 1.0
C      1  0.5813360000000  0.4542500000000  0.4258300000000 1.0
C      1  0.4789410000000  0.4339560000000  0.4118910000000 1.0
C      1  0.5358130000000  0.5852820000000  0.5487750000000 1.0
C      1  0.4957390000000  0.4924040000000  0.5904970000000 1.0
C      1  0.5205020000000  0.5443940000000  0.5731970000000 1.0
C      1  0.5521220000000  0.4666860000000  0.4926280000000 1.0
C      1  0.5841410000000  0.4779560000000  0.5232460000000 1.0
C      1  0.5329990000000  0.5651920000000  0.5024710000000 1.0
C      1  0.5560770000000  0.4923920000000  0.5836800000000 1.0
C      1  0.5352040000000  0.4532430000000  0.5114580000000 1.0
C      1  0.5190900000000  0.4040430000000  0.5606490000000 1.0
C      1  0.3987040000000  0.4584750000000  0.4747720000000 1.0
C      1  0.5751730000000  0.4555890000000  0.5048400000000 1.0
C      1  0.5466000000000  0.4840500000000  0.5577480000000 1.0
C      1  0.4849530000000  0.5098730000000  0.3937210000000 1.0
C      1  0.5049650000000  0.4952360000000  0.4732930000000 1.0
C      1  0.4748350000000  0.4142240000000  0.4380070000000 1.0
C      1  0.5452200000000  0.3915870000000  0.5186040000000 1.0
C      1  0.4949780000000  0.5411990000000  0.5858880000000 1.0
C      1  0.5299410000000  0.4463000000000  0.5951920000000 1.0
C      1  0.5762870000000  0.4884550000000  0.4550760000000 1.0
C      1  0.4242810000000  0.5628820000000  0.4338340000000 1.0
C      1  0.5238860000000  0.5330790000000  0.4329580000000 1.0
C      1  0.4424080000000  0.4997550000000  0.4048370000000 1.0
C      1  0.6072590000000  0.4820090000000  0.5394910000000 1.0
C      1  0.6161200000000  0.4380280000000  0.4901110000000 1.0
C      1  0.4413090000000  0.5278720000000  0.5751560000000 1.0
C      1  0.5082830000000  0.4952700000000  0.5024830000000 1.0
C      1  0.4977740000000  0.4147110000000  0.5763220000000 1.0
C      1  0.5237150000000  0.5288990000000  0.5488450000000 1.0
C      1  0.4416140000000  0.5145850000000  0.4597730000000 1.0
C      1  0.5072800000000  0.5825330000000  0.5039500000000 1.0
C      1  0.4733910000000  0.4695170000000  0.5536710000000 1.0
C      1  0.3942550000000  0.5407390000000  0.4905020000000 1.0
C      1  0.6246380000000  0.4668700000000  0.4913970000000 1.0
C      1  0.5472700000000  0.4669370000000  0.3939310000000 1.0
C      1  0.5246200000000  0.5011340000000  0.4319310000000 1.0
C      1  0.4844050000000  0.3884570000000  0.4899410000000 1.0
C      1  0.4754420000000  0.5532510000000  0.4532460000000 1.0
C      1  0.5206640000000  0.4763880000000  0.5518150000000 1.0
C      1  0.5055160000000  0.5108200000000  0.6253870000000 1.0
C      1  0.5526910000000  0.5909040000000  0.4564790000000 1.0
C      1  0.4903270000000  0.3887400000000  0.5199510000000 1.0
C      1  0.5524090000000  0.4843730000000  0.4713470000000 1.0
C      1  0.4356470000000  0.5067830000000  0.5261870000000 1.0
C      1  0.5745950000000  0.4720620000000  0.4042360000000 1.0
C      1  0.3857220000000  0.4934800000000  0.5084210000000 1.0
C      1  0.4425440000000  0.4779940000000  0.5908430000000 1.0
C      1  0.4833050000000  0.4236950000000  0.5522060000000 1.0
C      1  0.4031010000000  0.5038300000000  0.5738020000000 1.0
C      1  0.5049510000000  0.4768900000000  0.4324790000000 1.0
C      1  0.4231240000000  0.4934470000000  0.4524930000000 1.0
C      1  0.5154710000000  0.3938230000000  0.5339090000000 1.0
C      1  0.4285160000000  0.5042560000000  0.5880000000000 1.0
C      1  0.4106080000000  0.5765120000000  0.5010790000000 1.0
C      1  0.4735570000000  0.5576990000000  0.6161580000000 1.0
C      1  0.5022130000000  0.4078450000000  0.4483110000000 1.0
C      1  0.4015540000000  0.4551310000000  0.5501690000000 1.0
C      1  0.4807290000000  0.5031970000000  0.4601820000000 1.0
C      1  0.5700830000000  0.5941810000000  0.5059840000000 1.0
C      1  0.4665490000000  0.5697260000000  0.5883830000000 1.0
C      1  0.6136460000000  0.5085160000000  0.4761100000000 1.0
C      1  0.4690400000000  0.3704330000000  0.4668450000000 1.0
C      1  0.6245570000000  0.4851240000000  0.5159920000000 1.0
C      1  0.4500100000000  0.5156040000000  0.5503650000000 1.0
C      1  0.5116130000000  0.4343790000000  0.5004760000000 1.0
C      1  0.4233310000000  0.5857430000000  0.5305570000000 1.0
C      1  0.4596600000000  0.4549100000000  0.4080000000000 1.0
C      1  0.4307620000000  0.4383870000000  0.4419010000000 1.0
C      1  0.4703460000000  0.6105010000000  0.5271270000000 1.0
C      1  0.5213620000000  0.5402710000000  0.5001670000000 1.0
C      1  0.4984590000000  0.4733590000000  0.5690750000000 1.0
C      1  0.4557310000000  0.4145790000000  0.5480660000000 1.0
C      1  0.3919240000000  0.4969850000000  0.4150810000000 1.0
C      1  0.4839860000000  0.5077900000000  0.5139960000000 1.0
C      1  0.5928690000000  0.4631600000000  0.4531190000000 1.0
C      1  0.5803970000000  0.5101780000000  0.5798710000000 1.0
C      1  0.5072810000000  0.6064430000000  0.4579910000000 1.0
C      1  0.3979520000000  0.4482930000000  0.5228270000000 1.0
C      1  0.5578910000000  0.4366920000000  0.4240640000000 1.0
C      1  0.5817060000000  0.4379110000000  0.5459920000000 1.0
C      1  0.3855000000000  0.5172620000000  0.4948040000000 1.0
C      1  0.4768660000000  0.5322030000000  0.4992600000000 1.0
C      1  0.5031670000000  0.4349770000000  0.5986000000000 1.0
C      1  0.3961730000000  0.4822990000000  0.5552680000000 1.0
C      1  0.5888640000000  0.4390270000000  0.4772890000000 1.0
C      1  0.4557510000000  0.3910780000000  0.4528040000000 1.0
C      1  0.4180190000000  0.5890790000000  0.4758210000000 1.0
C      1  0.5146470000000  0.5108800000000  0.3868840000000 1.0
C      1  0.5774300000000  0.5088440000000  0.4336380000000 1.0
C      1  0.5314930000000  0.5146510000000  0.5043430000000 1.0
C      1  0.5314550000000  0.5457030000000  0.4568750000000 1.0
C      1  0.4192580000000  0.5491510000000  0.4965770000000 1.0
C      1  0.5607280000000  0.4909390000000  0.5341650000000 1.0
C      1  0.5152940000000  0.5836790000000  0.5855460000000 1.0
C      1  0.4770870000000  0.5085000000000  0.5542230000000 1.0
C      1  0.4976720000000  0.4705960000000  0.4052460000000 1.0
C      1  0.4905760000000  0.6035570000000  0.5496180000000 1.0
C      1  0.4601970000000  0.4120840000000  0.4951390000000 1.0
C      1  0.5505240000000  0.5372270000000  0.5398120000000 1.0
C      1  0.4364310000000  0.4351980000000  0.5568580000000 1.0
C      1  0.4191320000000  0.5430760000000  0.4163290000000 1.0
C      1  0.5546280000000  0.5818870000000  0.4279910000000 1.0
C      1  0.4707650000000  0.5352230000000  0.4003880000000 1.0
C      1  0.4329320000000  0.5822890000000  0.4507620000000 1.0
C      1  0.5808670000000  0.5391370000000  0.5716600000000 1.0
C      1  0.4865410000000  0.4599880000000  0.5288660000000 1.0
C      1  0.5649670000000  0.3796390000000  0.5307510000000 1.0
C      1  0.4559000000000  0.4914240000000  0.5117010000000 1.0
C      1  0.5269950000000  0.5802950000000  0.4172300000000 1.0
C      1  0.4425440000000  0.5578390000000  0.5754190000000 1.0
C      1  0.4578850000000  0.4953210000000  0.4727120000000 1.0
C      1  0.5385130000000  0.4951420000000  0.4024580000000 1.0
C      1  0.5059870000000  0.5948210000000  0.4306560000000 1.0
C      1  0.5160140000000  0.5533610000000  0.4089450000000 1.0
C      1  0.4392880000000  0.4002120000000  0.4773330000000 1.0
C      1  0.4788490000000  0.4479800000000  0.6099180000000 1.0
C      1  0.5283230000000  0.4962990000000  0.6150920000000 1.0
C      1  0.4631710000000  0.5509890000000  0.5163770000000 1.0
C      1  0.5200840000000  0.6090960000000  0.5106910000000 1.0
C      1  0.4202370000000  0.4771670000000  0.4757940000000 1.0
C      1  0.5415800000000  0.4750230000000  0.6028710000000 1.0
C      1  0.4014930000000  0.4181080000000  0.4772540000000 1.0
C      1  0.4623490000000  0.4723450000000  0.6125850000000 1.0
C      1  0.5476470000000  0.5652200000000  0.5290530000000 1.0
C      1  0.5671320000000  0.4177880000000  0.4724810000000 1.0
C      1  0.3981360000000  0.5232670000000  0.5521270000000 1.0
C      1  0.4474680000000  0.4611540000000  0.5668030000000 1.0
C      1  0.5599010000000  0.4370040000000  0.5661720000000 1.0
C      1  0.4656050000000  0.4434910000000  0.4807100000000 1.0
C      1  0.5378000000000  0.4267050000000  0.5760330000000 1.0
C      1  0.4464080000000  0.5978970000000  0.5288710000000 1.0
C      1  0.5219760000000  0.4288080000000  0.4452250000000 1.0
C      1  0.4334900000000  0.4561860000000  0.4195440000000 1.0
C      1  0.4814110000000  0.6032140000000  0.4706330000000 1.0
C      1  0.4975930000000  0.5180940000000  0.5391810000000 1.0
C      1  0.5235820000000  0.4099060000000  0.4901020000000 1.0
C      1  0.4481380000000  0.4733430000000  0.4889950000000 1.0
C      1  0.4337990000000  0.5391520000000  0.5200050000000 1.0
C      1  0.4131440000000  0.5461430000000  0.5423730000000 1.0
C      1  0.4963310000000  0.5387600000000  0.6154170000000 1.0
C      1  0.5384290000000  0.5642290000000  0.5853900000000 1.0
C      1  0.5502020000000  0.4048780000000  0.4911630000000 1.0
C      1  0.4122340000000  0.3960950000000  0.4849830000000 1.0
C      1  0.5992690000000  0.5043180000000  0.5574880000000 1.0
C      1  0.5764550000000  0.5707520000000  0.4893320000000 1.0
C      1  0.4662160000000  0.5263810000000  0.4501290000000 1.0
C      1  0.4871920000000  0.4884330000000  0.6186720000000 1.0
C      1  0.5356440000000  0.4426520000000  0.4041420000000 1.0
C      1  0.5708400000000  0.5593380000000  0.4343050000000 1.0
C      1  0.5858070000000  0.5365820000000  0.4419730000000 1.0
C      1  0.5078350000000  0.4543960000000  0.4525960000000 1.0
C      1  0.5142870000000  0.4717050000000  0.5234410000000 1.0
C      1  0.4822210000000  0.5707760000000  0.5110490000000 1.0
C      1  0.5457270000000  0.6103920000000  0.4974250000000 1.0
C      1  0.4854000000000  0.5587180000000  0.4084470000000 1.0
C      1  0.5628670000000  0.5867420000000  0.5599800000000 1.0
C      1  0.4945880000000  0.4482140000000  0.4779490000000 1.0
C      1  0.4232460000000  0.5694710000000  0.5560520000000 1.0
C      1  0.4751550000000  0.6100040000000  0.4976680000000 1.0
C      1  0.5067570000000  0.3962460000000  0.4741280000000 1.0
C      1  0.4868310000000  0.5158190000000  0.5774060000000 1.0
C      1  0.4799200000000  0.5826130000000  0.4239180000000 1.0
C      1  0.5737000000000  0.5832210000000  0.5325230000000 1.0
C      1  0.5346370000000  0.6096190000000  0.4701660000000 1.0
C      1  0.5671450000000  0.5639860000000  0.5785910000000 1.0
C      1  0.4667320000000  0.4866070000000  0.3954610000000 1.0
C      1  0.4215140000000  0.4851130000000  0.4228350000000 1.0
C      1  0.3934780000000  0.5250740000000  0.4174950000000 1.0
C      1  0.5996510000000  0.5326940000000  0.4686330000000 1.0
C      1  0.4053160000000  0.4372930000000  0.4576180000000 1.0
C      1  0.5947300000000  0.5481490000000  0.4929150000000 1.0
C      1  0.5906030000000  0.5297600000000  0.5439090000000 1.0
C      1  0.4423870000000  0.5283340000000  0.4046510000000 1.0
C      1  0.6152280000000  0.4804140000000  0.4671360000000 1.0
C      1  0.5512410000000  0.5659880000000  0.4734740000000 1.0
C      1  0.5234660000000  0.5370780000000  0.3812930000000 1.0
C      1  0.4245250000000  0.4497170000000  0.5342680000000 1.0
C      1  0.4632240000000  0.4012180000000  0.5228610000000 1.0
C      1  0.5520640000000  0.5148760000000  0.5239410000000 1.0
C      1  0.5600020000000  0.4388840000000  0.5249920000000 1.0
C      1  0.5177450000000  0.6063650000000  0.5403150000000 1.0
C      1  0.5509950000000  0.4228280000000  0.4487270000000 1.0
C      1  0.4920880000000  0.4332150000000  0.5254440000000 1.0
C      1  0.4986720000000  0.5433610000000  0.4878520000000 1.0
C      1  0.4652500000000  0.5814480000000  0.4509720000000 1.0
C      1  0.6184850000000  0.5117020000000  0.5052070000000 1.0
C      1  0.5056050000000  0.4426650000000  0.4020690000000 1.0
C      1  0.6034580000000  0.5336560000000  0.5172560000000 1.0
C      1  0.5291150000000  0.4951500000000  0.4595870000000 1.0
C      1  0.4885210000000  0.5888010000000  0.5747500000000 1.0
C      1  0.3897320000000  0.4651180000000  0.5007270000000 1.0
C      1  0.5680890000000  0.5007790000000  0.4074250000000 1.0
C      1  0.4013280000000  0.4999210000000  0.5331850000000 1.0
C      1  0.5032680000000  0.5528020000000  0.4624990000000 1.0
END
