TITL C-4164242-3624-370 15.0156057823522 125000 -8825.63002126225 0 0 61 (C1) n - 1
REM
REM in /home/nfs/bkarasulu/CARBON/AIRSS/Generating-Clusters/ReaxFF-fromJPCA2015/Units_Real/with-SteepDescent/Only-C1/SD-CG/Try1-3A/FIRE-CG
REM
REM
REM
REM
REM
REM ./C.cell (11c1c37f851c82e70ff6c80c92926a4b)
REM
REM compiler GCC version 9.2.1 20190827 (Red Hat 9.2.1-1)
REM options -cpp -mtune=generic -march=x86-64 -g -O0 -fpre-include=/usr/include/finclude/math-vector-fortran.h
REM seed 1667063111 -1203225540 -1881749286 1000900273 1746558222 2031268586 -2030591418 -1113328064 -1841789464 715173100 -910381773 190222872 1649081669 -365340194 652670144 731873934 1035965252 1966099446 117859665 -854411945 1176072211 -1954881635 -607071149 -1214140526 -944405274 -1371419584 -1575464344 -1517425312 1722585510 1887695545 1472515526 -1748506926 897589916
REM
CELL 1.54180   50.00000   50.00000   50.00000   90.00000   90.00000   90.00000
LATT -1
SFAC C  
C      1  0.4609600000000  0.4996680000000  0.4461220000000 1.0
C      1  0.4621580000000  0.5606220000000  0.4717840000000 1.0
C      1  0.5158850000000  0.4472210000000  0.4595810000000 1.0
C      1  0.4244930000000  0.4900970000000  0.4654930000000 1.0
C      1  0.5823540000000  0.4749230000000  0.4946670000000 1.0
C      1  0.5058500000000  0.4606410000000  0.5242860000000 1.0
C      1  0.4392290000000  0.4403920000000  0.5174900000000 1.0
C      1  0.5306830000000  0.5389610000000  0.4946310000000 1.0
C      1  0.5054940000000  0.4320560000000  0.4818850000000 1.0
C      1  0.4423420000000  0.4930860000000  0.5124780000000 1.0
C      1  0.5001310000000  0.5742450000000  0.5270520000000 1.0
C      1  0.5416400000000  0.4565940000000  0.4496880000000 1.0
C      1  0.5207730000000  0.4957780000000  0.5472780000000 1.0
C      1  0.5437940000000  0.5396660000000  0.5432030000000 1.0
C      1  0.4667210000000  0.4323160000000  0.5157620000000 1.0
C      1  0.5564720000000  0.4633900000000  0.5263080000000 1.0
C      1  0.5371630000000  0.4610270000000  0.4748340000000 1.0
C      1  0.5597980000000  0.4931010000000  0.5325720000000 1.0
C      1  0.5081040000000  0.5509590000000  0.4545090000000 1.0
C      1  0.5205600000000  0.5571710000000  0.5423930000000 1.0
C      1  0.5491090000000  0.4861930000000  0.4415150000000 1.0
C      1  0.4943780000000  0.4925290000000  0.5602170000000 1.0
C      1  0.5322310000000  0.4467710000000  0.5242580000000 1.0
C      1  0.4472620000000  0.5624850000000  0.5164170000000 1.0
C      1  0.4231390000000  0.5047240000000  0.4917560000000 1.0
C      1  0.5578060000000  0.5393490000000  0.5143180000000 1.0
C      1  0.4466700000000  0.4896730000000  0.5466260000000 1.0
C      1  0.5100980000000  0.5193150000000  0.4512120000000 1.0
C      1  0.4404970000000  0.5561710000000  0.4882440000000 1.0
C      1  0.4779330000000  0.5146070000000  0.5734540000000 1.0
C      1  0.5584830000000  0.5050530000000  0.4624470000000 1.0
C      1  0.4619350000000  0.4603950000000  0.4792420000000 1.0
C      1  0.5298250000000  0.5044720000000  0.4306610000000 1.0
C      1  0.5081050000000  0.5803480000000  0.4993860000000 1.0
C      1  0.4836350000000  0.5614080000000  0.4599930000000 1.0
C      1  0.5518590000000  0.4389170000000  0.4855600000000 1.0
C      1  0.4294270000000  0.5299000000000  0.4787590000000 1.0
C      1  0.5283680000000  0.4926250000000  0.4966330000000 1.0
C      1  0.5451060000000  0.5109950000000  0.5510100000000 1.0
C      1  0.4408120000000  0.4634830000000  0.5023080000000 1.0
C      1  0.4480820000000  0.4751210000000  0.4563900000000 1.0
C      1  0.5288700000000  0.4298230000000  0.5006020000000 1.0
C      1  0.4804510000000  0.5265100000000  0.5141540000000 1.0
C      1  0.4746550000000  0.4738630000000  0.5500920000000 1.0
C      1  0.5785830000000  0.5007790000000  0.4843100000000 1.0
C      1  0.5717610000000  0.5107290000000  0.5122150000000 1.0
C      1  0.4683270000000  0.5034350000000  0.5045660000000 1.0
C      1  0.5052900000000  0.4759360000000  0.4989280000000 1.0
C      1  0.5205220000000  0.5055770000000  0.5200870000000 1.0
C      1  0.4775630000000  0.4360930000000  0.4884390000000 1.0
C      1  0.4815190000000  0.4497470000000  0.5360360000000 1.0
C      1  0.4351670000000  0.5149810000000  0.4535010000000 1.0
C      1  0.4707450000000  0.5709040000000  0.5310550000000 1.0
C      1  0.5332000000000  0.5140020000000  0.4755450000000 1.0
C      1  0.5097600000000  0.5297680000000  0.5141530000000 1.0
C      1  0.5205210000000  0.5630630000000  0.4783020000000 1.0
C      1  0.4491890000000  0.5127000000000  0.5674190000000 1.0
C      1  0.4823920000000  0.4873770000000  0.4855700000000 1.0
C      1  0.4864510000000  0.5029270000000  0.4586940000000 1.0
C      1  0.4634700000000  0.5445900000000  0.5293860000000 1.0
C      1  0.5722020000000  0.4507520000000  0.5045240000000 1.0
END
