TITL C-4164243-3780-458 2.81682366857519 125000 -29954.0723199988 0 0 195 (C1) n - 1
REM
REM in /home/nfs/bkarasulu/CARBON/AIRSS/Generating-Clusters/ReaxFF-fromJPCA2015/Units_Real/with-SteepDescent/Only-C1/SD-CG/Try1-3A/FIRE-CG
REM
REM
REM
REM
REM
REM ./C.cell (11c1c37f851c82e70ff6c80c92926a4b)
REM
REM compiler GCC version 9.2.1 20190827 (Red Hat 9.2.1-1)
REM options -cpp -mtune=generic -march=x86-64 -g -O0 -fpre-include=/usr/include/finclude/math-vector-fortran.h
REM seed 1633639277 1544224435 1917321534 -1801622551 1621501573 1017751441 1655734058 1609499613 -1648830181 -644172221 1479790556 -125221488 -451222939 -1357062004 350763322 -2077864610 -683199872 1664250904 -1293721384 84745232 1576594541 1074382873 744421472 -2124228883 1695322325 -835801549 1134521910 126134243 -1759366124 -1953672378 1810454918 -1022526921 -1312336313
REM
CELL 1.54180   50.00000   50.00000   50.00000   90.00000   90.00000   90.00000
LATT -1
SFAC C  
C      1  0.4678230000000  0.4974880000000  0.4489060000000 1.0
C      1  0.5097150000000  0.4666670000000  0.5352480000000 1.0
C      1  0.5286350000000  0.5181830000000  0.5544920000000 1.0
C      1  0.6194320000000  0.5043120000000  0.5305780000000 1.0
C      1  0.4201360000000  0.4119300000000  0.4856900000000 1.0
C      1  0.4337710000000  0.5198650000000  0.5192120000000 1.0
C      1  0.5397840000000  0.4002090000000  0.4536210000000 1.0
C      1  0.4716080000000  0.5003380000000  0.5016780000000 1.0
C      1  0.4950920000000  0.5442300000000  0.3953510000000 1.0
C      1  0.4666490000000  0.5007270000000  0.3923650000000 1.0
C      1  0.5391000000000  0.5936850000000  0.5535770000000 1.0
C      1  0.4772480000000  0.4371200000000  0.5456470000000 1.0
C      1  0.5109900000000  0.4866290000000  0.4853630000000 1.0
C      1  0.5067370000000  0.4240450000000  0.4796330000000 1.0
C      1  0.3962600000000  0.5011570000000  0.4452710000000 1.0
C      1  0.5507950000000  0.5551020000000  0.5035460000000 1.0
C      1  0.5579110000000  0.4092820000000  0.5032910000000 1.0
C      1  0.5627850000000  0.4600730000000  0.5992060000000 1.0
C      1  0.5428980000000  0.4931390000000  0.4498920000000 1.0
C      1  0.6147270000000  0.4998020000000  0.5588750000000 1.0
C      1  0.4180740000000  0.5029610000000  0.5774100000000 1.0
C      1  0.4495710000000  0.4593750000000  0.4070830000000 1.0
C      1  0.3772220000000  0.4684130000000  0.4806470000000 1.0
C      1  0.5289600000000  0.4820850000000  0.5225110000000 1.0
C      1  0.4733100000000  0.5869000000000  0.4204820000000 1.0
C      1  0.4255510000000  0.5345680000000  0.4956350000000 1.0
C      1  0.6189830000000  0.4648940000000  0.4670950000000 1.0
C      1  0.5770990000000  0.5537290000000  0.5482130000000 1.0
C      1  0.4263660000000  0.5346440000000  0.5694360000000 1.0
C      1  0.5292740000000  0.5325990000000  0.4731450000000 1.0
C      1  0.5744990000000  0.5591500000000  0.4592090000000 1.0
C      1  0.5633660000000  0.4621790000000  0.4159870000000 1.0
C      1  0.4571100000000  0.4018200000000  0.5030230000000 1.0
C      1  0.4905860000000  0.4792290000000  0.4420200000000 1.0
C      1  0.4281110000000  0.5768420000000  0.5279390000000 1.0
C      1  0.5043550000000  0.6084620000000  0.5166440000000 1.0
C      1  0.4539450000000  0.5387880000000  0.4622650000000 1.0
C      1  0.5005800000000  0.5062980000000  0.5679240000000 1.0
C      1  0.5196170000000  0.5582060000000  0.4780560000000 1.0
C      1  0.4720430000000  0.5767920000000  0.5852830000000 1.0
C      1  0.5115720000000  0.3934870000000  0.5122500000000 1.0
C      1  0.3987760000000  0.5524920000000  0.4561000000000 1.0
C      1  0.5310020000000  0.6104640000000  0.5289860000000 1.0
C      1  0.5079960000000  0.5567870000000  0.5288730000000 1.0
C      1  0.6011430000000  0.5037010000000  0.4399470000000 1.0
C      1  0.4949870000000  0.5574340000000  0.4645070000000 1.0
C      1  0.5098820000000  0.5467650000000  0.6111100000000 1.0
C      1  0.4855280000000  0.4804160000000  0.4919350000000 1.0
C      1  0.4264220000000  0.4295030000000  0.4387770000000 1.0
C      1  0.4078180000000  0.5049570000000  0.5324720000000 1.0
C      1  0.4500370000000  0.4965980000000  0.5174500000000 1.0
C      1  0.5132280000000  0.4949360000000  0.3912220000000 1.0
C      1  0.5824970000000  0.5323920000000  0.4688230000000 1.0
C      1  0.4457850000000  0.4584540000000  0.5808480000000 1.0
C      1  0.5610760000000  0.4811770000000  0.5523330000000 1.0
C      1  0.4554160000000  0.5952600000000  0.5262050000000 1.0
C      1  0.3963020000000  0.4424020000000  0.5165190000000 1.0
C      1  0.4680670000000  0.5258470000000  0.4425840000000 1.0
C      1  0.3855940000000  0.4953600000000  0.5174220000000 1.0
C      1  0.5255960000000  0.6060170000000  0.4664020000000 1.0
C      1  0.5167770000000  0.4632180000000  0.5630300000000 1.0
C      1  0.5512120000000  0.6085630000000  0.5094610000000 1.0
C      1  0.4409650000000  0.5066790000000  0.4055370000000 1.0
C      1  0.5014060000000  0.4708450000000  0.6103570000000 1.0
C      1  0.4478290000000  0.4332030000000  0.4202150000000 1.0
C      1  0.5317890000000  0.4703810000000  0.4973000000000 1.0
C      1  0.5039880000000  0.6100510000000  0.4868980000000 1.0
C      1  0.4679050000000  0.5606960000000  0.4747800000000 1.0
C      1  0.3830610000000  0.4675110000000  0.5097860000000 1.0
C      1  0.4465840000000  0.4512730000000  0.4928060000000 1.0
C      1  0.3638000000000  0.5368660000000  0.4908490000000 1.0
C      1  0.4219140000000  0.4897560000000  0.5521460000000 1.0
C      1  0.5414700000000  0.4441050000000  0.6072380000000 1.0
C      1  0.5373700000000  0.5219840000000  0.4471850000000 1.0
C      1  0.3964290000000  0.4276980000000  0.4904510000000 1.0
C      1  0.5690900000000  0.5367820000000  0.4144170000000 1.0
C      1  0.4344840000000  0.5437380000000  0.5966620000000 1.0
C      1  0.5576450000000  0.4632910000000  0.4884830000000 1.0
C      1  0.6274640000000  0.4657350000000  0.4927920000000 1.0
C      1  0.4957330000000  0.4304070000000  0.4273350000000 1.0
C      1  0.5417630000000  0.4420120000000  0.4183010000000 1.0
C      1  0.5716140000000  0.4386770000000  0.5026240000000 1.0
C      1  0.5374110000000  0.5077810000000  0.5276890000000 1.0
C      1  0.4873180000000  0.4149010000000  0.5620020000000 1.0
C      1  0.5684190000000  0.5123040000000  0.4846790000000 1.0
C      1  0.5574760000000  0.4338840000000  0.5504540000000 1.0
C      1  0.4453900000000  0.5814740000000  0.4288890000000 1.0
C      1  0.4703140000000  0.4153010000000  0.4295520000000 1.0
C      1  0.6120800000000  0.5244140000000  0.5737080000000 1.0
C      1  0.4213750000000  0.5612780000000  0.4985300000000 1.0
C      1  0.5786510000000  0.4423000000000  0.5324690000000 1.0
C      1  0.5560650000000  0.4040170000000  0.4761880000000 1.0
C      1  0.3893040000000  0.4454200000000  0.4687550000000 1.0
C      1  0.3781940000000  0.5471800000000  0.4739750000000 1.0
C      1  0.5772400000000  0.4317510000000  0.4510430000000 1.0
C      1  0.5629390000000  0.5603810000000  0.4322800000000 1.0
C      1  0.5659860000000  0.5989890000000  0.4920250000000 1.0
C      1  0.4647310000000  0.4384790000000  0.5972140000000 1.0
C      1  0.4725130000000  0.3918490000000  0.4805530000000 1.0
C      1  0.5183350000000  0.4303390000000  0.5941930000000 1.0
C      1  0.4734870000000  0.5087070000000  0.5595600000000 1.0
C      1  0.4453980000000  0.4929480000000  0.4649760000000 1.0
C      1  0.3793940000000  0.4948070000000  0.4682180000000 1.0
C      1  0.4813070000000  0.6009060000000  0.5344930000000 1.0
C      1  0.5078550000000  0.4220610000000  0.5080770000000 1.0
C      1  0.4245670000000  0.4440770000000  0.5611120000000 1.0
C      1  0.4932840000000  0.5393670000000  0.4424480000000 1.0
C      1  0.4727840000000  0.4722660000000  0.3947680000000 1.0
C      1  0.4339640000000  0.5302270000000  0.4213640000000 1.0
C      1  0.5814710000000  0.5104770000000  0.4195740000000 1.0
C      1  0.4931860000000  0.4433820000000  0.6045050000000 1.0
C      1  0.4885550000000  0.4419860000000  0.4727060000000 1.0
C      1  0.4568970000000  0.5394780000000  0.5320780000000 1.0
C      1  0.5412540000000  0.5036680000000  0.3941580000000 1.0
C      1  0.5834830000000  0.4552420000000  0.4355330000000 1.0
C      1  0.5122600000000  0.5153210000000  0.4874530000000 1.0
C      1  0.4296370000000  0.4805390000000  0.4128420000000 1.0
C      1  0.5824680000000  0.5378750000000  0.5248110000000 1.0
C      1  0.4481450000000  0.5174800000000  0.6037620000000 1.0
C      1  0.4866680000000  0.5928560000000  0.5660890000000 1.0
C      1  0.5235940000000  0.5642780000000  0.5053810000000 1.0
C      1  0.5384810000000  0.3984700000000  0.5235120000000 1.0
C      1  0.4596110000000  0.5887990000000  0.4737900000000 1.0
C      1  0.5466520000000  0.5318720000000  0.3978780000000 1.0
C      1  0.4279440000000  0.5630300000000  0.5599570000000 1.0
C      1  0.6152400000000  0.4416560000000  0.4816230000000 1.0
C      1  0.5571060000000  0.5238440000000  0.5100740000000 1.0
C      1  0.4160910000000  0.5712080000000  0.4717420000000 1.0
C      1  0.5456130000000  0.4586440000000  0.5603830000000 1.0
C      1  0.4370870000000  0.4253960000000  0.5070370000000 1.0
C      1  0.5167960000000  0.4150880000000  0.5697180000000 1.0
C      1  0.4180220000000  0.4363910000000  0.5351090000000 1.0
C      1  0.5665760000000  0.4854090000000  0.4715260000000 1.0
C      1  0.4876800000000  0.5231300000000  0.5007730000000 1.0
C      1  0.5378960000000  0.5726830000000  0.4251030000000 1.0
C      1  0.5697840000000  0.5086290000000  0.5918130000000 1.0
C      1  0.5861590000000  0.4678850000000  0.5435270000000 1.0
C      1  0.4940700000000  0.4443440000000  0.5231200000000 1.0
C      1  0.4160480000000  0.6022170000000  0.5280840000000 1.0
C      1  0.4116560000000  0.5276600000000  0.4439060000000 1.0
C      1  0.4327480000000  0.4092720000000  0.4585630000000 1.0
C      1  0.5132910000000  0.5933580000000  0.5632590000000 1.0
C      1  0.4348720000000  0.4670150000000  0.4728710000000 1.0
C      1  0.5264770000000  0.5489830000000  0.5497400000000 1.0
C      1  0.4437840000000  0.5698210000000  0.5835370000000 1.0
C      1  0.4535750000000  0.4863430000000  0.5447860000000 1.0
C      1  0.4837350000000  0.5563620000000  0.6050570000000 1.0
C      1  0.5960870000000  0.4768440000000  0.4528010000000 1.0
C      1  0.4918260000000  0.5157050000000  0.3901240000000 1.0
C      1  0.6088860000000  0.5208170000000  0.4621550000000 1.0
C      1  0.4829260000000  0.6050880000000  0.4663380000000 1.0
C      1  0.4575830000000  0.5328610000000  0.5595870000000 1.0
C      1  0.5170930000000  0.5315410000000  0.4281550000000 1.0
C      1  0.4362560000000  0.5864950000000  0.4566230000000 1.0
C      1  0.4770090000000  0.4544770000000  0.4948520000000 1.0
C      1  0.6086830000000  0.5279480000000  0.5161970000000 1.0
C      1  0.4085170000000  0.4785730000000  0.4325260000000 1.0
C      1  0.5013150000000  0.3835940000000  0.4866600000000 1.0
C      1  0.5176350000000  0.4852000000000  0.4451410000000 1.0
C      1  0.5889540000000  0.4293200000000  0.4787630000000 1.0
C      1  0.6233170000000  0.4909990000000  0.5044960000000 1.0
C      1  0.5277910000000  0.4661880000000  0.6238470000000 1.0
C      1  0.5382710000000  0.4117690000000  0.5499300000000 1.0
C      1  0.5020850000000  0.4683870000000  0.3958830000000 1.0
C      1  0.5226470000000  0.5931980000000  0.4389220000000 1.0
C      1  0.5550250000000  0.5065010000000  0.5653280000000 1.0
C      1  0.5341180000000  0.4934690000000  0.6226960000000 1.0
C      1  0.5292170000000  0.5341630000000  0.6147330000000 1.0
C      1  0.5517340000000  0.4229390000000  0.4385690000000 1.0
C      1  0.5998760000000  0.4767380000000  0.5680360000000 1.0
C      1  0.5913180000000  0.5281830000000  0.5905490000000 1.0
C      1  0.5140120000000  0.4445530000000  0.4090790000000 1.0
C      1  0.5248300000000  0.5504350000000  0.4062940000000 1.0
C      1  0.5953290000000  0.5473970000000  0.5704470000000 1.0
C      1  0.4718400000000  0.5312150000000  0.6081580000000 1.0
C      1  0.4382350000000  0.4892490000000  0.5912740000000 1.0
C      1  0.5636020000000  0.4902590000000  0.4073010000000 1.0
C      1  0.4825090000000  0.5441820000000  0.5198830000000 1.0
C      1  0.4856330000000  0.4499280000000  0.4464050000000 1.0
C      1  0.4735480000000  0.5616760000000  0.4038720000000 1.0
C      1  0.5668670000000  0.5720180000000  0.4846570000000 1.0
C      1  0.4628770000000  0.4594750000000  0.5563410000000 1.0
C      1  0.4929330000000  0.5978320000000  0.4393940000000 1.0
C      1  0.4325990000000  0.5218920000000  0.4698650000000 1.0
C      1  0.5498360000000  0.5151260000000  0.6168700000000 1.0
C      1  0.5819430000000  0.4783700000000  0.5914620000000 1.0
C      1  0.4695410000000  0.4142040000000  0.5843720000000 1.0
C      1  0.4126620000000  0.4541410000000  0.4511010000000 1.0
C      1  0.4603460000000  0.4018870000000  0.4540190000000 1.0
C      1  0.4453690000000  0.5560600000000  0.4134610000000 1.0
C      1  0.6163860000000  0.5150930000000  0.4900470000000 1.0
C      1  0.3736660000000  0.5103240000000  0.4930040000000 1.0
C      1  0.5118570000000  0.3987750000000  0.4643970000000 1.0
C      1  0.5056030000000  0.4820250000000  0.5827820000000 1.0
C      1  0.5496750000000  0.5655410000000  0.5531410000000 1.0
END
