TITL C-4164244-2836-136 57.9725622831202 125000 -27889.4074386564 0 0 187 (C1) n - 1
REM
REM in /home/nfs/bkarasulu/CARBON/AIRSS/Generating-Clusters/ReaxFF-fromJPCA2015/Units_Real/with-SteepDescent/Only-C1/SD-CG/Try1-3A/FIRE-CG
REM
REM
REM
REM
REM
REM ./C.cell (11c1c37f851c82e70ff6c80c92926a4b)
REM
REM compiler GCC version 9.2.1 20190827 (Red Hat 9.2.1-1)
REM options -cpp -mtune=generic -march=x86-64 -g -O0 -fpre-include=/usr/include/finclude/math-vector-fortran.h
REM seed -1154406388 -206264097 -1733022966 -1134456481 308781232 253437685 -1434817830 271509348 -262313858 -301718492 1682180970 1611724086 -1993418459 -1427575963 -2122006486 -1432505235 1865660640 -428508530 129287392 142606181 -1053101811 669670629 -557752441 -1244397818 957527664 -862041844 -618026521 1034830835 -788751324 1695690051 -240451516 -341521646 -744199234
REM
CELL 1.54180   50.00000   50.00000   50.00000   90.00000   90.00000   90.00000
LATT -1
SFAC C  
C      1  0.4461550000000  0.5394890000000  0.5373660000000 1.0
C      1  0.4021550000000  0.5418260000000  0.4785460000000 1.0
C      1  0.5298120000000  0.5553690000000  0.4119240000000 1.0
C      1  0.5005420000000  0.4327680000000  0.5333320000000 1.0
C      1  0.4985480000000  0.5040260000000  0.5630170000000 1.0
C      1  0.5305430000000  0.5321420000000  0.5154800000000 1.0
C      1  0.5143200000000  0.5701300000000  0.4572310000000 1.0
C      1  0.5041810000000  0.4535260000000  0.4837930000000 1.0
C      1  0.5867990000000  0.4455320000000  0.5609640000000 1.0
C      1  0.5679830000000  0.4895090000000  0.4157350000000 1.0
C      1  0.4713290000000  0.4171470000000  0.5823560000000 1.0
C      1  0.5259660000000  0.4823600000000  0.3956820000000 1.0
C      1  0.4001650000000  0.4477620000000  0.4600180000000 1.0
C      1  0.4193530000000  0.5458920000000  0.5688640000000 1.0
C      1  0.4645330000000  0.6128190000000  0.4873670000000 1.0
C      1  0.5572850000000  0.4673730000000  0.5156580000000 1.0
C      1  0.5886710000000  0.4831840000000  0.4353070000000 1.0
C      1  0.5871060000000  0.4708270000000  0.5474260000000 1.0
C      1  0.5019760000000  0.4836010000000  0.4419280000000 1.0
C      1  0.5992530000000  0.5091780000000  0.4444940000000 1.0
C      1  0.4320740000000  0.5855320000000  0.5282060000000 1.0
C      1  0.4893900000000  0.5135860000000  0.5365920000000 1.0
C      1  0.5841610000000  0.5304410000000  0.4282950000000 1.0
C      1  0.4188440000000  0.5854860000000  0.4728980000000 1.0
C      1  0.5437510000000  0.4462780000000  0.5637990000000 1.0
C      1  0.4434360000000  0.4637120000000  0.4051660000000 1.0
C      1  0.5196820000000  0.4944720000000  0.4993830000000 1.0
C      1  0.5424790000000  0.4478440000000  0.5014630000000 1.0
C      1  0.5318000000000  0.5923950000000  0.5318820000000 1.0
C      1  0.5074080000000  0.3872750000000  0.5385810000000 1.0
C      1  0.6060120000000  0.5134860000000  0.4716120000000 1.0
C      1  0.5210290000000  0.5572890000000  0.5601170000000 1.0
C      1  0.5216590000000  0.5931490000000  0.4831050000000 1.0
C      1  0.4566720000000  0.3950750000000  0.5273970000000 1.0
C      1  0.4658610000000  0.4531090000000  0.4674880000000 1.0
C      1  0.4870810000000  0.4005820000000  0.4876070000000 1.0
C      1  0.5515530000000  0.3982930000000  0.5168800000000 1.0
C      1  0.4942610000000  0.5464640000000  0.5416510000000 1.0
C      1  0.5491910000000  0.4882460000000  0.4981030000000 1.0
C      1  0.4494900000000  0.4344140000000  0.5791790000000 1.0
C      1  0.4815700000000  0.4356820000000  0.4876630000000 1.0
C      1  0.5290280000000  0.3948090000000  0.4672360000000 1.0
C      1  0.5854980000000  0.4311030000000  0.5094960000000 1.0
C      1  0.5181260000000  0.4682880000000  0.6003170000000 1.0
C      1  0.5798120000000  0.4566540000000  0.4431460000000 1.0
C      1  0.5469060000000  0.5469340000000  0.5484250000000 1.0
C      1  0.4361030000000  0.4403060000000  0.5070370000000 1.0
C      1  0.4313930000000  0.5189840000000  0.5719460000000 1.0
C      1  0.4581620000000  0.5304120000000  0.5678620000000 1.0
C      1  0.5697860000000  0.5468080000000  0.5827700000000 1.0
C      1  0.4418890000000  0.5883050000000  0.5555040000000 1.0
C      1  0.5580730000000  0.5209260000000  0.6122160000000 1.0
C      1  0.5099710000000  0.5142290000000  0.5153700000000 1.0
C      1  0.5388740000000  0.5473500000000  0.4935100000000 1.0
C      1  0.4509950000000  0.4890430000000  0.4007360000000 1.0
C      1  0.4791840000000  0.6091120000000  0.4607940000000 1.0
C      1  0.4637240000000  0.5554750000000  0.5894570000000 1.0
C      1  0.4546710000000  0.5378370000000  0.5096700000000 1.0
C      1  0.5523370000000  0.5984710000000  0.4858770000000 1.0
C      1  0.4019830000000  0.4756570000000  0.4684400000000 1.0
C      1  0.4357140000000  0.4308630000000  0.4331570000000 1.0
C      1  0.4991190000000  0.4718820000000  0.3929550000000 1.0
C      1  0.5890020000000  0.4587480000000  0.4690990000000 1.0
C      1  0.4364540000000  0.4914160000000  0.5598230000000 1.0
C      1  0.4569890000000  0.4041780000000  0.4554360000000 1.0
C      1  0.5229620000000  0.4194830000000  0.4312020000000 1.0
C      1  0.4737170000000  0.5067820000000  0.5784210000000 1.0
C      1  0.4968220000000  0.4494320000000  0.5920870000000 1.0
C      1  0.5697380000000  0.5022670000000  0.4859190000000 1.0
C      1  0.4807960000000  0.3805950000000  0.5315660000000 1.0
C      1  0.4309400000000  0.5658190000000  0.4541420000000 1.0
C      1  0.5305830000000  0.4582450000000  0.4714590000000 1.0
C      1  0.5917040000000  0.5489880000000  0.5356070000000 1.0
C      1  0.5033570000000  0.6128640000000  0.4735620000000 1.0
C      1  0.5097890000000  0.5429390000000  0.6064280000000 1.0
C      1  0.5439240000000  0.4992440000000  0.5515850000000 1.0
C      1  0.5255320000000  0.5062690000000  0.5734530000000 1.0
C      1  0.5506860000000  0.4725100000000  0.5945730000000 1.0
C      1  0.5951570000000  0.4553340000000  0.4969840000000 1.0
C      1  0.4271260000000  0.4989200000000  0.4165700000000 1.0
C      1  0.4751450000000  0.4400770000000  0.5199120000000 1.0
C      1  0.5535560000000  0.4479940000000  0.4282640000000 1.0
C      1  0.5230760000000  0.4465260000000  0.5225530000000 1.0
C      1  0.5428570000000  0.4342400000000  0.4516730000000 1.0
C      1  0.5242480000000  0.5414410000000  0.4694630000000 1.0
C      1  0.4813200000000  0.5940530000000  0.5653840000000 1.0
C      1  0.4268500000000  0.4901670000000  0.4612680000000 1.0
C      1  0.4070420000000  0.5209870000000  0.4986130000000 1.0
C      1  0.4325100000000  0.4161840000000  0.4574670000000 1.0
C      1  0.5894910000000  0.5569090000000  0.5070530000000 1.0
C      1  0.5790160000000  0.5214550000000  0.5740450000000 1.0
C      1  0.4862690000000  0.5811650000000  0.4532210000000 1.0
C      1  0.4827070000000  0.3939940000000  0.4577540000000 1.0
C      1  0.5762620000000  0.5554430000000  0.4369180000000 1.0
C      1  0.5053990000000  0.5110370000000  0.4320360000000 1.0
C      1  0.4668390000000  0.6032750000000  0.5446040000000 1.0
C      1  0.5140980000000  0.3906460000000  0.4913490000000 1.0
C      1  0.4859280000000  0.5097260000000  0.6158040000000 1.0
C      1  0.4976280000000  0.4809250000000  0.4891120000000 1.0
C      1  0.4562070000000  0.4828250000000  0.5803600000000 1.0
C      1  0.3995610000000  0.4750060000000  0.4975050000000 1.0
C      1  0.5627850000000  0.5233580000000  0.4685870000000 1.0
C      1  0.4050810000000  0.5676960000000  0.4919440000000 1.0
C      1  0.4807110000000  0.5403720000000  0.4965830000000 1.0
C      1  0.5627520000000  0.4068870000000  0.5418660000000 1.0
C      1  0.4173410000000  0.5397500000000  0.4534000000000 1.0
C      1  0.4337260000000  0.4325310000000  0.5537140000000 1.0
C      1  0.5093830000000  0.3979500000000  0.4459840000000 1.0
C      1  0.5484600000000  0.5221930000000  0.5348020000000 1.0
C      1  0.4770120000000  0.4920000000000  0.3903590000000 1.0
C      1  0.5795580000000  0.5822360000000  0.5121590000000 1.0
C      1  0.5302370000000  0.5221810000000  0.5981330000000 1.0
C      1  0.5337020000000  0.5246680000000  0.4159160000000 1.0
C      1  0.4126160000000  0.4476150000000  0.4330870000000 1.0
C      1  0.4588610000000  0.5366330000000  0.3968920000000 1.0
C      1  0.5617810000000  0.5164930000000  0.4141250000000 1.0
C      1  0.4774820000000  0.4674350000000  0.5320700000000 1.0
C      1  0.4351070000000  0.5168410000000  0.5028060000000 1.0
C      1  0.5000430000000  0.5569680000000  0.5129450000000 1.0
C      1  0.5620170000000  0.5734820000000  0.5735070000000 1.0
C      1  0.4792730000000  0.5247900000000  0.4717180000000 1.0
C      1  0.3953740000000  0.4893080000000  0.5354210000000 1.0
C      1  0.4715330000000  0.3851530000000  0.5061070000000 1.0
C      1  0.4782530000000  0.4616870000000  0.4428210000000 1.0
C      1  0.5277650000000  0.5111790000000  0.3912310000000 1.0
C      1  0.5991360000000  0.4751220000000  0.5217480000000 1.0
C      1  0.5014920000000  0.4878500000000  0.6090860000000 1.0
C      1  0.5845360000000  0.4262470000000  0.5380910000000 1.0
C      1  0.4612200000000  0.5659120000000  0.4607340000000 1.0
C      1  0.4623830000000  0.4481550000000  0.4211610000000 1.0
C      1  0.5065670000000  0.5290900000000  0.3819950000000 1.0
C      1  0.4593490000000  0.5655130000000  0.3866260000000 1.0
C      1  0.4254540000000  0.5128790000000  0.4424390000000 1.0
C      1  0.4863110000000  0.5772620000000  0.5861350000000 1.0
C      1  0.4100980000000  0.5681820000000  0.5209090000000 1.0
C      1  0.5355660000000  0.5160120000000  0.4603540000000 1.0
C      1  0.4363020000000  0.6084110000000  0.4815650000000 1.0
C      1  0.5512360000000  0.4128830000000  0.4691600000000 1.0
C      1  0.4672430000000  0.4574370000000  0.5873420000000 1.0
C      1  0.4814590000000  0.5370260000000  0.6093050000000 1.0
C      1  0.5325650000000  0.5737360000000  0.4338040000000 1.0
C      1  0.5601430000000  0.4184240000000  0.4967310000000 1.0
C      1  0.5127440000000  0.4098270000000  0.5571300000000 1.0
C      1  0.4523640000000  0.4795880000000  0.4721060000000 1.0
C      1  0.6063330000000  0.5124710000000  0.4976540000000 1.0
C      1  0.4746300000000  0.4965520000000  0.4790520000000 1.0
C      1  0.5078260000000  0.5866100000000  0.5134620000000 1.0
C      1  0.5249550000000  0.4852380000000  0.4578930000000 1.0
C      1  0.5043690000000  0.4619640000000  0.5370620000000 1.0
C      1  0.5146470000000  0.4399840000000  0.4149090000000 1.0
C      1  0.5253850000000  0.3878350000000  0.5165420000000 1.0
C      1  0.5545300000000  0.4717870000000  0.5449020000000 1.0
C      1  0.5353380000000  0.5834770000000  0.5590880000000 1.0
C      1  0.4985330000000  0.4210820000000  0.5831650000000 1.0
C      1  0.5686680000000  0.5642170000000  0.5466900000000 1.0
C      1  0.3891490000000  0.5001540000000  0.5104250000000 1.0
C      1  0.5922380000000  0.5224120000000  0.5476050000000 1.0
C      1  0.5672380000000  0.5517450000000  0.4851590000000 1.0
C      1  0.5660290000000  0.4978550000000  0.5936760000000 1.0
C      1  0.4111420000000  0.4728870000000  0.5514000000000 1.0
C      1  0.4777940000000  0.6005980000000  0.5152410000000 1.0
C      1  0.4181340000000  0.5459550000000  0.5390490000000 1.0
C      1  0.4795580000000  0.5191720000000  0.3835250000000 1.0
C      1  0.4618970000000  0.4917830000000  0.5352030000000 1.0
C      1  0.4394720000000  0.5667320000000  0.5758770000000 1.0
C      1  0.4091000000000  0.4271580000000  0.4791060000000 1.0
C      1  0.4900860000000  0.4464150000000  0.4039930000000 1.0
C      1  0.4511200000000  0.4245020000000  0.5289430000000 1.0
C      1  0.4437010000000  0.4911910000000  0.5120270000000 1.0
C      1  0.5082310000000  0.5561750000000  0.3932420000000 1.0
C      1  0.6014850000000  0.5037310000000  0.5250330000000 1.0
C      1  0.5654950000000  0.4501580000000  0.5823070000000 1.0
C      1  0.5415510000000  0.4178780000000  0.5586060000000 1.0
C      1  0.4559340000000  0.5719650000000  0.4858210000000 1.0
C      1  0.4129160000000  0.4457360000000  0.5404160000000 1.0
C      1  0.4718110000000  0.5462790000000  0.4221860000000 1.0
C      1  0.4176670000000  0.4708220000000  0.4157250000000 1.0
C      1  0.4856900000000  0.5294900000000  0.4426660000000 1.0
C      1  0.5680150000000  0.5793090000000  0.4704020000000 1.0
C      1  0.4090940000000  0.4309000000000  0.5079860000000 1.0
C      1  0.5476360000000  0.4706400000000  0.4111090000000 1.0
C      1  0.5564070000000  0.5987350000000  0.5149230000000 1.0
C      1  0.4567450000000  0.5797580000000  0.5108770000000 1.0
C      1  0.4835360000000  0.5683400000000  0.4052940000000 1.0
C      1  0.5132230000000  0.5659960000000  0.5886960000000 1.0
C      1  0.4272390000000  0.4682080000000  0.5073240000000 1.0
C      1  0.5617190000000  0.5783160000000  0.4413890000000 1.0
END
