TITL C-4164238-4211-367 85.6406550528185 125000 -29083.4746764363 0 0 197 (C1) n - 1
REM
REM in /home/nfs/bkarasulu/CARBON/AIRSS/Generating-Clusters/ReaxFF-fromJPCA2015/Units_Real/with-SteepDescent/Only-C1/SD-CG/Try1-3A/FIRE-CG
REM
REM
REM
REM
REM
REM ./C.cell (11c1c37f851c82e70ff6c80c92926a4b)
REM
REM compiler GCC version 9.2.1 20190827 (Red Hat 9.2.1-1)
REM options -cpp -mtune=generic -march=x86-64 -g -O0 -fpre-include=/usr/include/finclude/math-vector-fortran.h
REM seed -1044696737 -160389338 -1615289929 -395258018 1614209267 -69989195 -763266456 77274641 -1161389528 -1612380840 -1283765766 509025926 1038467338 1475996545 -615361595 -52279679 1563713483 1548837530 -1664626072 1566216813 256743839 -408655907 -276637081 -1575873456 -448773057 -2064442373 -1645179282 22618063 -1076240989 -1566179976 -1484246895 -1844101247 -959226660
REM
CELL 1.54180   50.00000   50.00000   50.00000   90.00000   90.00000   90.00000
LATT -1
SFAC C  
C      1  0.5624310000000  0.5325940000000  0.4848460000000 1.0
C      1  0.4355490000000  0.4841960000000  0.4893600000000 1.0
C      1  0.4900320000000  0.5828590000000  0.4241350000000 1.0
C      1  0.5310400000000  0.5271960000000  0.4458170000000 1.0
C      1  0.4536500000000  0.5977200000000  0.4972590000000 1.0
C      1  0.6054880000000  0.5520880000000  0.4933210000000 1.0
C      1  0.4829320000000  0.5418320000000  0.4451130000000 1.0
C      1  0.4364600000000  0.3949040000000  0.4911180000000 1.0
C      1  0.4907520000000  0.3931470000000  0.5383010000000 1.0
C      1  0.4802090000000  0.4309850000000  0.4788320000000 1.0
C      1  0.4903890000000  0.4816960000000  0.6083770000000 1.0
C      1  0.5607720000000  0.5645250000000  0.5874300000000 1.0
C      1  0.5209940000000  0.3987520000000  0.4445930000000 1.0
C      1  0.5170180000000  0.4753840000000  0.4000660000000 1.0
C      1  0.5552930000000  0.5423710000000  0.6065060000000 1.0
C      1  0.4857080000000  0.5077250000000  0.3755220000000 1.0
C      1  0.5171900000000  0.5355370000000  0.4892520000000 1.0
C      1  0.5093610000000  0.5618270000000  0.4868430000000 1.0
C      1  0.4261000000000  0.4552840000000  0.5772090000000 1.0
C      1  0.4668610000000  0.5486310000000  0.5048370000000 1.0
C      1  0.4769510000000  0.5844840000000  0.5675950000000 1.0
C      1  0.4667880000000  0.4835830000000  0.5657220000000 1.0
C      1  0.4528520000000  0.5914490000000  0.4709270000000 1.0
C      1  0.5465950000000  0.4416820000000  0.4848630000000 1.0
C      1  0.3856830000000  0.4951840000000  0.4927060000000 1.0
C      1  0.5585130000000  0.5715920000000  0.4223650000000 1.0
C      1  0.4823210000000  0.5922140000000  0.4557220000000 1.0
C      1  0.5846400000000  0.4556600000000  0.5141890000000 1.0
C      1  0.5483930000000  0.4678350000000  0.4431890000000 1.0
C      1  0.5137490000000  0.4707000000000  0.5632660000000 1.0
C      1  0.5040530000000  0.5212990000000  0.4406800000000 1.0
C      1  0.4216810000000  0.4935790000000  0.4147220000000 1.0
C      1  0.5405150000000  0.3975900000000  0.5368770000000 1.0
C      1  0.4404950000000  0.4618990000000  0.3996370000000 1.0
C      1  0.5414130000000  0.5970980000000  0.4249580000000 1.0
C      1  0.4669410000000  0.5291200000000  0.3787150000000 1.0
C      1  0.5557810000000  0.4787860000000  0.4686210000000 1.0
C      1  0.5381260000000  0.5300670000000  0.4018930000000 1.0
C      1  0.4894220000000  0.4745870000000  0.4836630000000 1.0
C      1  0.4690360000000  0.5163850000000  0.5365540000000 1.0
C      1  0.6130360000000  0.5045970000000  0.4722320000000 1.0
C      1  0.5155060000000  0.5573050000000  0.5859500000000 1.0
C      1  0.5027240000000  0.5366110000000  0.6226170000000 1.0
C      1  0.5414130000000  0.5118290000000  0.4240170000000 1.0
C      1  0.5579220000000  0.5170380000000  0.5920010000000 1.0
C      1  0.5364830000000  0.4827110000000  0.4224310000000 1.0
C      1  0.5095820000000  0.3903340000000  0.4699290000000 1.0
C      1  0.6001870000000  0.4906240000000  0.5707900000000 1.0
C      1  0.4265110000000  0.5287160000000  0.5883010000000 1.0
C      1  0.5352910000000  0.5751730000000  0.4804860000000 1.0
C      1  0.4025910000000  0.5471210000000  0.5418250000000 1.0
C      1  0.4140320000000  0.5451750000000  0.4998330000000 1.0
C      1  0.5003790000000  0.5646950000000  0.6109880000000 1.0
C      1  0.5287220000000  0.6020060000000  0.4748010000000 1.0
C      1  0.4631470000000  0.4601000000000  0.4164980000000 1.0
C      1  0.4214510000000  0.4982770000000  0.4694750000000 1.0
C      1  0.4674240000000  0.4948710000000  0.4459380000000 1.0
C      1  0.5367710000000  0.5742240000000  0.5748310000000 1.0
C      1  0.5378750000000  0.5590800000000  0.4059840000000 1.0
C      1  0.4471870000000  0.4155520000000  0.4450020000000 1.0
C      1  0.4279620000000  0.4105280000000  0.5156190000000 1.0
C      1  0.5100770000000  0.5195010000000  0.5518610000000 1.0
C      1  0.5639700000000  0.5207400000000  0.5626040000000 1.0
C      1  0.5974550000000  0.5170580000000  0.5216550000000 1.0
C      1  0.5869330000000  0.5652000000000  0.5452100000000 1.0
C      1  0.5375600000000  0.5121860000000  0.3780420000000 1.0
C      1  0.4642670000000  0.4387150000000  0.5423500000000 1.0
C      1  0.4624500000000  0.5211990000000  0.4587710000000 1.0
C      1  0.4859900000000  0.4496820000000  0.4974980000000 1.0
C      1  0.4996460000000  0.5181670000000  0.5004800000000 1.0
C      1  0.5978370000000  0.4542230000000  0.4754420000000 1.0
C      1  0.3924200000000  0.4660520000000  0.5058970000000 1.0
C      1  0.5443300000000  0.4670330000000  0.6017190000000 1.0
C      1  0.5130630000000  0.4640990000000  0.6089140000000 1.0
C      1  0.5308540000000  0.4225190000000  0.5684940000000 1.0
C      1  0.4270260000000  0.5660750000000  0.4321230000000 1.0
C      1  0.5837020000000  0.4758630000000  0.5888730000000 1.0
C      1  0.5261660000000  0.5727890000000  0.5474290000000 1.0
C      1  0.5710450000000  0.4266530000000  0.4874810000000 1.0
C      1  0.5323890000000  0.4522410000000  0.5073610000000 1.0
C      1  0.5810030000000  0.6035720000000  0.4825810000000 1.0
C      1  0.4426240000000  0.4205410000000  0.4961730000000 1.0
C      1  0.5842330000000  0.5615510000000  0.5717940000000 1.0
C      1  0.4920100000000  0.5648870000000  0.4617370000000 1.0
C      1  0.5886500000000  0.5366340000000  0.4428410000000 1.0
C      1  0.4418470000000  0.5838680000000  0.5440940000000 1.0
C      1  0.4427860000000  0.5443270000000  0.5203090000000 1.0
C      1  0.5674640000000  0.5724170000000  0.5253920000000 1.0
C      1  0.4378800000000  0.4898060000000  0.5572930000000 1.0
C      1  0.4580000000000  0.5031240000000  0.3756690000000 1.0
C      1  0.5122920000000  0.4463090000000  0.4468160000000 1.0
C      1  0.5617590000000  0.4888370000000  0.5480280000000 1.0
C      1  0.5723070000000  0.5572970000000  0.4451870000000 1.0
C      1  0.4494830000000  0.5757300000000  0.5693550000000 1.0
C      1  0.4757580000000  0.5586800000000  0.4186940000000 1.0
C      1  0.5595200000000  0.4947470000000  0.3816450000000 1.0
C      1  0.4683320000000  0.4700250000000  0.5929640000000 1.0
C      1  0.4107140000000  0.5383250000000  0.5673800000000 1.0
C      1  0.5773240000000  0.4695930000000  0.4869040000000 1.0
C      1  0.4823010000000  0.4005720000000  0.4817080000000 1.0
C      1  0.5397270000000  0.4416860000000  0.4554720000000 1.0
C      1  0.5127490000000  0.4909460000000  0.4949080000000 1.0
C      1  0.4257150000000  0.4372540000000  0.5273610000000 1.0
C      1  0.5407060000000  0.5272810000000  0.5422760000000 1.0
C      1  0.4662160000000  0.4136130000000  0.4239580000000 1.0
C      1  0.3938550000000  0.5195400000000  0.5047520000000 1.0
C      1  0.5618200000000  0.5599460000000  0.4761750000000 1.0
C      1  0.4390360000000  0.4395210000000  0.5534110000000 1.0
C      1  0.5347360000000  0.4961490000000  0.4770460000000 1.0
C      1  0.6127830000000  0.4758120000000  0.4634420000000 1.0
C      1  0.5759760000000  0.4278690000000  0.5168350000000 1.0
C      1  0.5250760000000  0.3888780000000  0.5134400000000 1.0
C      1  0.5269710000000  0.6072330000000  0.5243080000000 1.0
C      1  0.4317320000000  0.5022570000000  0.6038820000000 1.0
C      1  0.5372130000000  0.4795560000000  0.5558190000000 1.0
C      1  0.4323240000000  0.5878640000000  0.5194360000000 1.0
C      1  0.5059270000000  0.4379870000000  0.5100500000000 1.0
C      1  0.4988540000000  0.6082280000000  0.4748030000000 1.0
C      1  0.5785330000000  0.4817190000000  0.3925330000000 1.0
C      1  0.4283660000000  0.5018520000000  0.5339810000000 1.0
C      1  0.4549480000000  0.3952500000000  0.4692340000000 1.0
C      1  0.5084990000000  0.4378640000000  0.5628520000000 1.0
C      1  0.4327760000000  0.4429930000000  0.4810810000000 1.0
C      1  0.5620280000000  0.4903520000000  0.6041840000000 1.0
C      1  0.5556100000000  0.6101190000000  0.4770410000000 1.0
C      1  0.5625040000000  0.4533510000000  0.5842620000000 1.0
C      1  0.4940470000000  0.4909860000000  0.5592280000000 1.0
C      1  0.5536600000000  0.6020700000000  0.5269660000000 1.0
C      1  0.4949950000000  0.5225380000000  0.5283520000000 1.0
C      1  0.6126780000000  0.5236780000000  0.4966290000000 1.0
C      1  0.4713200000000  0.5218910000000  0.4871290000000 1.0
C      1  0.4025400000000  0.5187260000000  0.5320110000000 1.0
C      1  0.4989560000000  0.6051610000000  0.5229040000000 1.0
C      1  0.6043010000000  0.4947260000000  0.5427000000000 1.0
C      1  0.5012680000000  0.5367190000000  0.5729680000000 1.0
C      1  0.4883040000000  0.5651640000000  0.5136090000000 1.0
C      1  0.4198990000000  0.4354490000000  0.4390310000000 1.0
C      1  0.4950980000000  0.4943600000000  0.4400890000000 1.0
C      1  0.4953930000000  0.5791870000000  0.5391290000000 1.0
C      1  0.4819370000000  0.6080090000000  0.4980210000000 1.0
C      1  0.4906030000000  0.4382140000000  0.5355260000000 1.0
C      1  0.6076220000000  0.4851510000000  0.4349850000000 1.0
C      1  0.5942530000000  0.4782410000000  0.4122090000000 1.0
C      1  0.4588640000000  0.4672310000000  0.4446020000000 1.0
C      1  0.4539480000000  0.4990560000000  0.5219570000000 1.0
C      1  0.4389180000000  0.4730840000000  0.5964020000000 1.0
C      1  0.4226900000000  0.5196890000000  0.4257130000000 1.0
C      1  0.3830920000000  0.4447900000000  0.4858450000000 1.0
C      1  0.4574940000000  0.5478610000000  0.3989810000000 1.0
C      1  0.4114090000000  0.4731850000000  0.5592610000000 1.0
C      1  0.3932880000000  0.4905770000000  0.4650060000000 1.0
C      1  0.4892500000000  0.4232390000000  0.5813510000000 1.0
C      1  0.5878300000000  0.4710710000000  0.5382100000000 1.0
C      1  0.5495390000000  0.5026780000000  0.5218530000000 1.0
C      1  0.4902600000000  0.4628680000000  0.4003280000000 1.0
C      1  0.4306310000000  0.5448650000000  0.4119740000000 1.0
C      1  0.4622760000000  0.4942310000000  0.4946980000000 1.0
C      1  0.4254750000000  0.4602580000000  0.5029680000000 1.0
C      1  0.5178280000000  0.5815750000000  0.4138460000000 1.0
C      1  0.5300500000000  0.5356420000000  0.6179140000000 1.0
C      1  0.4574880000000  0.4429310000000  0.4631430000000 1.0
C      1  0.5718900000000  0.5171990000000  0.5073160000000 1.0
C      1  0.4100590000000  0.5674570000000  0.5199550000000 1.0
C      1  0.4813200000000  0.5778030000000  0.5942190000000 1.0
C      1  0.5307350000000  0.4805330000000  0.5142330000000 1.0
C      1  0.4206460000000  0.5496780000000  0.4713960000000 1.0
C      1  0.5006030000000  0.4381600000000  0.3953110000000 1.0
C      1  0.5060660000000  0.4217670000000  0.4325560000000 1.0
C      1  0.3955270000000  0.4644220000000  0.5369290000000 1.0
C      1  0.6061100000000  0.5141960000000  0.4459720000000 1.0
C      1  0.4297440000000  0.5750690000000  0.4603050000000 1.0
C      1  0.5563490000000  0.4315560000000  0.5656800000000 1.0
C      1  0.5877460000000  0.5384400000000  0.5552430000000 1.0
C      1  0.5610640000000  0.4179300000000  0.5397490000000 1.0
C      1  0.4302320000000  0.5243780000000  0.4561140000000 1.0
C      1  0.5344380000000  0.3889220000000  0.4850680000000 1.0
C      1  0.5244350000000  0.3966380000000  0.5617690000000 1.0
C      1  0.4971660000000  0.4415670000000  0.6016160000000 1.0
C      1  0.5839090000000  0.5721730000000  0.4955220000000 1.0
C      1  0.3937600000000  0.4653520000000  0.4497810000000 1.0
C      1  0.4038140000000  0.4377380000000  0.4646410000000 1.0
C      1  0.4890850000000  0.4148610000000  0.4070750000000 1.0
C      1  0.4994360000000  0.4702060000000  0.4558290000000 1.0
C      1  0.5376950000000  0.5237730000000  0.4740400000000 1.0
C      1  0.5592460000000  0.4020240000000  0.4745550000000 1.0
C      1  0.4512110000000  0.5425160000000  0.5759660000000 1.0
C      1  0.4821210000000  0.5142890000000  0.6122290000000 1.0
C      1  0.4959490000000  0.3905530000000  0.5115390000000 1.0
C      1  0.4137890000000  0.4619120000000  0.4291730000000 1.0
C      1  0.5122680000000  0.4974570000000  0.3814340000000 1.0
C      1  0.5470660000000  0.4099740000000  0.4503370000000 1.0
C      1  0.4516520000000  0.5133220000000  0.6211830000000 1.0
C      1  0.4359970000000  0.4881030000000  0.3895370000000 1.0
C      1  0.4498680000000  0.5353510000000  0.5463250000000 1.0
C      1  0.5431430000000  0.5551490000000  0.5322280000000 1.0
C      1  0.4949810000000  0.3976910000000  0.5658200000000 1.0
C      1  0.4771590000000  0.5301730000000  0.5873550000000 1.0
END
