TITL C-4164233-775-666 76.7264406992434 125000 -16926.0913651567 0 0 116 (C1) n - 1
REM
REM in /home/nfs/bkarasulu/CARBON/AIRSS/Generating-Clusters/ReaxFF-fromJPCA2015/Units_Real/with-SteepDescent/Only-C1/SD-CG/Try1-3A/FIRE-CG
REM
REM
REM
REM
REM
REM ./C.cell (11c1c37f851c82e70ff6c80c92926a4b)
REM
REM compiler GCC version 9.2.1 20190827 (Red Hat 9.2.1-1)
REM options -cpp -mtune=generic -march=x86-64 -g -O0 -fpre-include=/usr/include/finclude/math-vector-fortran.h
REM seed 1815434909 -2132424569 -411809340 -1188296551 -1141509688 1520717652 -491838139 1937272579 -1176135006 -1328703592 -1753089550 1712002883 -1424143636 -25540578 922701468 463285406 -389384567 150984428 1454030341 -932286321 -50053001 -1224824748 1855620536 2112758879 1471244643 -595348682 1795740716 -1343046958 -866967045 -1611861958 496600602 1480553314 -1384375636
REM
CELL 1.54180   50.00000   50.00000   50.00000   90.00000   90.00000   90.00000
LATT -1
SFAC C  
C      1  0.5105960000000  0.5245870000000  0.5180240000000 1.0
C      1  0.4520570000000  0.4890800000000  0.4233120000000 1.0
C      1  0.4769590000000  0.5738850000000  0.5574250000000 1.0
C      1  0.4780160000000  0.4147030000000  0.5483500000000 1.0
C      1  0.4876750000000  0.5293850000000  0.5346180000000 1.0
C      1  0.4432470000000  0.4805410000000  0.4719130000000 1.0
C      1  0.4450620000000  0.4487900000000  0.5613460000000 1.0
C      1  0.5026290000000  0.4199540000000  0.5323940000000 1.0
C      1  0.3949460000000  0.4652060000000  0.4838000000000 1.0
C      1  0.4487600000000  0.5595870000000  0.4385320000000 1.0
C      1  0.5392540000000  0.4455700000000  0.4254350000000 1.0
C      1  0.5000390000000  0.4951630000000  0.4042500000000 1.0
C      1  0.4656960000000  0.5866840000000  0.5332380000000 1.0
C      1  0.5560610000000  0.5701800000000  0.4838230000000 1.0
C      1  0.4137790000000  0.4812040000000  0.5168800000000 1.0
C      1  0.5607280000000  0.4931770000000  0.4809340000000 1.0
C      1  0.4317280000000  0.4707610000000  0.4335930000000 1.0
C      1  0.5997190000000  0.4988140000000  0.5270620000000 1.0
C      1  0.4770060000000  0.4790850000000  0.5533440000000 1.0
C      1  0.5205870000000  0.4942990000000  0.5144720000000 1.0
C      1  0.5269600000000  0.4726630000000  0.5921050000000 1.0
C      1  0.5384820000000  0.4622450000000  0.5475230000000 1.0
C      1  0.5392920000000  0.5784100000000  0.4618110000000 1.0
C      1  0.5350910000000  0.4995760000000  0.5922960000000 1.0
C      1  0.5266840000000  0.4208110000000  0.4825530000000 1.0
C      1  0.4706410000000  0.5660460000000  0.4791900000000 1.0
C      1  0.4689970000000  0.4866780000000  0.5076190000000 1.0
C      1  0.4856480000000  0.5106530000000  0.4739480000000 1.0
C      1  0.6099680000000  0.4941340000000  0.5005500000000 1.0
C      1  0.4426040000000  0.5739740000000  0.5199050000000 1.0
C      1  0.4569860000000  0.5141650000000  0.4382850000000 1.0
C      1  0.4326790000000  0.4866850000000  0.5616350000000 1.0
C      1  0.4889180000000  0.5117070000000  0.5869380000000 1.0
C      1  0.4720630000000  0.4865570000000  0.4657820000000 1.0
C      1  0.5301580000000  0.5589290000000  0.4427510000000 1.0
C      1  0.4685560000000  0.4435460000000  0.4345170000000 1.0
C      1  0.5070350000000  0.4197230000000  0.4641500000000 1.0
C      1  0.4811360000000  0.5440690000000  0.5593340000000 1.0
C      1  0.4829050000000  0.5309970000000  0.4369760000000 1.0
C      1  0.5029630000000  0.4460040000000  0.5184800000000 1.0
C      1  0.5262570000000  0.5090990000000  0.4392850000000 1.0
C      1  0.5487860000000  0.4658550000000  0.4633320000000 1.0
C      1  0.4766050000000  0.5582600000000  0.4277330000000 1.0
C      1  0.5413830000000  0.4167010000000  0.5159120000000 1.0
C      1  0.4599520000000  0.5297670000000  0.5201720000000 1.0
C      1  0.4612940000000  0.4349100000000  0.4920860000000 1.0
C      1  0.4571770000000  0.4156610000000  0.5118430000000 1.0
C      1  0.5035250000000  0.5850970000000  0.5515580000000 1.0
C      1  0.5769630000000  0.5044460000000  0.4102750000000 1.0
C      1  0.4250430000000  0.4515750000000  0.5420730000000 1.0
C      1  0.5880370000000  0.4789110000000  0.4888090000000 1.0
C      1  0.6041710000000  0.4941080000000  0.4702650000000 1.0
C      1  0.4986540000000  0.5970840000000  0.4498750000000 1.0
C      1  0.5662200000000  0.5244010000000  0.4631440000000 1.0
C      1  0.5591310000000  0.4607510000000  0.4353970000000 1.0
C      1  0.4918320000000  0.4733910000000  0.3967060000000 1.0
C      1  0.4393790000000  0.5142070000000  0.5658040000000 1.0
C      1  0.5410210000000  0.5356140000000  0.5295910000000 1.0
C      1  0.5258900000000  0.4824260000000  0.4523120000000 1.0
C      1  0.4237930000000  0.5502480000000  0.5249420000000 1.0
C      1  0.5271150000000  0.5679340000000  0.5570060000000 1.0
C      1  0.4897930000000  0.4528450000000  0.5838150000000 1.0
C      1  0.4857940000000  0.4819870000000  0.5789240000000 1.0
C      1  0.5302460000000  0.4169710000000  0.5425660000000 1.0
C      1  0.4696150000000  0.4365330000000  0.5688200000000 1.0
C      1  0.5400360000000  0.5801980000000  0.5075650000000 1.0
C      1  0.4850430000000  0.4730600000000  0.4886240000000 1.0
C      1  0.4438390000000  0.5692640000000  0.4658620000000 1.0
C      1  0.5839810000000  0.4750920000000  0.5367900000000 1.0
C      1  0.5173440000000  0.5959230000000  0.4730600000000 1.0
C      1  0.5557070000000  0.5025910000000  0.5702940000000 1.0
C      1  0.5847560000000  0.5410910000000  0.5078820000000 1.0
C      1  0.5641590000000  0.4325900000000  0.5060310000000 1.0
C      1  0.5843160000000  0.5234370000000  0.5322350000000 1.0
C      1  0.5734760000000  0.5471600000000  0.4820240000000 1.0
C      1  0.5423550000000  0.5659640000000  0.5328100000000 1.0
C      1  0.4918090000000  0.5498330000000  0.4672400000000 1.0
C      1  0.5352100000000  0.4387190000000  0.5615570000000 1.0
C      1  0.5528010000000  0.5287500000000  0.5583420000000 1.0
C      1  0.5313460000000  0.5426180000000  0.5724920000000 1.0
C      1  0.4270470000000  0.5458780000000  0.4728680000000 1.0
C      1  0.5171950000000  0.4328640000000  0.4272710000000 1.0
C      1  0.4434360000000  0.4476700000000  0.4470660000000 1.0
C      1  0.4393770000000  0.4511310000000  0.4786770000000 1.0
C      1  0.5415730000000  0.5328310000000  0.4470690000000 1.0
C      1  0.4930050000000  0.4256190000000  0.4403380000000 1.0
C      1  0.5879550000000  0.5072410000000  0.4498840000000 1.0
C      1  0.5160730000000  0.5224660000000  0.5879220000000 1.0
C      1  0.4363740000000  0.5335970000000  0.4458870000000 1.0
C      1  0.4584560000000  0.4029800000000  0.5312480000000 1.0
C      1  0.4204550000000  0.5057100000000  0.5001620000000 1.0
C      1  0.5783310000000  0.4538530000000  0.5190110000000 1.0
C      1  0.4380550000000  0.5333500000000  0.5439250000000 1.0
C      1  0.4501990000000  0.5076040000000  0.5032990000000 1.0
C      1  0.5185910000000  0.4678010000000  0.5284730000000 1.0
C      1  0.5473760000000  0.4386920000000  0.4813040000000 1.0
C      1  0.4039510000000  0.4904790000000  0.4751240000000 1.0
C      1  0.4862790000000  0.4477020000000  0.4956160000000 1.0
C      1  0.4230920000000  0.4908420000000  0.4532270000000 1.0
C      1  0.4589710000000  0.5570840000000  0.5037480000000 1.0
C      1  0.5001450000000  0.5296080000000  0.4865920000000 1.0
C      1  0.5602590000000  0.4792180000000  0.5540750000000 1.0
C      1  0.4717980000000  0.4670850000000  0.4162780000000 1.0
C      1  0.5194210000000  0.4465140000000  0.5854400000000 1.0
C      1  0.4616940000000  0.4734110000000  0.5319170000000 1.0
C      1  0.5771830000000  0.4873100000000  0.4288570000000 1.0
C      1  0.5026190000000  0.5715180000000  0.4340950000000 1.0
C      1  0.5137130000000  0.5920080000000  0.5024230000000 1.0
C      1  0.4147350000000  0.4564650000000  0.5016980000000 1.0
C      1  0.4655720000000  0.5256710000000  0.5765900000000 1.0
C      1  0.4301440000000  0.4755910000000  0.5384650000000 1.0
C      1  0.4941000000000  0.5933010000000  0.5245120000000 1.0
C      1  0.5628400000000  0.5261200000000  0.5153620000000 1.0
C      1  0.5046540000000  0.5172460000000  0.4205800000000 1.0
C      1  0.4186490000000  0.5365000000000  0.4990390000000 1.0
C      1  0.5405220000000  0.4937420000000  0.4978160000000 1.0
END
