TITL C-4164243-3780-273 8.68100183395597 125000 -12738.7895787502 0 0 86 (C1) n - 1
REM
REM in /home/nfs/bkarasulu/CARBON/AIRSS/Generating-Clusters/ReaxFF-fromJPCA2015/Units_Real/with-SteepDescent/Only-C1/SD-CG/Try1-3A/FIRE-CG
REM
REM
REM
REM
REM
REM ./C.cell (11c1c37f851c82e70ff6c80c92926a4b)
REM
REM compiler GCC version 9.2.1 20190827 (Red Hat 9.2.1-1)
REM options -cpp -mtune=generic -march=x86-64 -g -O0 -fpre-include=/usr/include/finclude/math-vector-fortran.h
REM seed 16825766 -156794480 -657946208 -1730342731 349654676 367707013 1934599479 -1339964035 689160439 -1211116079 1536541972 -958830664 1354103440 54789047 2022143910 1479521602 2061062389 -1324184753 1019535237 -1241465852 133427350 2087210819 -1032225169 1788338655 304750468 -533341513 1883860827 -1729199306 1133775469 1330459205 -255312135 1309365158 1214271706
REM
CELL 1.54180   50.00000   50.00000   50.00000   90.00000   90.00000   90.00000
LATT -1
SFAC C  
C      1  0.4290040000000  0.5270540000000  0.4762880000000 1.0
C      1  0.5000220000000  0.5232020000000  0.4193160000000 1.0
C      1  0.4082760000000  0.5100870000000  0.5219960000000 1.0
C      1  0.4873450000000  0.5552020000000  0.4608040000000 1.0
C      1  0.4371970000000  0.4781360000000  0.4614060000000 1.0
C      1  0.4660030000000  0.5096580000000  0.4992060000000 1.0
C      1  0.5231350000000  0.4289330000000  0.5044850000000 1.0
C      1  0.4859340000000  0.4944390000000  0.5568700000000 1.0
C      1  0.4678190000000  0.4280060000000  0.5094160000000 1.0
C      1  0.5023430000000  0.5067720000000  0.5780150000000 1.0
C      1  0.4839040000000  0.4558710000000  0.4331700000000 1.0
C      1  0.4845620000000  0.4763790000000  0.4121600000000 1.0
C      1  0.5251740000000  0.5345620000000  0.5152200000000 1.0
C      1  0.4926890000000  0.4270720000000  0.4682960000000 1.0
C      1  0.4702340000000  0.5545400000000  0.5295770000000 1.0
C      1  0.5754230000000  0.4728430000000  0.5212740000000 1.0
C      1  0.4791750000000  0.5016750000000  0.4741130000000 1.0
C      1  0.5607640000000  0.5104920000000  0.5468400000000 1.0
C      1  0.5517840000000  0.5780710000000  0.4704130000000 1.0
C      1  0.5369640000000  0.4347140000000  0.4788550000000 1.0
C      1  0.4788740000000  0.5281990000000  0.5178290000000 1.0
C      1  0.5503340000000  0.5549360000000  0.4562900000000 1.0
C      1  0.5304740000000  0.5232060000000  0.4895930000000 1.0
C      1  0.5147580000000  0.4935100000000  0.5273220000000 1.0
C      1  0.5118750000000  0.5885180000000  0.5018500000000 1.0
C      1  0.5025900000000  0.4671510000000  0.5252280000000 1.0
C      1  0.5038950000000  0.4841730000000  0.4794500000000 1.0
C      1  0.4651480000000  0.5419900000000  0.4292810000000 1.0
C      1  0.4703190000000  0.4422070000000  0.4544790000000 1.0
C      1  0.5019620000000  0.4539080000000  0.5502770000000 1.0
C      1  0.5612290000000  0.4514450000000  0.4765220000000 1.0
C      1  0.5662770000000  0.4971920000000  0.4550180000000 1.0
C      1  0.4650070000000  0.5148780000000  0.5547580000000 1.0
C      1  0.4625010000000  0.4819940000000  0.5092240000000 1.0
C      1  0.5638810000000  0.4493890000000  0.5343950000000 1.0
C      1  0.4586250000000  0.4962310000000  0.4539140000000 1.0
C      1  0.4953790000000  0.4232980000000  0.4969040000000 1.0
C      1  0.4986570000000  0.5739240000000  0.5215100000000 1.0
C      1  0.5782590000000  0.5198750000000  0.5032840000000 1.0
C      1  0.4212830000000  0.4983360000000  0.4769640000000 1.0
C      1  0.5520080000000  0.5653650000000  0.5149250000000 1.0
C      1  0.4552820000000  0.5153380000000  0.4297220000000 1.0
C      1  0.4203860000000  0.5360310000000  0.5287740000000 1.0
C      1  0.4393620000000  0.5029390000000  0.5598310000000 1.0
C      1  0.4421320000000  0.5511690000000  0.5174260000000 1.0
C      1  0.5742770000000  0.4721420000000  0.4930920000000 1.0
C      1  0.4161800000000  0.4884880000000  0.5042960000000 1.0
C      1  0.4874170000000  0.4691290000000  0.5003830000000 1.0
C      1  0.4866330000000  0.5794460000000  0.4946900000000 1.0
C      1  0.5132810000000  0.4745720000000  0.4106970000000 1.0
C      1  0.4722770000000  0.4777270000000  0.5774270000000 1.0
C      1  0.5401380000000  0.4324020000000  0.5286820000000 1.0
C      1  0.5400210000000  0.5071320000000  0.4440860000000 1.0
C      1  0.5270420000000  0.5427530000000  0.5585530000000 1.0
C      1  0.5769650000000  0.4998480000000  0.4823010000000 1.0
C      1  0.5228060000000  0.4975980000000  0.4989180000000 1.0
C      1  0.4776780000000  0.4400040000000  0.5547160000000 1.0
C      1  0.5716580000000  0.5484030000000  0.5015140000000 1.0
C      1  0.5279250000000  0.4805290000000  0.4537990000000 1.0
C      1  0.5016990000000  0.5363900000000  0.5691000000000 1.0
C      1  0.5250880000000  0.5038480000000  0.4141360000000 1.0
C      1  0.5428920000000  0.5179920000000  0.5653300000000 1.0
C      1  0.4680230000000  0.5645680000000  0.4775800000000 1.0
C      1  0.5397320000000  0.5832440000000  0.4960580000000 1.0
C      1  0.4754670000000  0.5419610000000  0.5565460000000 1.0
C      1  0.5033720000000  0.5393990000000  0.4443900000000 1.0
C      1  0.4468750000000  0.4514830000000  0.4692980000000 1.0
C      1  0.4447350000000  0.4435380000000  0.4976240000000 1.0
C      1  0.4777220000000  0.5057340000000  0.4124680000000 1.0
C      1  0.5279780000000  0.5588520000000  0.5319360000000 1.0
C      1  0.5430410000000  0.4463530000000  0.5547760000000 1.0
C      1  0.5042910000000  0.5201620000000  0.5276220000000 1.0
C      1  0.4648290000000  0.4361870000000  0.5333230000000 1.0
C      1  0.4585780000000  0.4518460000000  0.5706160000000 1.0
C      1  0.4423630000000  0.5497900000000  0.4885720000000 1.0
C      1  0.5724130000000  0.5590160000000  0.4739950000000 1.0
C      1  0.4437340000000  0.4776390000000  0.5729060000000 1.0
C      1  0.5273540000000  0.4929620000000  0.5755730000000 1.0
C      1  0.5240150000000  0.4651280000000  0.5668970000000 1.0
C      1  0.4366930000000  0.4685790000000  0.5111500000000 1.0
C      1  0.5154700000000  0.4570380000000  0.4360270000000 1.0
C      1  0.5181140000000  0.4341690000000  0.4569720000000 1.0
C      1  0.5318580000000  0.5329300000000  0.4597410000000 1.0
C      1  0.5783750000000  0.5026050000000  0.5282870000000 1.0
C      1  0.4171100000000  0.5151960000000  0.5478910000000 1.0
C      1  0.5556340000000  0.4703050000000  0.4555410000000 1.0
END
