TITL C-4164233-775-224 57.6256152008444 125000 -26871.1161954607 0 0 181 (C1) n - 1
REM
REM in /home/nfs/bkarasulu/CARBON/AIRSS/Generating-Clusters/ReaxFF-fromJPCA2015/Units_Real/with-SteepDescent/Only-C1/SD-CG/Try1-3A/FIRE-CG
REM
REM
REM
REM
REM
REM ./C.cell (11c1c37f851c82e70ff6c80c92926a4b)
REM
REM compiler GCC version 9.2.1 20190827 (Red Hat 9.2.1-1)
REM options -cpp -mtune=generic -march=x86-64 -g -O0 -fpre-include=/usr/include/finclude/math-vector-fortran.h
REM seed 1014344149 -719528150 513522196 1586417228 1903995347 -1638880146 -423673064 1208949197 -1303809875 1983523177 -501782163 1138372822 -603294011 298795918 -553665523 -856308093 -91872860 1853905172 2054425161 1162755569 836217871 55379028 131351135 840219071 1969422557 -800301661 1814965419 -116017797 14980347 682933249 956438528 -1478461834 2034353347
REM
CELL 1.54180   50.00000   50.00000   50.00000   90.00000   90.00000   90.00000
LATT -1
SFAC C  
C      1  0.4428200000000  0.5679370000000  0.4613520000000 1.0
C      1  0.4617150000000  0.4867700000000  0.4625300000000 1.0
C      1  0.4713080000000  0.5616690000000  0.5028510000000 1.0
C      1  0.5630480000000  0.4301310000000  0.4775080000000 1.0
C      1  0.4973920000000  0.4571570000000  0.4774760000000 1.0
C      1  0.4517550000000  0.4065900000000  0.5138290000000 1.0
C      1  0.4985730000000  0.5720640000000  0.4142590000000 1.0
C      1  0.4098530000000  0.5413770000000  0.5077170000000 1.0
C      1  0.4076320000000  0.5455920000000  0.4780550000000 1.0
C      1  0.6093900000000  0.4897710000000  0.4511860000000 1.0
C      1  0.3934430000000  0.4947170000000  0.4731890000000 1.0
C      1  0.5025990000000  0.3881640000000  0.5080170000000 1.0
C      1  0.4024820000000  0.5006840000000  0.4482070000000 1.0
C      1  0.4725350000000  0.5909830000000  0.4965830000000 1.0
C      1  0.4841840000000  0.5002640000000  0.3995120000000 1.0
C      1  0.4979290000000  0.6041330000000  0.4995630000000 1.0
C      1  0.3886020000000  0.4865720000000  0.5493150000000 1.0
C      1  0.5216630000000  0.4309020000000  0.4244030000000 1.0
C      1  0.5580330000000  0.5352210000000  0.5747910000000 1.0
C      1  0.5137090000000  0.5847350000000  0.5185050000000 1.0
C      1  0.4549860000000  0.5416810000000  0.4574970000000 1.0
C      1  0.4586470000000  0.4968690000000  0.5189770000000 1.0
C      1  0.5048230000000  0.5265470000000  0.4342850000000 1.0
C      1  0.4825080000000  0.4017630000000  0.5233860000000 1.0
C      1  0.5127790000000  0.5609840000000  0.4727600000000 1.0
C      1  0.5136810000000  0.4621160000000  0.4301030000000 1.0
C      1  0.4089460000000  0.5293800000000  0.4519570000000 1.0
C      1  0.5845590000000  0.4273400000000  0.5192260000000 1.0
C      1  0.4864790000000  0.4607120000000  0.4215070000000 1.0
C      1  0.5489890000000  0.5707030000000  0.4234800000000 1.0
C      1  0.4609300000000  0.4581340000000  0.5020200000000 1.0
C      1  0.5830820000000  0.5705710000000  0.4808090000000 1.0
C      1  0.4457370000000  0.5506000000000  0.4180200000000 1.0
C      1  0.5565040000000  0.4181130000000  0.5511460000000 1.0
C      1  0.5093180000000  0.4750810000000  0.4600150000000 1.0
C      1  0.4718960000000  0.4074340000000  0.4411620000000 1.0
C      1  0.4533420000000  0.5595630000000  0.5815260000000 1.0
C      1  0.5555980000000  0.4771230000000  0.4148380000000 1.0
C      1  0.4403880000000  0.4841800000000  0.4157010000000 1.0
C      1  0.5134880000000  0.5083330000000  0.4096580000000 1.0
C      1  0.5081800000000  0.5938600000000  0.5626170000000 1.0
C      1  0.4663990000000  0.5145250000000  0.4983730000000 1.0
C      1  0.4729490000000  0.4813530000000  0.5398420000000 1.0
C      1  0.5157050000000  0.5109370000000  0.4975240000000 1.0
C      1  0.5365120000000  0.4278490000000  0.5700870000000 1.0
C      1  0.4248960000000  0.4456980000000  0.5339830000000 1.0
C      1  0.4669590000000  0.6068300000000  0.4723070000000 1.0
C      1  0.5532990000000  0.4566810000000  0.4928820000000 1.0
C      1  0.5865960000000  0.5722170000000  0.5298640000000 1.0
C      1  0.5811820000000  0.5149550000000  0.5589100000000 1.0
C      1  0.5327890000000  0.4654710000000  0.6060570000000 1.0
C      1  0.4395350000000  0.4194330000000  0.5369720000000 1.0
C      1  0.5183160000000  0.5914780000000  0.4548970000000 1.0
C      1  0.4709950000000  0.5604110000000  0.4097520000000 1.0
C      1  0.4338200000000  0.5021460000000  0.5317890000000 1.0
C      1  0.4137620000000  0.4523210000000  0.4442240000000 1.0
C      1  0.5225440000000  0.5391610000000  0.4540520000000 1.0
C      1  0.5611830000000  0.4996930000000  0.5113140000000 1.0
C      1  0.4171160000000  0.4789580000000  0.4329700000000 1.0
C      1  0.5321600000000  0.5324830000000  0.4021160000000 1.0
C      1  0.5198900000000  0.4562180000000  0.5410370000000 1.0
C      1  0.5743820000000  0.4739420000000  0.5059100000000 1.0
C      1  0.4764130000000  0.5215810000000  0.4394090000000 1.0
C      1  0.6081460000000  0.4896090000000  0.5269840000000 1.0
C      1  0.5239560000000  0.4048380000000  0.4361130000000 1.0
C      1  0.5602010000000  0.4869580000000  0.4566480000000 1.0
C      1  0.5373800000000  0.5060900000000  0.5569020000000 1.0
C      1  0.5990830000000  0.5690740000000  0.5056310000000 1.0
C      1  0.4976710000000  0.4702460000000  0.5270680000000 1.0
C      1  0.5393410000000  0.4793850000000  0.4743740000000 1.0
C      1  0.6127260000000  0.4699080000000  0.4734100000000 1.0
C      1  0.4258880000000  0.4915400000000  0.5963450000000 1.0
C      1  0.4620050000000  0.5052840000000  0.4161910000000 1.0
C      1  0.5472610000000  0.5522080000000  0.5100090000000 1.0
C      1  0.4661350000000  0.4487480000000  0.4382620000000 1.0
C      1  0.5574340000000  0.4712240000000  0.5715810000000 1.0
C      1  0.5654570000000  0.4636250000000  0.4395190000000 1.0
C      1  0.4507260000000  0.5944600000000  0.4522520000000 1.0
C      1  0.5057830000000  0.5574220000000  0.5271280000000 1.0
C      1  0.6018370000000  0.4434430000000  0.4685200000000 1.0
C      1  0.5565560000000  0.4270360000000  0.5247250000000 1.0
C      1  0.4428800000000  0.4540150000000  0.4869990000000 1.0
C      1  0.5899080000000  0.4269760000000  0.4898620000000 1.0
C      1  0.6030080000000  0.4769370000000  0.5007180000000 1.0
C      1  0.4750320000000  0.6043010000000  0.4448120000000 1.0
C      1  0.5444640000000  0.5989720000000  0.4864230000000 1.0
C      1  0.5237070000000  0.5359800000000  0.5192710000000 1.0
C      1  0.5274990000000  0.6027040000000  0.5414840000000 1.0
C      1  0.4733970000000  0.4118460000000  0.4139570000000 1.0
C      1  0.4789610000000  0.5918510000000  0.5573120000000 1.0
C      1  0.4998420000000  0.3875020000000  0.4784380000000 1.0
C      1  0.4218610000000  0.4479220000000  0.5046680000000 1.0
C      1  0.5506650000000  0.5621440000000  0.5685090000000 1.0
C      1  0.4922960000000  0.4502770000000  0.5856140000000 1.0
C      1  0.5476280000000  0.5888910000000  0.4460430000000 1.0
C      1  0.4139050000000  0.5587440000000  0.5586070000000 1.0
C      1  0.5245390000000  0.3929340000000  0.4632510000000 1.0
C      1  0.4586110000000  0.5438770000000  0.5258160000000 1.0
C      1  0.5252760000000  0.5599730000000  0.4092990000000 1.0
C      1  0.5039870000000  0.4111980000000  0.4135470000000 1.0
C      1  0.5083940000000  0.4939700000000  0.5188410000000 1.0
C      1  0.4511810000000  0.4612880000000  0.4007420000000 1.0
C      1  0.4894080000000  0.5495210000000  0.4851640000000 1.0
C      1  0.4721570000000  0.5300000000000  0.5483030000000 1.0
C      1  0.5183350000000  0.6090730000000  0.4792910000000 1.0
C      1  0.4457290000000  0.5251110000000  0.4800710000000 1.0
C      1  0.5083600000000  0.5480560000000  0.5798120000000 1.0
C      1  0.5888530000000  0.5244260000000  0.4803230000000 1.0
C      1  0.5358730000000  0.4432750000000  0.5143860000000 1.0
C      1  0.5320580000000  0.3884240000000  0.5142700000000 1.0
C      1  0.3859930000000  0.4841950000000  0.5224220000000 1.0
C      1  0.4249060000000  0.5406110000000  0.4305040000000 1.0
C      1  0.4873480000000  0.4141500000000  0.5486850000000 1.0
C      1  0.4688020000000  0.5291290000000  0.6056880000000 1.0
C      1  0.4877220000000  0.4992670000000  0.4604100000000 1.0
C      1  0.3873450000000  0.4887690000000  0.4972420000000 1.0
C      1  0.6030880000000  0.5175010000000  0.5351050000000 1.0
C      1  0.5338320000000  0.4777640000000  0.5561720000000 1.0
C      1  0.4531030000000  0.5787990000000  0.5578800000000 1.0
C      1  0.5415940000000  0.5027240000000  0.4894270000000 1.0
C      1  0.5218100000000  0.4240040000000  0.4960060000000 1.0
C      1  0.5821310000000  0.4854000000000  0.5673280000000 1.0
C      1  0.5487730000000  0.4477490000000  0.5881040000000 1.0
C      1  0.5996230000000  0.4931090000000  0.4233120000000 1.0
C      1  0.4189280000000  0.5689430000000  0.5120360000000 1.0
C      1  0.4206520000000  0.5712050000000  0.4812660000000 1.0
C      1  0.5242460000000  0.5727830000000  0.5758200000000 1.0
C      1  0.5278730000000  0.4820310000000  0.4148880000000 1.0
C      1  0.4722710000000  0.5017230000000  0.6105310000000 1.0
C      1  0.5561070000000  0.5994960000000  0.5393130000000 1.0
C      1  0.5978070000000  0.4694130000000  0.5485120000000 1.0
C      1  0.5596810000000  0.5670230000000  0.5374650000000 1.0
C      1  0.5642950000000  0.5462580000000  0.4298780000000 1.0
C      1  0.5769540000000  0.4401100000000  0.4523350000000 1.0
C      1  0.4747480000000  0.5028000000000  0.5618420000000 1.0
C      1  0.5515780000000  0.5397300000000  0.4554100000000 1.0
C      1  0.4531010000000  0.4431270000000  0.5723870000000 1.0
C      1  0.4598870000000  0.4181350000000  0.5581000000000 1.0
C      1  0.6105300000000  0.5414190000000  0.5187440000000 1.0
C      1  0.4148140000000  0.4323620000000  0.4628010000000 1.0
C      1  0.5663640000000  0.5913750000000  0.4685830000000 1.0
C      1  0.4806620000000  0.4073890000000  0.4678590000000 1.0
C      1  0.5883240000000  0.4431190000000  0.5423480000000 1.0
C      1  0.5069020000000  0.4740830000000  0.5929890000000 1.0
C      1  0.4403100000000  0.4987410000000  0.4720780000000 1.0
C      1  0.4927490000000  0.5493470000000  0.5512980000000 1.0
C      1  0.4377580000000  0.4878410000000  0.5578490000000 1.0
C      1  0.3954320000000  0.5139310000000  0.5647700000000 1.0
C      1  0.5319790000000  0.5277540000000  0.5813030000000 1.0
C      1  0.6162410000000  0.5289500000000  0.4918660000000 1.0
C      1  0.4783260000000  0.4720260000000  0.3954490000000 1.0
C      1  0.4542080000000  0.4350950000000  0.4153240000000 1.0
C      1  0.4495770000000  0.4623960000000  0.5490890000000 1.0
C      1  0.4328200000000  0.5302970000000  0.5234040000000 1.0
C      1  0.4975830000000  0.5921600000000  0.4344990000000 1.0
C      1  0.5443780000000  0.3919540000000  0.5399790000000 1.0
C      1  0.5845870000000  0.5027210000000  0.4617230000000 1.0
C      1  0.4867990000000  0.4656550000000  0.5009730000000 1.0
C      1  0.4911730000000  0.5176010000000  0.4840050000000 1.0
C      1  0.5600010000000  0.5265840000000  0.4084290000000 1.0
C      1  0.4188950000000  0.4726970000000  0.5747650000000 1.0
C      1  0.4500800000000  0.4620980000000  0.4585570000000 1.0
C      1  0.5408360000000  0.4042750000000  0.4849260000000 1.0
C      1  0.5661310000000  0.5455850000000  0.4820500000000 1.0
C      1  0.4785200000000  0.5514130000000  0.5942030000000 1.0
C      1  0.4282480000000  0.5444950000000  0.5799630000000 1.0
C      1  0.5738130000000  0.4998150000000  0.4096280000000 1.0
C      1  0.5617140000000  0.5126440000000  0.5371610000000 1.0
C      1  0.4652420000000  0.4562080000000  0.5950330000000 1.0
C      1  0.4170860000000  0.5175640000000  0.5843600000000 1.0
C      1  0.4904020000000  0.4989630000000  0.5866320000000 1.0
C      1  0.4282080000000  0.5754110000000  0.5395740000000 1.0
C      1  0.4519790000000  0.4812260000000  0.6050970000000 1.0
C      1  0.4997950000000  0.4292560000000  0.4779900000000 1.0
C      1  0.5325170000000  0.5732810000000  0.4975240000000 1.0
C      1  0.3897310000000  0.5399720000000  0.5531690000000 1.0
C      1  0.4107020000000  0.4247630000000  0.4893530000000 1.0
C      1  0.5172090000000  0.5111620000000  0.5391700000000 1.0
C      1  0.4356090000000  0.4119550000000  0.4912670000000 1.0
C      1  0.4032380000000  0.4622710000000  0.5528640000000 1.0
C      1  0.5080040000000  0.4340490000000  0.5619840000000 1.0
END
