TITL C-4164238-4211-747 -9.35537185935129 125000 -13510.0611400391 0 0 91 (C1) n - 1
REM
REM in /home/nfs/bkarasulu/CARBON/AIRSS/Generating-Clusters/ReaxFF-fromJPCA2015/Units_Real/with-SteepDescent/Only-C1/SD-CG/Try1-3A/FIRE-CG
REM
REM
REM
REM
REM
REM ./C.cell (11c1c37f851c82e70ff6c80c92926a4b)
REM
REM compiler GCC version 9.2.1 20190827 (Red Hat 9.2.1-1)
REM options -cpp -mtune=generic -march=x86-64 -g -O0 -fpre-include=/usr/include/finclude/math-vector-fortran.h
REM seed 572978379 831491526 1963427757 -1332244295 1969960784 -1846775748 590040761 -1957950801 314701672 -588213926 -2099338065 -601200199 1097402554 -87274325 1536854016 1289535823 -570096180 -1261910481 -497107992 1140416788 -2065938253 368762978 -411879671 1019530967 -1826172372 -1546558241 1382534629 1976250779 1046345624 1397587399 192745997 -1581246203 304646167
REM
CELL 1.54180   50.00000   50.00000   50.00000   90.00000   90.00000   90.00000
LATT -1
SFAC C  
C      1  0.4922220000000  0.5772970000000  0.5167990000000 1.0
C      1  0.4888800000000  0.4560130000000  0.4415270000000 1.0
C      1  0.5149320000000  0.5033670000000  0.4518950000000 1.0
C      1  0.5786230000000  0.5114490000000  0.4717740000000 1.0
C      1  0.5589620000000  0.4541640000000  0.5368630000000 1.0
C      1  0.4857050000000  0.4422530000000  0.5580450000000 1.0
C      1  0.4220360000000  0.4671400000000  0.5241030000000 1.0
C      1  0.4595270000000  0.4963880000000  0.4331190000000 1.0
C      1  0.4700140000000  0.5228960000000  0.4663870000000 1.0
C      1  0.5017790000000  0.4789060000000  0.4649190000000 1.0
C      1  0.5629200000000  0.4928240000000  0.4555750000000 1.0
C      1  0.4547830000000  0.4743920000000  0.4778370000000 1.0
C      1  0.5218710000000  0.5594740000000  0.5559040000000 1.0
C      1  0.5332890000000  0.5593440000000  0.4355130000000 1.0
C      1  0.5456070000000  0.5671690000000  0.5127280000000 1.0
C      1  0.5133560000000  0.5270010000000  0.5187650000000 1.0
C      1  0.4727090000000  0.5632680000000  0.5613540000000 1.0
C      1  0.4661270000000  0.5807030000000  0.4697980000000 1.0
C      1  0.5022050000000  0.4927530000000  0.4111510000000 1.0
C      1  0.4415960000000  0.5180620000000  0.4718530000000 1.0
C      1  0.4844440000000  0.5330780000000  0.4883400000000 1.0
C      1  0.4677900000000  0.5758580000000  0.4986380000000 1.0
C      1  0.4362890000000  0.4372650000000  0.4532710000000 1.0
C      1  0.4399970000000  0.5198980000000  0.5169890000000 1.0
C      1  0.4358750000000  0.5465200000000  0.5275470000000 1.0
C      1  0.4639340000000  0.5376280000000  0.5685430000000 1.0
C      1  0.5151560000000  0.4505890000000  0.5033340000000 1.0
C      1  0.5309590000000  0.4857190000000  0.4133140000000 1.0
C      1  0.5172060000000  0.4402250000000  0.4387670000000 1.0
C      1  0.5403350000000  0.5010050000000  0.4378980000000 1.0
C      1  0.5479280000000  0.5543530000000  0.5404410000000 1.0
C      1  0.4642710000000  0.5553770000000  0.4368640000000 1.0
C      1  0.4746970000000  0.4641570000000  0.5749630000000 1.0
C      1  0.5243400000000  0.5371990000000  0.5716800000000 1.0
C      1  0.4820070000000  0.4275230000000  0.4721630000000 1.0
C      1  0.5843880000000  0.4693180000000  0.5071030000000 1.0
C      1  0.5556980000000  0.4678900000000  0.4687490000000 1.0
C      1  0.5228650000000  0.4633340000000  0.5742530000000 1.0
C      1  0.5613720000000  0.5297890000000  0.5429940000000 1.0
C      1  0.5114550000000  0.4772890000000  0.5232820000000 1.0
C      1  0.5241890000000  0.4609720000000  0.4765530000000 1.0
C      1  0.4793200000000  0.4779530000000  0.4230670000000 1.0
C      1  0.5270810000000  0.4781030000000  0.5500110000000 1.0
C      1  0.4810420000000  0.4818620000000  0.4875710000000 1.0
C      1  0.5171260000000  0.5703160000000  0.5033730000000 1.0
C      1  0.4932620000000  0.4285450000000  0.4982160000000 1.0
C      1  0.4956430000000  0.5698170000000  0.5447440000000 1.0
C      1  0.5128810000000  0.4884820000000  0.5881460000000 1.0
C      1  0.4668940000000  0.4331820000000  0.5106640000000 1.0
C      1  0.5563300000000  0.5569760000000  0.4519400000000 1.0
C      1  0.5537420000000  0.5023670000000  0.5039100000000 1.0
C      1  0.5809300000000  0.4986690000000  0.4987350000000 1.0
C      1  0.4079270000000  0.4569560000000  0.4998160000000 1.0
C      1  0.4234800000000  0.4389450000000  0.4803300000000 1.0
C      1  0.5720390000000  0.5411160000000  0.4718520000000 1.0
C      1  0.5272550000000  0.5019980000000  0.5115550000000 1.0
C      1  0.4432960000000  0.5594810000000  0.5021470000000 1.0
C      1  0.5767410000000  0.4750680000000  0.5345530000000 1.0
C      1  0.4588770000000  0.4909500000000  0.5421370000000 1.0
C      1  0.4380680000000  0.4505440000000  0.5432050000000 1.0
C      1  0.4465070000000  0.5535840000000  0.5539860000000 1.0
C      1  0.5452600000000  0.4973150000000  0.5625190000000 1.0
C      1  0.4499750000000  0.4700440000000  0.5608160000000 1.0
C      1  0.5696470000000  0.5040080000000  0.5482460000000 1.0
C      1  0.4717380000000  0.5183680000000  0.5124630000000 1.0
C      1  0.4486270000000  0.4494310000000  0.4920480000000 1.0
C      1  0.5296260000000  0.5625960000000  0.4626460000000 1.0
C      1  0.4834730000000  0.5746240000000  0.4462660000000 1.0
C      1  0.5300400000000  0.5128330000000  0.5838110000000 1.0
C      1  0.4335810000000  0.5458500000000  0.4771050000000 1.0
C      1  0.4325020000000  0.4952810000000  0.5297610000000 1.0
C      1  0.5603000000000  0.5542490000000  0.4932180000000 1.0
C      1  0.4636460000000  0.4362930000000  0.5390220000000 1.0
C      1  0.5147400000000  0.4397360000000  0.5591040000000 1.0
C      1  0.4864270000000  0.4903680000000  0.5793620000000 1.0
C      1  0.4426440000000  0.4923910000000  0.4565200000000 1.0
C      1  0.4896050000000  0.5240170000000  0.5343290000000 1.0
C      1  0.5327350000000  0.4295900000000  0.5103190000000 1.0
C      1  0.5258610000000  0.4594560000000  0.4210170000000 1.0
C      1  0.5119640000000  0.5748950000000  0.4441290000000 1.0
C      1  0.5500970000000  0.4302380000000  0.4861530000000 1.0
C      1  0.5017310000000  0.5160680000000  0.4293150000000 1.0
C      1  0.4663970000000  0.4351710000000  0.4502500000000 1.0
C      1  0.4445530000000  0.5637690000000  0.4569230000000 1.0
C      1  0.5708370000000  0.4518430000000  0.4870630000000 1.0
C      1  0.5302080000000  0.4337510000000  0.4643930000000 1.0
C      1  0.4769300000000  0.5136250000000  0.5592380000000 1.0
C      1  0.5382460000000  0.4355040000000  0.5386040000000 1.0
C      1  0.5119500000000  0.5431740000000  0.4927310000000 1.0
C      1  0.4729840000000  0.5250120000000  0.4346800000000 1.0
C      1  0.4828930000000  0.4857410000000  0.5163940000000 1.0
END
