TITL C-4164241-3639-702 -5.74647722389048 125000 -23830.8970084001 0 0 161 (C1) n - 1
REM
REM in /home/nfs/bkarasulu/CARBON/AIRSS/Generating-Clusters/ReaxFF-fromJPCA2015/Units_Real/with-SteepDescent/Only-C1/SD-CG/Try1-3A/FIRE-CG
REM
REM
REM
REM
REM
REM ./C.cell (11c1c37f851c82e70ff6c80c92926a4b)
REM
REM compiler GCC version 9.2.1 20190827 (Red Hat 9.2.1-1)
REM options -cpp -mtune=generic -march=x86-64 -g -O0 -fpre-include=/usr/include/finclude/math-vector-fortran.h
REM seed -1348022629 -80241684 -559768863 1348468437 1992320622 -1301435231 -1561336752 1882750698 -1314084798 2010929232 1145081139 1582647207 1657028535 -2020543140 -518918414 -1057546767 619395317 -785920347 -1816714299 -1957142334 1171537932 -819946541 1837765615 371885314 -1678263001 -523878889 -129940116 738256777 400940167 626138161 1401702555 639828756 -1726704465
REM
CELL 1.54180   50.00000   50.00000   50.00000   90.00000   90.00000   90.00000
LATT -1
SFAC C  
C      1  0.5821120000000  0.5130190000000  0.4838640000000 1.0
C      1  0.3735230000000  0.5545380000000  0.5148940000000 1.0
C      1  0.5037000000000  0.5842920000000  0.4940990000000 1.0
C      1  0.4662480000000  0.4358380000000  0.4051910000000 1.0
C      1  0.4295740000000  0.4591980000000  0.4303910000000 1.0
C      1  0.5239140000000  0.4581230000000  0.5597060000000 1.0
C      1  0.4495660000000  0.4586840000000  0.4093980000000 1.0
C      1  0.4476160000000  0.5632090000000  0.5203190000000 1.0
C      1  0.5248530000000  0.4033170000000  0.4830070000000 1.0
C      1  0.5900570000000  0.5483180000000  0.5114360000000 1.0
C      1  0.5731270000000  0.5460220000000  0.4553690000000 1.0
C      1  0.4804740000000  0.4472470000000  0.4600440000000 1.0
C      1  0.4645380000000  0.4159800000000  0.4961120000000 1.0
C      1  0.5753420000000  0.5016210000000  0.4327090000000 1.0
C      1  0.5799920000000  0.4792830000000  0.4521940000000 1.0
C      1  0.4639470000000  0.4418040000000  0.5092570000000 1.0
C      1  0.4289280000000  0.4478920000000  0.5716910000000 1.0
C      1  0.5372340000000  0.6030090000000  0.4711300000000 1.0
C      1  0.4588470000000  0.5361340000000  0.5907900000000 1.0
C      1  0.4398080000000  0.5406430000000  0.5427610000000 1.0
C      1  0.4946600000000  0.5032380000000  0.6025510000000 1.0
C      1  0.4460630000000  0.4729690000000  0.4736310000000 1.0
C      1  0.5506540000000  0.5675330000000  0.5484230000000 1.0
C      1  0.4992620000000  0.5697790000000  0.5665190000000 1.0
C      1  0.4965880000000  0.4113610000000  0.5652290000000 1.0
C      1  0.4830480000000  0.5023560000000  0.5010110000000 1.0
C      1  0.5007690000000  0.4874460000000  0.5188060000000 1.0
C      1  0.4312840000000  0.5859680000000  0.4547970000000 1.0
C      1  0.4958750000000  0.4604480000000  0.5536310000000 1.0
C      1  0.4305890000000  0.5695500000000  0.4964990000000 1.0
C      1  0.5280920000000  0.6003100000000  0.4988750000000 1.0
C      1  0.5781630000000  0.5013790000000  0.5744540000000 1.0
C      1  0.4730660000000  0.5492560000000  0.5040660000000 1.0
C      1  0.5158270000000  0.4448730000000  0.4199400000000 1.0
C      1  0.5506990000000  0.5468600000000  0.4346840000000 1.0
C      1  0.4091950000000  0.5030140000000  0.4603930000000 1.0
C      1  0.4630240000000  0.4892890000000  0.5562120000000 1.0
C      1  0.4553780000000  0.5041900000000  0.3997970000000 1.0
C      1  0.5471000000000  0.4666610000000  0.5410360000000 1.0
C      1  0.5496690000000  0.4075150000000  0.4933380000000 1.0
C      1  0.4814460000000  0.4276090000000  0.5848280000000 1.0
C      1  0.5263780000000  0.4251660000000  0.4620940000000 1.0
C      1  0.4568790000000  0.4909000000000  0.5087540000000 1.0
C      1  0.5732020000000  0.5871690000000  0.4925980000000 1.0
C      1  0.4642430000000  0.6087630000000  0.5170160000000 1.0
C      1  0.4522020000000  0.4352550000000  0.5853790000000 1.0
C      1  0.5334110000000  0.4972300000000  0.4343490000000 1.0
C      1  0.4598410000000  0.4197110000000  0.4280730000000 1.0
C      1  0.6055830000000  0.5106840000000  0.4652820000000 1.0
C      1  0.4557850000000  0.5702820000000  0.4609520000000 1.0
C      1  0.5740810000000  0.4560750000000  0.5546770000000 1.0
C      1  0.4853490000000  0.5857270000000  0.4652940000000 1.0
C      1  0.4372660000000  0.4326410000000  0.4428160000000 1.0
C      1  0.5372170000000  0.4527700000000  0.5154880000000 1.0
C      1  0.5327160000000  0.5302870000000  0.5777090000000 1.0
C      1  0.4599910000000  0.4936990000000  0.4562830000000 1.0
C      1  0.4840060000000  0.4099940000000  0.4419540000000 1.0
C      1  0.3931670000000  0.5401220000000  0.5184280000000 1.0
C      1  0.4080110000000  0.5007520000000  0.5144220000000 1.0
C      1  0.5153260000000  0.5432810000000  0.5321850000000 1.0
C      1  0.4329740000000  0.4234000000000  0.4702500000000 1.0
C      1  0.4183780000000  0.5308710000000  0.4657250000000 1.0
C      1  0.4832850000000  0.4014630000000  0.5142380000000 1.0
C      1  0.4428390000000  0.5502920000000  0.4779950000000 1.0
C      1  0.6057990000000  0.4817460000000  0.4666850000000 1.0
C      1  0.4764110000000  0.4208310000000  0.4688690000000 1.0
C      1  0.5323830000000  0.4057370000000  0.5319230000000 1.0
C      1  0.4951760000000  0.5836950000000  0.5444440000000 1.0
C      1  0.4870210000000  0.4502380000000  0.6039570000000 1.0
C      1  0.5565250000000  0.4548120000000  0.4935160000000 1.0
C      1  0.5821800000000  0.4446670000000  0.4834000000000 1.0
C      1  0.5293130000000  0.5640090000000  0.4266090000000 1.0
C      1  0.4339690000000  0.5404830000000  0.5738250000000 1.0
C      1  0.4171050000000  0.4837050000000  0.5385100000000 1.0
C      1  0.4817620000000  0.4834210000000  0.4409430000000 1.0
C      1  0.4092210000000  0.4402540000000  0.4708880000000 1.0
C      1  0.5048750000000  0.4744270000000  0.6074750000000 1.0
C      1  0.5108720000000  0.4221410000000  0.4373940000000 1.0
C      1  0.5411070000000  0.5114160000000  0.5092780000000 1.0
C      1  0.6029410000000  0.5046120000000  0.5581990000000 1.0
C      1  0.4125440000000  0.5663880000000  0.4462660000000 1.0
C      1  0.6040160000000  0.4637730000000  0.4898180000000 1.0
C      1  0.4847800000000  0.5560880000000  0.4324970000000 1.0
C      1  0.4186270000000  0.4863270000000  0.4363490000000 1.0
C      1  0.5220390000000  0.5579430000000  0.4836520000000 1.0
C      1  0.6071510000000  0.5319130000000  0.5536340000000 1.0
C      1  0.4461350000000  0.4896670000000  0.5355350000000 1.0
C      1  0.4590710000000  0.4581520000000  0.6024330000000 1.0
C      1  0.5781690000000  0.4493550000000  0.4540660000000 1.0
C      1  0.4533620000000  0.6131900000000  0.4889250000000 1.0
C      1  0.5711920000000  0.5507870000000  0.5608180000000 1.0
C      1  0.4660310000000  0.5372750000000  0.4238870000000 1.0
C      1  0.4045540000000  0.5423310000000  0.4479040000000 1.0
C      1  0.5126610000000  0.4001610000000  0.5109510000000 1.0
C      1  0.4165160000000  0.4352170000000  0.5210410000000 1.0
C      1  0.4184220000000  0.4514340000000  0.5439760000000 1.0
C      1  0.5912240000000  0.5226100000000  0.4432610000000 1.0
C      1  0.5258050000000  0.4543600000000  0.4659180000000 1.0
C      1  0.4501850000000  0.5167310000000  0.4400140000000 1.0
C      1  0.5940480000000  0.5537000000000  0.5422940000000 1.0
C      1  0.4182180000000  0.4648890000000  0.4807780000000 1.0
C      1  0.4247350000000  0.4742050000000  0.5834580000000 1.0
C      1  0.5738300000000  0.4725040000000  0.5783750000000 1.0
C      1  0.4991500000000  0.4675500000000  0.4591480000000 1.0
C      1  0.4327100000000  0.5056570000000  0.4195530000000 1.0
C      1  0.4837000000000  0.5442890000000  0.5758870000000 1.0
C      1  0.5349250000000  0.4957760000000  0.4846470000000 1.0
C      1  0.4157710000000  0.5270560000000  0.5237020000000 1.0
C      1  0.5098940000000  0.5338200000000  0.4725010000000 1.0
C      1  0.5590230000000  0.5262720000000  0.4720230000000 1.0
C      1  0.5553910000000  0.4493820000000  0.4347480000000 1.0
C      1  0.4902950000000  0.4881390000000  0.5470450000000 1.0
C      1  0.5609430000000  0.5253900000000  0.5740540000000 1.0
C      1  0.5534240000000  0.4546940000000  0.5920750000000 1.0
C      1  0.6068140000000  0.4718790000000  0.5175790000000 1.0
C      1  0.4747190000000  0.5259310000000  0.3982210000000 1.0
C      1  0.4715920000000  0.4803480000000  0.4092750000000 1.0
C      1  0.4852960000000  0.4425390000000  0.5299760000000 1.0
C      1  0.4682870000000  0.5361950000000  0.5494420000000 1.0
C      1  0.4487380000000  0.5917770000000  0.5341550000000 1.0
C      1  0.6049900000000  0.4988070000000  0.5282040000000 1.0
C      1  0.4663820000000  0.5098650000000  0.6004920000000 1.0
C      1  0.4924050000000  0.5963480000000  0.5199800000000 1.0
C      1  0.4533860000000  0.4852280000000  0.5867420000000 1.0
C      1  0.5518720000000  0.5889190000000  0.5132890000000 1.0
C      1  0.4087920000000  0.4931380000000  0.5676790000000 1.0
C      1  0.5490140000000  0.5161980000000  0.4225090000000 1.0
C      1  0.4854490000000  0.5284190000000  0.4869010000000 1.0
C      1  0.5954910000000  0.4498810000000  0.5349510000000 1.0
C      1  0.5238940000000  0.5476700000000  0.4011320000000 1.0
C      1  0.5930590000000  0.5188710000000  0.5102200000000 1.0
C      1  0.5539430000000  0.5621230000000  0.5213560000000 1.0
C      1  0.5258340000000  0.4121790000000  0.5597730000000 1.0
C      1  0.5387050000000  0.5748680000000  0.4637080000000 1.0
C      1  0.5033760000000  0.5288920000000  0.3915110000000 1.0
C      1  0.4133600000000  0.4256060000000  0.4928330000000 1.0
C      1  0.5466000000000  0.4979290000000  0.5319920000000 1.0
C      1  0.5302960000000  0.5193250000000  0.3990160000000 1.0
C      1  0.5094280000000  0.4596930000000  0.5139100000000 1.0
C      1  0.4872390000000  0.5403720000000  0.5279030000000 1.0
C      1  0.5010340000000  0.5728060000000  0.4404230000000 1.0
C      1  0.4050650000000  0.4905060000000  0.4866550000000 1.0
C      1  0.4300970000000  0.5958360000000  0.4829360000000 1.0
C      1  0.4932470000000  0.4713260000000  0.3868450000000 1.0
C      1  0.4949890000000  0.4451250000000  0.3983470000000 1.0
C      1  0.5311140000000  0.5131720000000  0.4629920000000 1.0
C      1  0.5309850000000  0.4672610000000  0.6024050000000 1.0
C      1  0.4180260000000  0.5181820000000  0.5732070000000 1.0
C      1  0.5249840000000  0.5544140000000  0.5571780000000 1.0
C      1  0.5072510000000  0.5236920000000  0.5872430000000 1.0
C      1  0.4822040000000  0.4138690000000  0.5401500000000 1.0
C      1  0.5341670000000  0.4685710000000  0.4262970000000 1.0
C      1  0.5350540000000  0.4361240000000  0.5750080000000 1.0
C      1  0.5624320000000  0.5905660000000  0.4674390000000 1.0
C      1  0.5611920000000  0.4088960000000  0.5190910000000 1.0
C      1  0.5808260000000  0.4293310000000  0.5226140000000 1.0
C      1  0.5341480000000  0.5438530000000  0.5111990000000 1.0
C      1  0.4591890000000  0.4659730000000  0.4968890000000 1.0
C      1  0.5470220000000  0.4727870000000  0.4743080000000 1.0
C      1  0.5828550000000  0.5613890000000  0.4864380000000 1.0
C      1  0.4739720000000  0.6137860000000  0.4673960000000 1.0
END
