TITL C-4164232-771-561 4.53066808408471 125000 -9635.63113157432 0 0 64 (C1) n - 1
REM
REM in /home/nfs/bkarasulu/CARBON/AIRSS/Generating-Clusters/ReaxFF-fromJPCA2015/Units_Real/with-SteepDescent/Only-C1/SD-CG/Try1-3A/FIRE-CG
REM
REM
REM
REM
REM
REM ./C.cell (11c1c37f851c82e70ff6c80c92926a4b)
REM
REM compiler GCC version 9.2.1 20190827 (Red Hat 9.2.1-1)
REM options -cpp -mtune=generic -march=x86-64 -g -O0 -fpre-include=/usr/include/finclude/math-vector-fortran.h
REM seed 529217243 1448105079 -1004881003 1063733269 1886579724 1771013008 1243056802 -1717120803 1730928804 -1849324017 -478382277 -1909258657 1983457150 2110681201 -338571440 -2089338178 1434702645 201283337 -4227186 -1420262483 2113779453 475715242 290599290 70632524 -1799989052 306194740 -713892797 2122944600 -324486752 -1768246751 1913491536 -1549910405 795404416
REM
CELL 1.54180   50.00000   50.00000   50.00000   90.00000   90.00000   90.00000
LATT -1
SFAC C  
C      1  0.4655630000000  0.5116010000000  0.5703710000000 1.0
C      1  0.5594010000000  0.4642210000000  0.4815410000000 1.0
C      1  0.4951490000000  0.5113850000000  0.5685440000000 1.0
C      1  0.5471170000000  0.4204220000000  0.5107510000000 1.0
C      1  0.5336480000000  0.5189440000000  0.4418260000000 1.0
C      1  0.4422540000000  0.5141280000000  0.4558200000000 1.0
C      1  0.5023550000000  0.4338840000000  0.5199490000000 1.0
C      1  0.5197300000000  0.4561720000000  0.5208410000000 1.0
C      1  0.4543430000000  0.5340420000000  0.5574370000000 1.0
C      1  0.4600620000000  0.4532650000000  0.5039150000000 1.0
C      1  0.5150910000000  0.4972300000000  0.4338820000000 1.0
C      1  0.4335650000000  0.5378680000000  0.5226810000000 1.0
C      1  0.4707880000000  0.5058430000000  0.5149110000000 1.0
C      1  0.5600440000000  0.4799340000000  0.5297180000000 1.0
C      1  0.5265780000000  0.4128600000000  0.5293710000000 1.0
C      1  0.5498490000000  0.4999150000000  0.5493940000000 1.0
C      1  0.4266900000000  0.4923500000000  0.5096060000000 1.0
C      1  0.5303670000000  0.4797090000000  0.5600420000000 1.0
C      1  0.4498600000000  0.5547130000000  0.5387910000000 1.0
C      1  0.5117350000000  0.5002840000000  0.4983800000000 1.0
C      1  0.4800910000000  0.5267030000000  0.4695890000000 1.0
C      1  0.5215980000000  0.4328780000000  0.4723860000000 1.0
C      1  0.4485590000000  0.4862240000000  0.4663170000000 1.0
C      1  0.4732110000000  0.4997330000000  0.4847330000000 1.0
C      1  0.4561680000000  0.4857890000000  0.5568180000000 1.0
C      1  0.4965970000000  0.4818780000000  0.4818560000000 1.0
C      1  0.5192230000000  0.5706730000000  0.5137640000000 1.0
C      1  0.5550940000000  0.5352240000000  0.5157810000000 1.0
C      1  0.4913030000000  0.5184210000000  0.5281080000000 1.0
C      1  0.5474040000000  0.4374990000000  0.4854520000000 1.0
C      1  0.4760420000000  0.4504340000000  0.5282490000000 1.0
C      1  0.4764920000000  0.5679010000000  0.4949270000000 1.0
C      1  0.5538000000000  0.5075340000000  0.4595690000000 1.0
C      1  0.5017790000000  0.5602820000000  0.5345830000000 1.0
C      1  0.5171440000000  0.4736940000000  0.5007300000000 1.0
C      1  0.5476680000000  0.5623170000000  0.5076190000000 1.0
C      1  0.5271410000000  0.5198660000000  0.4914000000000 1.0
C      1  0.4402640000000  0.4728540000000  0.4934660000000 1.0
C      1  0.4829800000000  0.4525680000000  0.4554030000000 1.0
C      1  0.5120450000000  0.4496070000000  0.4505380000000 1.0
C      1  0.4239960000000  0.5220470000000  0.5021430000000 1.0
C      1  0.4756400000000  0.5651530000000  0.5241750000000 1.0
C      1  0.4368870000000  0.5336520000000  0.4769950000000 1.0
C      1  0.5630030000000  0.4850350000000  0.5012770000000 1.0
C      1  0.5242880000000  0.5689550000000  0.4665070000000 1.0
C      1  0.4613780000000  0.5492260000000  0.4783950000000 1.0
C      1  0.5513510000000  0.5718280000000  0.4792650000000 1.0
C      1  0.5207150000000  0.5442830000000  0.4502030000000 1.0
C      1  0.5015960000000  0.4837560000000  0.5636500000000 1.0
C      1  0.4471510000000  0.4936120000000  0.5303040000000 1.0
C      1  0.5048830000000  0.5740400000000  0.4887170000000 1.0
C      1  0.5525420000000  0.4790210000000  0.4568060000000 1.0
C      1  0.4748320000000  0.4399720000000  0.4815400000000 1.0
C      1  0.4849520000000  0.4968280000000  0.4329000000000 1.0
C      1  0.4778210000000  0.4673110000000  0.5515740000000 1.0
C      1  0.5413990000000  0.5256090000000  0.5391450000000 1.0
C      1  0.4988460000000  0.4279170000000  0.4901200000000 1.0
C      1  0.5100850000000  0.5312960000000  0.5462050000000 1.0
C      1  0.5278840000000  0.4724480000000  0.4415070000000 1.0
C      1  0.5564080000000  0.5124630000000  0.4898990000000 1.0
C      1  0.5398020000000  0.4608450000000  0.5397330000000 1.0
C      1  0.4688340000000  0.4759090000000  0.4452790000000 1.0
C      1  0.4674090000000  0.5182050000000  0.4419620000000 1.0
C      1  0.5095070000000  0.5297390000000  0.4726370000000 1.0
END
