TITL C-4164244-2836-460 13.1019489909997 125000 -7781.80955203537 0 0 54 (C1) n - 1
REM
REM in /home/nfs/bkarasulu/CARBON/AIRSS/Generating-Clusters/ReaxFF-fromJPCA2015/Units_Real/with-SteepDescent/Only-C1/SD-CG/Try1-3A/FIRE-CG
REM
REM
REM
REM
REM
REM ./C.cell (11c1c37f851c82e70ff6c80c92926a4b)
REM
REM compiler GCC version 9.2.1 20190827 (Red Hat 9.2.1-1)
REM options -cpp -mtune=generic -march=x86-64 -g -O0 -fpre-include=/usr/include/finclude/math-vector-fortran.h
REM seed -779865895 -1940782596 -560797402 -4969223 -631107078 -60374473 623943856 -47638728 -1882749784 1506411851 1217422460 -924006013 2114348858 -946656218 -1081560726 -2012285761 -1333114883 -432610762 1881499042 1448996659 -1353624707 424331242 1920479161 -228865234 -1493382094 -1585149236 -1384758868 -911050414 -207639348 -1494006652 1673379408 2089972213 -958450956
REM
CELL 1.54180   50.00000   50.00000   50.00000   90.00000   90.00000   90.00000
LATT -1
SFAC C  
C      1  0.5253050000000  0.5413420000000  0.4685940000000 1.0
C      1  0.4227700000000  0.4862610000000  0.5003520000000 1.0
C      1  0.4702430000000  0.4869190000000  0.4524300000000 1.0
C      1  0.4482390000000  0.4808670000000  0.5330860000000 1.0
C      1  0.4818250000000  0.4500480000000  0.4865440000000 1.0
C      1  0.5394890000000  0.4870660000000  0.4940330000000 1.0
C      1  0.5402600000000  0.5636030000000  0.4809220000000 1.0
C      1  0.5562280000000  0.5083470000000  0.4812360000000 1.0
C      1  0.4794260000000  0.5516030000000  0.4384700000000 1.0
C      1  0.4430680000000  0.5299530000000  0.5297370000000 1.0
C      1  0.5155950000000  0.4707110000000  0.4553690000000 1.0
C      1  0.4986420000000  0.4939740000000  0.5483020000000 1.0
C      1  0.5532700000000  0.4790770000000  0.5229090000000 1.0
C      1  0.5036550000000  0.4296360000000  0.4960650000000 1.0
C      1  0.5099710000000  0.5356930000000  0.4927240000000 1.0
C      1  0.4832050000000  0.5187390000000  0.5580500000000 1.0
C      1  0.4853940000000  0.4740590000000  0.5039130000000 1.0
C      1  0.4880000000000  0.4650900000000  0.4591170000000 1.0
C      1  0.5249740000000  0.5119720000000  0.5363380000000 1.0
C      1  0.4370750000000  0.4627530000000  0.5124970000000 1.0
C      1  0.4892170000000  0.5001740000000  0.4942280000000 1.0
C      1  0.5134320000000  0.5149280000000  0.4282990000000 1.0
C      1  0.4689680000000  0.4313150000000  0.5278640000000 1.0
C      1  0.4962990000000  0.5356050000000  0.4179400000000 1.0
C      1  0.5433870000000  0.5156170000000  0.4567590000000 1.0
C      1  0.5470540000000  0.4377040000000  0.5192190000000 1.0
C      1  0.4553530000000  0.5196680000000  0.5530720000000 1.0
C      1  0.4859190000000  0.5466940000000  0.5456640000000 1.0
C      1  0.5343900000000  0.5372740000000  0.5517500000000 1.0
C      1  0.5095610000000  0.4631480000000  0.5489200000000 1.0
C      1  0.4724610000000  0.5382360000000  0.4627850000000 1.0
C      1  0.4570980000000  0.4434820000000  0.5044910000000 1.0
C      1  0.4773860000000  0.5099250000000  0.4693160000000 1.0
C      1  0.4885830000000  0.5637110000000  0.4637760000000 1.0
C      1  0.4402210000000  0.4847100000000  0.4482490000000 1.0
C      1  0.5724020000000  0.4508990000000  0.5184380000000 1.0
C      1  0.5346740000000  0.5587750000000  0.5307740000000 1.0
C      1  0.5598610000000  0.5252390000000  0.5054800000000 1.0
C      1  0.4924640000000  0.4398040000000  0.5449410000000 1.0
C      1  0.5303680000000  0.4380770000000  0.4930450000000 1.0
C      1  0.4956620000000  0.4206810000000  0.5224040000000 1.0
C      1  0.5359170000000  0.4592810000000  0.5381850000000 1.0
C      1  0.4316620000000  0.5033950000000  0.5230870000000 1.0
C      1  0.5325870000000  0.4628010000000  0.4776310000000 1.0
C      1  0.5173920000000  0.5686950000000  0.4650670000000 1.0
C      1  0.5281050000000  0.4960190000000  0.4421870000000 1.0
C      1  0.5055080000000  0.5618040000000  0.5288150000000 1.0
C      1  0.4226810000000  0.4912110000000  0.4710680000000 1.0
C      1  0.4905710000000  0.5539650000000  0.5042260000000 1.0
C      1  0.5152590000000  0.5098200000000  0.5038770000000 1.0
C      1  0.5501470000000  0.5528040000000  0.5057730000000 1.0
C      1  0.5539650000000  0.5081520000000  0.5288570000000 1.0
C      1  0.4672300000000  0.5462860000000  0.5228150000000 1.0
C      1  0.4775830000000  0.4823890000000  0.5303080000000 1.0
END
