TITL C-4164240-4114-344 -0.594495437117681 125000 -3521.7964054688 0 0 25 (C1) n - 1
REM
REM in /home/nfs/bkarasulu/CARBON/AIRSS/Generating-Clusters/ReaxFF-fromJPCA2015/Units_Real/with-SteepDescent/Only-C1/SD-CG/Try1-3A/FIRE-CG
REM
REM
REM
REM
REM
REM ./C.cell (11c1c37f851c82e70ff6c80c92926a4b)
REM
REM compiler GCC version 9.2.1 20190827 (Red Hat 9.2.1-1)
REM options -cpp -mtune=generic -march=x86-64 -g -O0 -fpre-include=/usr/include/finclude/math-vector-fortran.h
REM seed 99791100 -344105119 1900958771 -552812099 194901300 -1489548921 -264993487 -1806520543 731457324 584499049 602240543 2128584653 -242514567 -422296735 -821235370 23955054 1070224731 -1865148593 2132683165 -443968448 -817431546 -1388851592 1559740561 1151584385 -559320978 -141445512 447850810 1603913254 -2077434102 918396409 60242331 489977235 -21796394
REM
CELL 1.54180   50.00000   50.00000   50.00000   90.00000   90.00000   90.00000
LATT -1
SFAC C  
C      1  0.5427200000000  0.5060980000000  0.5328810000000 1.0
C      1  0.5023550000000  0.4261390000000  0.5058300000000 1.0
C      1  0.4934160000000  0.4955770000000  0.4771520000000 1.0
C      1  0.5315170000000  0.5704690000000  0.4739260000000 1.0
C      1  0.5058040000000  0.5355300000000  0.5077510000000 1.0
C      1  0.5194480000000  0.5267580000000  0.5317100000000 1.0
C      1  0.5186910000000  0.4587540000000  0.5278720000000 1.0
C      1  0.4832480000000  0.5172500000000  0.5004280000000 1.0
C      1  0.5077540000000  0.4682510000000  0.4470270000000 1.0
C      1  0.4545630000000  0.4579830000000  0.5477330000000 1.0
C      1  0.5228070000000  0.4851890000000  0.5414800000000 1.0
C      1  0.4623180000000  0.5342120000000  0.4816540000000 1.0
C      1  0.4567440000000  0.4847400000000  0.5339170000000 1.0
C      1  0.5095880000000  0.5591570000000  0.4893930000000 1.0
C      1  0.5162780000000  0.4524440000000  0.4992240000000 1.0
C      1  0.4766970000000  0.5047900000000  0.5278940000000 1.0
C      1  0.4973670000000  0.4897810000000  0.4285020000000 1.0
C      1  0.4877230000000  0.5061170000000  0.4520450000000 1.0
C      1  0.4952560000000  0.5538900000000  0.4660940000000 1.0
C      1  0.5015510000000  0.5061370000000  0.5431700000000 1.0
C      1  0.5521680000000  0.5804490000000  0.4660980000000 1.0
C      1  0.4763170000000  0.5354320000000  0.4558750000000 1.0
C      1  0.5074870000000  0.4713670000000  0.4771800000000 1.0
C      1  0.4760870000000  0.4380980000000  0.5500030000000 1.0
C      1  0.5020960000000  0.4353880000000  0.5351610000000 1.0
END
