TITL C-4164232-771-236 2.65560312642587 125000 -22559.5275386243 0 0 152 (C1) n - 1
REM
REM in /home/nfs/bkarasulu/CARBON/AIRSS/Generating-Clusters/ReaxFF-fromJPCA2015/Units_Real/with-SteepDescent/Only-C1/SD-CG/Try1-3A/FIRE-CG
REM
REM
REM
REM
REM
REM ./C.cell (11c1c37f851c82e70ff6c80c92926a4b)
REM
REM compiler GCC version 9.2.1 20190827 (Red Hat 9.2.1-1)
REM options -cpp -mtune=generic -march=x86-64 -g -O0 -fpre-include=/usr/include/finclude/math-vector-fortran.h
REM seed -1107147918 1626795072 834398901 -1470112815 -204491039 -1364909221 -652332878 1624468725 -1436229506 -129748247 -445165486 2014128126 314508719 185428580 1475714293 1609150173 -699916326 359039923 -411612310 -1386511081 1004017356 -1290235374 -1844099118 -546858763 2119593596 343907347 -864084833 -1330144039 -1454724322 -1030419016 1364243239 -484275466 -1971913461
REM
CELL 1.54180   50.00000   50.00000   50.00000   90.00000   90.00000   90.00000
LATT -1
SFAC C  
C      1  0.5203420000000  0.5293910000000  0.5686850000000 1.0
C      1  0.5420410000000  0.4575580000000  0.5235900000000 1.0
C      1  0.5095150000000  0.4648520000000  0.4492370000000 1.0
C      1  0.4538460000000  0.4725110000000  0.4615030000000 1.0
C      1  0.5613450000000  0.5664860000000  0.5287700000000 1.0
C      1  0.3986980000000  0.5255660000000  0.4995320000000 1.0
C      1  0.4704460000000  0.4292840000000  0.5349600000000 1.0
C      1  0.5131360000000  0.4807350000000  0.4853090000000 1.0
C      1  0.4332250000000  0.5588750000000  0.5501260000000 1.0
C      1  0.5241820000000  0.4718380000000  0.4022610000000 1.0
C      1  0.5796690000000  0.4818850000000  0.5494080000000 1.0
C      1  0.4993260000000  0.4408720000000  0.4647990000000 1.0
C      1  0.4634390000000  0.5715220000000  0.4319390000000 1.0
C      1  0.4789720000000  0.4070740000000  0.5176940000000 1.0
C      1  0.5789430000000  0.5021980000000  0.5101220000000 1.0
C      1  0.5347620000000  0.5332900000000  0.4104740000000 1.0
C      1  0.5674990000000  0.5252890000000  0.5597220000000 1.0
C      1  0.4225200000000  0.4454790000000  0.4801230000000 1.0
C      1  0.4170250000000  0.5125470000000  0.4643190000000 1.0
C      1  0.5586070000000  0.5528340000000  0.5549280000000 1.0
C      1  0.4890210000000  0.4517750000000  0.5296690000000 1.0
C      1  0.5096170000000  0.5759530000000  0.5162640000000 1.0
C      1  0.4561890000000  0.4982120000000  0.5969580000000 1.0
C      1  0.4861660000000  0.5519880000000  0.5849360000000 1.0
C      1  0.5138250000000  0.5185080000000  0.5405180000000 1.0
C      1  0.4396770000000  0.5254910000000  0.4247840000000 1.0
C      1  0.4474850000000  0.4056300000000  0.4375400000000 1.0
C      1  0.5462660000000  0.3981670000000  0.4596400000000 1.0
C      1  0.5712810000000  0.5720900000000  0.4848420000000 1.0
C      1  0.5689780000000  0.5440400000000  0.4714840000000 1.0
C      1  0.4945950000000  0.4724050000000  0.5782290000000 1.0
C      1  0.4895090000000  0.6149140000000  0.5294130000000 1.0
C      1  0.4372980000000  0.4274250000000  0.4979610000000 1.0
C      1  0.4800540000000  0.6120510000000  0.5028310000000 1.0
C      1  0.5313580000000  0.4639090000000  0.4302030000000 1.0
C      1  0.5323870000000  0.5758210000000  0.4345870000000 1.0
C      1  0.5159740000000  0.5951920000000  0.4428420000000 1.0
C      1  0.5329600000000  0.5150010000000  0.5172310000000 1.0
C      1  0.4299340000000  0.5598310000000  0.5069940000000 1.0
C      1  0.5027190000000  0.4935740000000  0.5330090000000 1.0
C      1  0.4571080000000  0.4802360000000  0.5458830000000 1.0
C      1  0.4585520000000  0.5082750000000  0.4100050000000 1.0
C      1  0.4543900000000  0.5945340000000  0.5290840000000 1.0
C      1  0.5122210000000  0.4353820000000  0.4916790000000 1.0
C      1  0.5487390000000  0.4905550000000  0.5126910000000 1.0
C      1  0.4339230000000  0.5800120000000  0.4853300000000 1.0
C      1  0.5035520000000  0.5210350000000  0.5911350000000 1.0
C      1  0.5294740000000  0.4729560000000  0.5658700000000 1.0
C      1  0.4902920000000  0.5356190000000  0.5374510000000 1.0
C      1  0.5886500000000  0.5194510000000  0.4830670000000 1.0
C      1  0.4675020000000  0.5321010000000  0.5547880000000 1.0
C      1  0.4406160000000  0.5231500000000  0.5948270000000 1.0
C      1  0.4451190000000  0.4633390000000  0.5646430000000 1.0
C      1  0.5510210000000  0.4010600000000  0.5186020000000 1.0
C      1  0.4425340000000  0.5311870000000  0.5426310000000 1.0
C      1  0.5423070000000  0.5310540000000  0.4713180000000 1.0
C      1  0.4631870000000  0.5174380000000  0.4912070000000 1.0
C      1  0.4820460000000  0.5730940000000  0.5653710000000 1.0
C      1  0.5696610000000  0.5423750000000  0.4426950000000 1.0
C      1  0.4437630000000  0.4998470000000  0.5299190000000 1.0
C      1  0.4465780000000  0.5378630000000  0.5018730000000 1.0
C      1  0.4246050000000  0.4475420000000  0.5437700000000 1.0
C      1  0.5579940000000  0.4588220000000  0.4435050000000 1.0
C      1  0.5824330000000  0.4779240000000  0.4530080000000 1.0
C      1  0.5258490000000  0.4477760000000  0.5975220000000 1.0
C      1  0.4954950000000  0.4807170000000  0.4009080000000 1.0
C      1  0.5288850000000  0.3980840000000  0.4837810000000 1.0
C      1  0.4693150000000  0.4887920000000  0.4986860000000 1.0
C      1  0.5235240000000  0.5743510000000  0.5593510000000 1.0
C      1  0.5915600000000  0.4646750000000  0.4767810000000 1.0
C      1  0.3986490000000  0.5328980000000  0.5287320000000 1.0
C      1  0.4763880000000  0.4615910000000  0.4109080000000 1.0
C      1  0.4853920000000  0.4756990000000  0.5453770000000 1.0
C      1  0.5021250000000  0.5878320000000  0.5474170000000 1.0
C      1  0.5473640000000  0.5882800000000  0.4866490000000 1.0
C      1  0.4798580000000  0.4265340000000  0.5652720000000 1.0
C      1  0.4040430000000  0.4616880000000  0.4953290000000 1.0
C      1  0.4851480000000  0.4972200000000  0.5904070000000 1.0
C      1  0.4542920000000  0.5787940000000  0.5524980000000 1.0
C      1  0.5397130000000  0.5770710000000  0.5128410000000 1.0
C      1  0.5058540000000  0.5292380000000  0.4154160000000 1.0
C      1  0.5334910000000  0.5551030000000  0.5681120000000 1.0
C      1  0.5336640000000  0.4143820000000  0.4370360000000 1.0
C      1  0.4844910000000  0.5899290000000  0.4414040000000 1.0
C      1  0.4391620000000  0.4301800000000  0.5271030000000 1.0
C      1  0.6146040000000  0.5326820000000  0.4915580000000 1.0
C      1  0.4643230000000  0.4157290000000  0.4935500000000 1.0
C      1  0.4714570000000  0.4384330000000  0.4769770000000 1.0
C      1  0.5694550000000  0.4160440000000  0.4594000000000 1.0
C      1  0.5599780000000  0.4292630000000  0.4357350000000 1.0
C      1  0.5251040000000  0.5280280000000  0.4932290000000 1.0
C      1  0.6107420000000  0.5539750000000  0.5117310000000 1.0
C      1  0.4940380000000  0.5496660000000  0.4652520000000 1.0
C      1  0.5285470000000  0.4760120000000  0.6066040000000 1.0
C      1  0.5059660000000  0.4247360000000  0.4380350000000 1.0
C      1  0.5551600000000  0.5090160000000  0.5816880000000 1.0
C      1  0.5873780000000  0.5038130000000  0.4573510000000 1.0
C      1  0.5379780000000  0.4494430000000  0.5519150000000 1.0
C      1  0.4336960000000  0.4534030000000  0.4513490000000 1.0
C      1  0.5413390000000  0.4819140000000  0.4856020000000 1.0
C      1  0.4891340000000  0.5067680000000  0.4508260000000 1.0
C      1  0.5051930000000  0.4144490000000  0.5581240000000 1.0
C      1  0.4876200000000  0.5088870000000  0.4041600000000 1.0
C      1  0.5944050000000  0.4776110000000  0.5030230000000 1.0
C      1  0.4225970000000  0.5036570000000  0.4336070000000 1.0
C      1  0.5770070000000  0.4392050000000  0.4821030000000 1.0
C      1  0.5817940000000  0.5089340000000  0.5404900000000 1.0
C      1  0.4272960000000  0.5596360000000  0.4648380000000 1.0
C      1  0.5428910000000  0.4923940000000  0.4016250000000 1.0
C      1  0.4046800000000  0.4961500000000  0.4923750000000 1.0
C      1  0.5135730000000  0.4488530000000  0.5162450000000 1.0
C      1  0.4200100000000  0.5094690000000  0.5777880000000 1.0
C      1  0.5765420000000  0.5152620000000  0.4352170000000 1.0
C      1  0.4286720000000  0.4754610000000  0.4296960000000 1.0
C      1  0.5249330000000  0.5986300000000  0.4708730000000 1.0
C      1  0.5010810000000  0.5926790000000  0.4885700000000 1.0
C      1  0.4853280000000  0.5770610000000  0.4671400000000 1.0
C      1  0.4615200000000  0.4643410000000  0.4870340000000 1.0
C      1  0.5258490000000  0.4312380000000  0.5714310000000 1.0
C      1  0.4466190000000  0.5171210000000  0.4667340000000 1.0
C      1  0.4249080000000  0.4925680000000  0.5123860000000 1.0
C      1  0.5839580000000  0.5682790000000  0.5105890000000 1.0
C      1  0.4516800000000  0.4792560000000  0.4128100000000 1.0
C      1  0.4343130000000  0.4841630000000  0.5830490000000 1.0
C      1  0.4140530000000  0.5221620000000  0.5518510000000 1.0
C      1  0.4735790000000  0.4520330000000  0.5759660000000 1.0
C      1  0.4108420000000  0.5590080000000  0.5319390000000 1.0
C      1  0.4947920000000  0.5332970000000  0.4419420000000 1.0
C      1  0.5876640000000  0.4634000000000  0.5273440000000 1.0
C      1  0.4513030000000  0.5976650000000  0.5016970000000 1.0
C      1  0.5039570000000  0.4020790000000  0.5305470000000 1.0
C      1  0.5253200000000  0.3913670000000  0.5129430000000 1.0
C      1  0.4416480000000  0.5524570000000  0.4391140000000 1.0
C      1  0.4084650000000  0.5389750000000  0.4751190000000 1.0
C      1  0.4966540000000  0.4892930000000  0.5055830000000 1.0
C      1  0.5113120000000  0.4912500000000  0.4597240000000 1.0
C      1  0.5313890000000  0.5051970000000  0.5991760000000 1.0
C      1  0.5568920000000  0.4833720000000  0.5689990000000 1.0
C      1  0.5504620000000  0.4509750000000  0.4751390000000 1.0
C      1  0.4558930000000  0.4294070000000  0.4404120000000 1.0
C      1  0.5486920000000  0.5552020000000  0.4256310000000 1.0
C      1  0.5572600000000  0.5140720000000  0.4102980000000 1.0
C      1  0.4073490000000  0.4557260000000  0.5230870000000 1.0
C      1  0.4825840000000  0.4363170000000  0.4247460000000 1.0
C      1  0.5390730000000  0.5036460000000  0.4641100000000 1.0
C      1  0.5698560000000  0.4427260000000  0.5160130000000 1.0
C      1  0.5381180000000  0.4256950000000  0.4890610000000 1.0
C      1  0.4601000000000  0.5410390000000  0.5814510000000 1.0
C      1  0.4930090000000  0.5517310000000  0.5141190000000 1.0
C      1  0.4629410000000  0.4982800000000  0.4535730000000 1.0
C      1  0.5736220000000  0.4143950000000  0.5299790000000 1.0
C      1  0.4984430000000  0.5372540000000  0.4904060000000 1.0
END
