TITL C-4164243-3780-455 145.779771208496 125000 -22284.4903825834 0 0 153 (C1) n - 1
REM
REM in /home/nfs/bkarasulu/CARBON/AIRSS/Generating-Clusters/ReaxFF-fromJPCA2015/Units_Real/with-SteepDescent/Only-C1/SD-CG/Try1-3A/FIRE-CG
REM
REM
REM
REM
REM
REM ./C.cell (11c1c37f851c82e70ff6c80c92926a4b)
REM
REM compiler GCC version 9.2.1 20190827 (Red Hat 9.2.1-1)
REM options -cpp -mtune=generic -march=x86-64 -g -O0 -fpre-include=/usr/include/finclude/math-vector-fortran.h
REM seed 1858573108 -1300153051 -76497886 -1693410504 1710047903 1403310178 297631630 1614534992 -2060908845 877806840 -45813980 1822933039 1792633132 521746990 -979454899 -1360081177 -1128743297 1646011021 -2013390645 -513862967 -970158117 -1606292744 1053659569 1108188096 -552330531 -633767758 379264716 1668535309 -517881303 62513395 471454836 880776364 2013843484
REM
CELL 1.54180   50.00000   50.00000   50.00000   90.00000   90.00000   90.00000
LATT -1
SFAC C  
C      1  0.3976050000000  0.5037850000000  0.5096720000000 1.0
C      1  0.4730170000000  0.4689030000000  0.5563360000000 1.0
C      1  0.4416560000000  0.4858070000000  0.3952110000000 1.0
C      1  0.4966620000000  0.4746150000000  0.4443330000000 1.0
C      1  0.5492860000000  0.5019920000000  0.4984190000000 1.0
C      1  0.5425780000000  0.4601840000000  0.4055240000000 1.0
C      1  0.5254150000000  0.4432220000000  0.4203490000000 1.0
C      1  0.5868060000000  0.4942640000000  0.5190300000000 1.0
C      1  0.4879730000000  0.4423360000000  0.5650720000000 1.0
C      1  0.4905560000000  0.6116920000000  0.5544250000000 1.0
C      1  0.4563760000000  0.5448360000000  0.4563310000000 1.0
C      1  0.4740900000000  0.4971310000000  0.5755170000000 1.0
C      1  0.5175510000000  0.5993690000000  0.4797970000000 1.0
C      1  0.4177440000000  0.5058510000000  0.4860520000000 1.0
C      1  0.4580230000000  0.5799160000000  0.4937460000000 1.0
C      1  0.4970430000000  0.4396860000000  0.5189690000000 1.0
C      1  0.5563850000000  0.5126380000000  0.5712170000000 1.0
C      1  0.5161880000000  0.5735040000000  0.4194040000000 1.0
C      1  0.5667920000000  0.5246890000000  0.4525930000000 1.0
C      1  0.4893090000000  0.5801120000000  0.4350600000000 1.0
C      1  0.4533200000000  0.4312270000000  0.4662470000000 1.0
C      1  0.5521510000000  0.4107940000000  0.4809300000000 1.0
C      1  0.4885260000000  0.5116330000000  0.6126920000000 1.0
C      1  0.5329970000000  0.5524550000000  0.4758050000000 1.0
C      1  0.4578020000000  0.5003090000000  0.4526150000000 1.0
C      1  0.4776100000000  0.4787930000000  0.5291530000000 1.0
C      1  0.4786350000000  0.5385030000000  0.6101160000000 1.0
C      1  0.4903290000000  0.4150460000000  0.5359090000000 1.0
C      1  0.5138130000000  0.4006770000000  0.5252720000000 1.0
C      1  0.5121140000000  0.4420410000000  0.4934140000000 1.0
C      1  0.5569610000000  0.4857060000000  0.4751410000000 1.0
C      1  0.4379880000000  0.4166540000000  0.4875080000000 1.0
C      1  0.4346410000000  0.4892160000000  0.5043770000000 1.0
C      1  0.5818690000000  0.4659140000000  0.5589040000000 1.0
C      1  0.4722970000000  0.5369300000000  0.5484130000000 1.0
C      1  0.4487230000000  0.5733480000000  0.5396640000000 1.0
C      1  0.5406540000000  0.4621370000000  0.5888310000000 1.0
C      1  0.5781240000000  0.4407140000000  0.5135010000000 1.0
C      1  0.5264040000000  0.3961040000000  0.4775820000000 1.0
C      1  0.5683690000000  0.4613010000000  0.4205470000000 1.0
C      1  0.4032050000000  0.5608430000000  0.5382680000000 1.0
C      1  0.4810610000000  0.4716060000000  0.4681810000000 1.0
C      1  0.4234910000000  0.4623880000000  0.4941580000000 1.0
C      1  0.5164890000000  0.4341060000000  0.5699200000000 1.0
C      1  0.5552550000000  0.5627390000000  0.5620560000000 1.0
C      1  0.5446440000000  0.4708540000000  0.4550030000000 1.0
C      1  0.4794500000000  0.3918400000000  0.4877440000000 1.0
C      1  0.5038640000000  0.5363800000000  0.4349830000000 1.0
C      1  0.5581360000000  0.4187530000000  0.5084990000000 1.0
C      1  0.5638480000000  0.5346740000000  0.5308760000000 1.0
C      1  0.5979750000000  0.4872320000000  0.4777310000000 1.0
C      1  0.5273530000000  0.4846810000000  0.3977110000000 1.0
C      1  0.4555910000000  0.5098680000000  0.3965930000000 1.0
C      1  0.4454180000000  0.4574430000000  0.5552790000000 1.0
C      1  0.4994500000000  0.5118640000000  0.5853680000000 1.0
C      1  0.5244970000000  0.4669490000000  0.4918110000000 1.0
C      1  0.4349440000000  0.5774410000000  0.4434640000000 1.0
C      1  0.5781290000000  0.4467220000000  0.4453650000000 1.0
C      1  0.5233770000000  0.5445110000000  0.4156080000000 1.0
C      1  0.5670450000000  0.5138040000000  0.4247600000000 1.0
C      1  0.5451130000000  0.4908520000000  0.5884170000000 1.0
C      1  0.5785750000000  0.4866070000000  0.4292380000000 1.0
C      1  0.5575890000000  0.5807540000000  0.4550330000000 1.0
C      1  0.4652150000000  0.5880510000000  0.5210910000000 1.0
C      1  0.5624920000000  0.5536240000000  0.4699380000000 1.0
C      1  0.5578070000000  0.4490190000000  0.5683680000000 1.0
C      1  0.4839020000000  0.5136030000000  0.4960730000000 1.0
C      1  0.5364020000000  0.5782450000000  0.5453770000000 1.0
C      1  0.5756810000000  0.5580430000000  0.5402060000000 1.0
C      1  0.5872300000000  0.4459650000000  0.5396160000000 1.0
C      1  0.4973030000000  0.5830990000000  0.5633640000000 1.0
C      1  0.5352030000000  0.4427020000000  0.4501280000000 1.0
C      1  0.5137070000000  0.5379100000000  0.5779320000000 1.0
C      1  0.5440200000000  0.5394610000000  0.5753660000000 1.0
C      1  0.4983430000000  0.4827870000000  0.3907540000000 1.0
C      1  0.5250210000000  0.5188410000000  0.5016660000000 1.0
C      1  0.5155200000000  0.4462700000000  0.5962230000000 1.0
C      1  0.4435770000000  0.5090820000000  0.5733690000000 1.0
C      1  0.4067550000000  0.4795110000000  0.4771960000000 1.0
C      1  0.5608810000000  0.4269560000000  0.4578630000000 1.0
C      1  0.5193260000000  0.4803360000000  0.4650430000000 1.0
C      1  0.4327910000000  0.5343550000000  0.5690510000000 1.0
C      1  0.4620820000000  0.4103180000000  0.5291770000000 1.0
C      1  0.4294720000000  0.5060430000000  0.4097680000000 1.0
C      1  0.5902050000000  0.5195390000000  0.5011890000000 1.0
C      1  0.5422320000000  0.5212600000000  0.4102940000000 1.0
C      1  0.5177240000000  0.4601840000000  0.5375820000000 1.0
C      1  0.5417500000000  0.4778410000000  0.5116840000000 1.0
C      1  0.5174400000000  0.5104690000000  0.4721600000000 1.0
C      1  0.4223680000000  0.4750690000000  0.5503290000000 1.0
C      1  0.4826320000000  0.4603660000000  0.4008630000000 1.0
C      1  0.5025430000000  0.5377680000000  0.5461740000000 1.0
C      1  0.4780850000000  0.4994430000000  0.4718360000000 1.0
C      1  0.4774950000000  0.4081810000000  0.4642470000000 1.0
C      1  0.4858430000000  0.4466140000000  0.5940220000000 1.0
C      1  0.4270770000000  0.4364350000000  0.5057600000000 1.0
C      1  0.4886860000000  0.6067200000000  0.5252120000000 1.0
C      1  0.4160860000000  0.4871980000000  0.5257600000000 1.0
C      1  0.5134630000000  0.6040420000000  0.5082530000000 1.0
C      1  0.5384390000000  0.5163810000000  0.4548330000000 1.0
C      1  0.5398310000000  0.4137950000000  0.5304790000000 1.0
C      1  0.5486760000000  0.5123960000000  0.5406210000000 1.0
C      1  0.4693920000000  0.5560170000000  0.4801900000000 1.0
C      1  0.4191020000000  0.5704060000000  0.4683540000000 1.0
C      1  0.4554920000000  0.4747360000000  0.4374630000000 1.0
C      1  0.4672680000000  0.4514490000000  0.4830140000000 1.0
C      1  0.5390390000000  0.5781370000000  0.4345880000000 1.0
C      1  0.5101010000000  0.5663940000000  0.5426070000000 1.0
C      1  0.4164030000000  0.4748050000000  0.4491970000000 1.0
C      1  0.4620020000000  0.5053610000000  0.5157060000000 1.0
C      1  0.4991370000000  0.5651490000000  0.5866640000000 1.0
C      1  0.4983710000000  0.4523360000000  0.4240940000000 1.0
C      1  0.4553430000000  0.3988480000000  0.5033380000000 1.0
C      1  0.5591770000000  0.5917570000000  0.5038710000000 1.0
C      1  0.4688280000000  0.4906280000000  0.6042820000000 1.0
C      1  0.5706500000000  0.4697650000000  0.5106310000000 1.0
C      1  0.4201140000000  0.5023610000000  0.4371810000000 1.0
C      1  0.5080390000000  0.3902500000000  0.4987780000000 1.0
C      1  0.5905030000000  0.4734670000000  0.4542080000000 1.0
C      1  0.4047980000000  0.5367930000000  0.5548940000000 1.0
C      1  0.5414610000000  0.4286670000000  0.5558220000000 1.0
C      1  0.5184680000000  0.5126440000000  0.5318060000000 1.0
C      1  0.4548280000000  0.4651750000000  0.4098600000000 1.0
C      1  0.5184350000000  0.5466750000000  0.4985370000000 1.0
C      1  0.5889430000000  0.5117350000000  0.4745960000000 1.0
C      1  0.4307100000000  0.5710370000000  0.4953360000000 1.0
C      1  0.3950100000000  0.5209200000000  0.5326100000000 1.0
C      1  0.4261020000000  0.4861050000000  0.5770440000000 1.0
C      1  0.4900770000000  0.5418530000000  0.4952050000000 1.0
C      1  0.4978620000000  0.5074940000000  0.4281210000000 1.0
C      1  0.4398230000000  0.4613680000000  0.5852190000000 1.0
C      1  0.5796360000000  0.5467980000000  0.4951990000000 1.0
C      1  0.4372930000000  0.4543520000000  0.4456790000000 1.0
C      1  0.4320160000000  0.5557830000000  0.5226960000000 1.0
C      1  0.4532660000000  0.5301460000000  0.5289920000000 1.0
C      1  0.5261450000000  0.5011870000000  0.4199070000000 1.0
C      1  0.4625740000000  0.5658910000000  0.4370970000000 1.0
C      1  0.5467510000000  0.5964350000000  0.4776600000000 1.0
C      1  0.5382170000000  0.5972780000000  0.5227810000000 1.0
C      1  0.5005580000000  0.5822470000000  0.4616270000000 1.0
C      1  0.5100440000000  0.4337670000000  0.4663090000000 1.0
C      1  0.4717270000000  0.5599130000000  0.5933320000000 1.0
C      1  0.4707470000000  0.4526150000000  0.5130550000000 1.0
C      1  0.4470460000000  0.4357950000000  0.5287580000000 1.0
C      1  0.5092260000000  0.5536760000000  0.4594280000000 1.0
C      1  0.5066140000000  0.4857790000000  0.5302640000000 1.0
C      1  0.4545920000000  0.5558570000000  0.5653830000000 1.0
C      1  0.5058090000000  0.4063570000000  0.4579490000000 1.0
C      1  0.4350550000000  0.5185010000000  0.4574500000000 1.0
C      1  0.5808780000000  0.4928270000000  0.5472190000000 1.0
C      1  0.4626110000000  0.4622560000000  0.6034980000000 1.0
C      1  0.4838960000000  0.5055550000000  0.4013040000000 1.0
C      1  0.5776260000000  0.5697920000000  0.5125840000000 1.0
END
