TITL C-4164241-3639-406 17.5901055370402 125000 -17417.4108470293 0 0 116 (C1) n - 1
REM
REM in /home/nfs/bkarasulu/CARBON/AIRSS/Generating-Clusters/ReaxFF-fromJPCA2015/Units_Real/with-SteepDescent/Only-C1/SD-CG/Try1-3A/FIRE-CG
REM
REM
REM
REM
REM
REM ./C.cell (11c1c37f851c82e70ff6c80c92926a4b)
REM
REM compiler GCC version 9.2.1 20190827 (Red Hat 9.2.1-1)
REM options -cpp -mtune=generic -march=x86-64 -g -O0 -fpre-include=/usr/include/finclude/math-vector-fortran.h
REM seed -816889055 527923028 -1383431255 1728806253 -1662703210 -1187412744 1439760919 -190421823 350689572 725223887 1041716436 -1028779515 999055457 -925152002 2075037717 -84200235 -629310268 2064806999 1702921580 2106487230 -865844543 -775600057 689846832 -416634383 -1860710243 2045643043 -1972103962 591881499 -1692527635 45459996 -517366296 1402705449 -1525435444
REM
CELL 1.54180   50.00000   50.00000   50.00000   90.00000   90.00000   90.00000
LATT -1
SFAC C  
C      1  0.4259120000000  0.4463170000000  0.4777410000000 1.0
C      1  0.4902520000000  0.5593090000000  0.4287000000000 1.0
C      1  0.4819650000000  0.4146870000000  0.4857200000000 1.0
C      1  0.4086560000000  0.5109540000000  0.5569020000000 1.0
C      1  0.5111120000000  0.5691790000000  0.5664580000000 1.0
C      1  0.5355290000000  0.5845890000000  0.5257860000000 1.0
C      1  0.5436860000000  0.4347700000000  0.5535070000000 1.0
C      1  0.5406890000000  0.5486400000000  0.4332910000000 1.0
C      1  0.4211910000000  0.5265820000000  0.5335680000000 1.0
C      1  0.5784810000000  0.5633880000000  0.4682890000000 1.0
C      1  0.4578240000000  0.4864170000000  0.4711330000000 1.0
C      1  0.5637240000000  0.4458890000000  0.5378660000000 1.0
C      1  0.5585460000000  0.4905960000000  0.5622480000000 1.0
C      1  0.4746500000000  0.4324360000000  0.5694470000000 1.0
C      1  0.4662690000000  0.5238400000000  0.4216110000000 1.0
C      1  0.5187870000000  0.4554150000000  0.4846590000000 1.0
C      1  0.5252650000000  0.4993860000000  0.4136700000000 1.0
C      1  0.4785450000000  0.5009340000000  0.4142640000000 1.0
C      1  0.5365640000000  0.5368500000000  0.5519210000000 1.0
C      1  0.4603970000000  0.5329790000000  0.4851820000000 1.0
C      1  0.5139840000000  0.5435200000000  0.4227960000000 1.0
C      1  0.5902320000000  0.5131280000000  0.4772910000000 1.0
C      1  0.4154550000000  0.5091820000000  0.4816110000000 1.0
C      1  0.5001930000000  0.5014120000000  0.4711450000000 1.0
C      1  0.5467160000000  0.4840780000000  0.4202850000000 1.0
C      1  0.5320460000000  0.5432980000000  0.4785550000000 1.0
C      1  0.4313430000000  0.5334910000000  0.4769370000000 1.0
C      1  0.5240460000000  0.4700560000000  0.5081850000000 1.0
C      1  0.4524710000000  0.4580280000000  0.4324110000000 1.0
C      1  0.5636490000000  0.5313730000000  0.4358240000000 1.0
C      1  0.4473410000000  0.5507050000000  0.5287700000000 1.0
C      1  0.4756480000000  0.4166850000000  0.5447650000000 1.0
C      1  0.5994370000000  0.5337240000000  0.5244370000000 1.0
C      1  0.4459820000000  0.4774460000000  0.5839600000000 1.0
C      1  0.5163950000000  0.5426200000000  0.5752420000000 1.0
C      1  0.4762210000000  0.4725730000000  0.4235220000000 1.0
C      1  0.4327810000000  0.5148360000000  0.5590580000000 1.0
C      1  0.4972030000000  0.5331030000000  0.5181090000000 1.0
C      1  0.4676720000000  0.4941710000000  0.5899950000000 1.0
C      1  0.4934500000000  0.4610200000000  0.5329070000000 1.0
C      1  0.4382190000000  0.5751020000000  0.5096610000000 1.0
C      1  0.5837520000000  0.5367260000000  0.4599330000000 1.0
C      1  0.4222960000000  0.4930960000000  0.5744630000000 1.0
C      1  0.4213200000000  0.5581900000000  0.4629350000000 1.0
C      1  0.4821720000000  0.5915960000000  0.5347160000000 1.0
C      1  0.5748800000000  0.4739770000000  0.5436350000000 1.0
C      1  0.5346640000000  0.5905210000000  0.4707100000000 1.0
C      1  0.4306060000000  0.4835340000000  0.5173400000000 1.0
C      1  0.4452040000000  0.5661460000000  0.4477920000000 1.0
C      1  0.4664750000000  0.4333050000000  0.4359170000000 1.0
C      1  0.5337210000000  0.5992740000000  0.5014090000000 1.0
C      1  0.4703040000000  0.5432600000000  0.5099820000000 1.0
C      1  0.4294600000000  0.4626500000000  0.4534100000000 1.0
C      1  0.4693100000000  0.5284910000000  0.5667030000000 1.0
C      1  0.4575720000000  0.5888360000000  0.4921720000000 1.0
C      1  0.5307420000000  0.4136140000000  0.5035300000000 1.0
C      1  0.5343100000000  0.4807800000000  0.5729200000000 1.0
C      1  0.5472190000000  0.4856310000000  0.5086680000000 1.0
C      1  0.5468670000000  0.5640450000000  0.4606170000000 1.0
C      1  0.4734220000000  0.4634620000000  0.4734310000000 1.0
C      1  0.4787180000000  0.6041860000000  0.5100350000000 1.0
C      1  0.5006200000000  0.4194050000000  0.5310380000000 1.0
C      1  0.5534330000000  0.4248500000000  0.4664610000000 1.0
C      1  0.4291970000000  0.4894290000000  0.4641780000000 1.0
C      1  0.4617440000000  0.4611660000000  0.5407890000000 1.0
C      1  0.5829650000000  0.4543720000000  0.4869640000000 1.0
C      1  0.4573460000000  0.4095000000000  0.4980810000000 1.0
C      1  0.5057380000000  0.5169840000000  0.4089970000000 1.0
C      1  0.5203120000000  0.5198460000000  0.4662500000000 1.0
C      1  0.5437980000000  0.5184640000000  0.4790100000000 1.0
C      1  0.5349240000000  0.5708040000000  0.5496350000000 1.0
C      1  0.4620100000000  0.5824070000000  0.4639570000000 1.0
C      1  0.4624750000000  0.5540230000000  0.5542340000000 1.0
C      1  0.5023950000000  0.4596400000000  0.4342980000000 1.0
C      1  0.4576680000000  0.4534850000000  0.5698830000000 1.0
C      1  0.4738820000000  0.5097340000000  0.4738580000000 1.0
C      1  0.4164340000000  0.5075440000000  0.5106510000000 1.0
C      1  0.4688790000000  0.5076680000000  0.5448880000000 1.0
C      1  0.5067870000000  0.6063960000000  0.5047830000000 1.0
C      1  0.5665520000000  0.5030590000000  0.4341440000000 1.0
C      1  0.5041100000000  0.4274790000000  0.5021430000000 1.0
C      1  0.5551070000000  0.4261160000000  0.5138380000000 1.0
C      1  0.5729640000000  0.4745620000000  0.5039950000000 1.0
C      1  0.4538450000000  0.4166180000000  0.5249740000000 1.0
C      1  0.5610570000000  0.5205600000000  0.5600620000000 1.0
C      1  0.5258110000000  0.5320880000000  0.5236180000000 1.0
C      1  0.4826890000000  0.5760880000000  0.5573700000000 1.0
C      1  0.4435670000000  0.4430520000000  0.5245760000000 1.0
C      1  0.5114000000000  0.5876730000000  0.4604440000000 1.0
C      1  0.5863350000000  0.5323900000000  0.5516310000000 1.0
C      1  0.5709370000000  0.4277150000000  0.4895690000000 1.0
C      1  0.5002220000000  0.4714510000000  0.4689680000000 1.0
C      1  0.5899150000000  0.4859750000000  0.5217880000000 1.0
C      1  0.4418380000000  0.4218560000000  0.4782470000000 1.0
C      1  0.4204790000000  0.5714370000000  0.4881530000000 1.0
C      1  0.5318440000000  0.4628720000000  0.4341460000000 1.0
C      1  0.5316430000000  0.4074110000000  0.4734040000000 1.0
C      1  0.4882890000000  0.5823230000000  0.4482330000000 1.0
C      1  0.5106720000000  0.4720070000000  0.5832590000000 1.0
C      1  0.4278580000000  0.4564300000000  0.5053670000000 1.0
C      1  0.5436250000000  0.4533350000000  0.4606730000000 1.0
C      1  0.5110550000000  0.4406150000000  0.5480460000000 1.0
C      1  0.4620410000000  0.5504430000000  0.4276160000000 1.0
C      1  0.4507270000000  0.4869210000000  0.5371550000000 1.0
C      1  0.4952750000000  0.4297190000000  0.4349960000000 1.0
C      1  0.4940370000000  0.5255130000000  0.5834480000000 1.0
C      1  0.5093350000000  0.4121630000000  0.4542820000000 1.0
C      1  0.4672190000000  0.4345360000000  0.4679260000000 1.0
C      1  0.4938480000000  0.5071450000000  0.5309850000000 1.0
C      1  0.4947930000000  0.4970570000000  0.5927950000000 1.0
C      1  0.4981280000000  0.4456920000000  0.5746450000000 1.0
C      1  0.5712540000000  0.4661930000000  0.4640640000000 1.0
C      1  0.5434780000000  0.5149590000000  0.5068720000000 1.0
C      1  0.5947370000000  0.5106800000000  0.5063230000000 1.0
C      1  0.5014700000000  0.4829690000000  0.5181770000000 1.0
C      1  0.5796940000000  0.4931540000000  0.4583680000000 1.0
END
