TITL C-4164244-2836-341 0.151923058599303 125000 -2250.57746617625 0 0 17 (C1) n - 1
REM
REM in /home/nfs/bkarasulu/CARBON/AIRSS/Generating-Clusters/ReaxFF-fromJPCA2015/Units_Real/with-SteepDescent/Only-C1/SD-CG/Try1-3A/FIRE-CG
REM
REM
REM
REM
REM
REM ./C.cell (11c1c37f851c82e70ff6c80c92926a4b)
REM
REM compiler GCC version 9.2.1 20190827 (Red Hat 9.2.1-1)
REM options -cpp -mtune=generic -march=x86-64 -g -O0 -fpre-include=/usr/include/finclude/math-vector-fortran.h
REM seed 378927351 -1038160755 575050128 -1408036669 1188813754 672126175 -111459220 -38264333 1022837263 1752183711 -892396016 119955584 -92069044 -1946159343 -1931093876 -931375939 -607420728 1433214222 -123163296 191722147 1535035200 -549451683 -489325079 -1452305192 1545658226 -1538189877 1774069530 -1195177791 161100101 2116438783 1012831411 133219173 -11547629
REM
CELL 1.54180   50.00000   50.00000   50.00000   90.00000   90.00000   90.00000
LATT -1
SFAC C  
C      1  0.4911230000000  0.5288660000000  0.4944560000000 1.0
C      1  0.5113810000000  0.5435450000000  0.4749290000000 1.0
C      1  0.4914250000000  0.5044850000000  0.5403880000000 1.0
C      1  0.5395230000000  0.5271220000000  0.4705600000000 1.0
C      1  0.4957470000000  0.4808000000000  0.4978080000000 1.0
C      1  0.5606420000000  0.4423060000000  0.4882500000000 1.0
C      1  0.4369160000000  0.4720640000000  0.4975440000000 1.0
C      1  0.4827640000000  0.4793960000000  0.5233100000000 1.0
C      1  0.4932860000000  0.5048140000000  0.5661970000000 1.0
C      1  0.5469240000000  0.4625060000000  0.4886760000000 1.0
C      1  0.4509800000000  0.4958610000000  0.4939850000000 1.0
C      1  0.5388560000000  0.5014450000000  0.4800550000000 1.0
C      1  0.4946730000000  0.5306780000000  0.5221970000000 1.0
C      1  0.5262190000000  0.4810250000000  0.4920650000000 1.0
C      1  0.5066610000000  0.5651610000000  0.4634950000000 1.0
C      1  0.4793080000000  0.5019360000000  0.4868450000000 1.0
C      1  0.4535720000000  0.4779910000000  0.5192410000000 1.0
END
