TITL C-4164235-1454-528 -2.34552898459651 125000 -8934.00300312593 0 0 60 (C1) n - 1
REM
REM in /home/nfs/bkarasulu/CARBON/AIRSS/Generating-Clusters/ReaxFF-fromJPCA2015/Units_Real/with-SteepDescent/Only-C1/SD-CG/Try1-3A/FIRE-CG
REM
REM
REM
REM
REM
REM ./C.cell (11c1c37f851c82e70ff6c80c92926a4b)
REM
REM compiler GCC version 9.2.1 20190827 (Red Hat 9.2.1-1)
REM options -cpp -mtune=generic -march=x86-64 -g -O0 -fpre-include=/usr/include/finclude/math-vector-fortran.h
REM seed -1509894 -595245997 523507199 1028742101 60348484 -858478447 249813204 451412637 1458096949 1799293616 1874811096 1245077901 133115029 1409051813 1572582794 -1014322821 1874331921 1017574516 1942037331 473542841 -389906741 1864540421 478445152 -1171004390 862590970 -101119022 -395492489 -1396680160 284387205 -300066508 -1365234418 -1890843703 232278526
REM
CELL 1.54180   50.00000   50.00000   50.00000   90.00000   90.00000   90.00000
LATT -1
SFAC C  
C      1  0.4777790000000  0.5698030000000  0.5165020000000 1.0
C      1  0.4959470000000  0.5010620000000  0.5125130000000 1.0
C      1  0.4448010000000  0.4678410000000  0.5220860000000 1.0
C      1  0.5572140000000  0.4708760000000  0.5159770000000 1.0
C      1  0.4997340000000  0.5204220000000  0.4695250000000 1.0
C      1  0.5198500000000  0.4653950000000  0.4377840000000 1.0
C      1  0.4610300000000  0.5016860000000  0.4729190000000 1.0
C      1  0.5069670000000  0.5180590000000  0.5828120000000 1.0
C      1  0.5558040000000  0.5242130000000  0.5241270000000 1.0
C      1  0.4925300000000  0.4986220000000  0.5419330000000 1.0
C      1  0.4910630000000  0.4664690000000  0.4330710000000 1.0
C      1  0.4387690000000  0.4701730000000  0.4933800000000 1.0
C      1  0.4806060000000  0.4309300000000  0.5223590000000 1.0
C      1  0.4743770000000  0.4396460000000  0.4941570000000 1.0
C      1  0.4922800000000  0.5616110000000  0.4730980000000 1.0
C      1  0.5166710000000  0.5634650000000  0.4897560000000 1.0
C      1  0.5145460000000  0.4291800000000  0.4728710000000 1.0
C      1  0.4887020000000  0.4678540000000  0.5504210000000 1.0
C      1  0.4679730000000  0.4546770000000  0.5357850000000 1.0
C      1  0.4519730000000  0.5321710000000  0.5379840000000 1.0
C      1  0.5310900000000  0.4446250000000  0.4542660000000 1.0
C      1  0.5526040000000  0.5288850000000  0.4656030000000 1.0
C      1  0.5542610000000  0.4539360000000  0.4701820000000 1.0
C      1  0.4427450000000  0.5218420000000  0.5115470000000 1.0
C      1  0.4550890000000  0.4729480000000  0.4689640000000 1.0
C      1  0.5091990000000  0.5567060000000  0.5652290000000 1.0
C      1  0.4913340000000  0.5426980000000  0.4510100000000 1.0
C      1  0.5075000000000  0.5678730000000  0.5166390000000 1.0
C      1  0.4916810000000  0.4623490000000  0.4961030000000 1.0
C      1  0.4641230000000  0.5388730000000  0.4402430000000 1.0
C      1  0.4778390000000  0.5228770000000  0.5807340000000 1.0
C      1  0.4857000000000  0.4312490000000  0.4675770000000 1.0
C      1  0.5340970000000  0.4906100000000  0.4474350000000 1.0
C      1  0.5154270000000  0.4985490000000  0.4696990000000 1.0
C      1  0.4480520000000  0.5391190000000  0.4880970000000 1.0
C      1  0.4689230000000  0.5152240000000  0.5547670000000 1.0
C      1  0.5218680000000  0.5582840000000  0.5408150000000 1.0
C      1  0.4686410000000  0.5605310000000  0.4901070000000 1.0
C      1  0.5637590000000  0.5037190000000  0.4794540000000 1.0
C      1  0.5131950000000  0.4497730000000  0.5483190000000 1.0
C      1  0.5173570000000  0.5106550000000  0.5567820000000 1.0
C      1  0.4963780000000  0.5461700000000  0.5868850000000 1.0
C      1  0.4801600000000  0.4917290000000  0.4271260000000 1.0
C      1  0.5255030000000  0.4305810000000  0.5003550000000 1.0
C      1  0.4734950000000  0.4544670000000  0.4542910000000 1.0
C      1  0.5502960000000  0.4477290000000  0.4988230000000 1.0
C      1  0.5094160000000  0.4295550000000  0.5241250000000 1.0
C      1  0.5341630000000  0.5297680000000  0.5429040000000 1.0
C      1  0.5125860000000  0.4468740000000  0.5750560000000 1.0
C      1  0.5617820000000  0.4993070000000  0.5084220000000 1.0
C      1  0.5438120000000  0.5528470000000  0.4840120000000 1.0
C      1  0.5592200000000  0.4812300000000  0.4626540000000 1.0
C      1  0.5430680000000  0.5227300000000  0.4400270000000 1.0
C      1  0.4348800000000  0.4934500000000  0.5114690000000 1.0
C      1  0.4820210000000  0.5128600000000  0.4912600000000 1.0
C      1  0.5609140000000  0.5492230000000  0.5077630000000 1.0
C      1  0.5106760000000  0.4836410000000  0.4948540000000 1.0
C      1  0.4481470000000  0.5259150000000  0.4616130000000 1.0
C      1  0.4707540000000  0.5151210000000  0.4271580000000 1.0
C      1  0.4596320000000  0.5613230000000  0.5385730000000 1.0
END
