TITL C-4164242-3624-246 161.453907357811 125000 -28186.3477618468 0 0 194 (C1) n - 1
REM
REM in /home/nfs/bkarasulu/CARBON/AIRSS/Generating-Clusters/ReaxFF-fromJPCA2015/Units_Real/with-SteepDescent/Only-C1/SD-CG/Try1-3A/FIRE-CG
REM
REM
REM
REM
REM
REM ./C.cell (11c1c37f851c82e70ff6c80c92926a4b)
REM
REM compiler GCC version 9.2.1 20190827 (Red Hat 9.2.1-1)
REM options -cpp -mtune=generic -march=x86-64 -g -O0 -fpre-include=/usr/include/finclude/math-vector-fortran.h
REM seed -296112982 -1080238081 495237725 663737904 -510807753 1074873471 1775686070 -1182123853 -137957491 1687402940 -1266666659 874724669 -197479541 1333978066 -409802984 -627040948 -1393237117 1750384196 1807263085 144281866 2024478768 2009332457 -833876580 -2081095091 163230401 -290008428 -1670686298 1037475518 -1600344761 -846189533 1870532171 1685807155 -359283193
REM
CELL 1.54180   50.00000   50.00000   50.00000   90.00000   90.00000   90.00000
LATT -1
SFAC C  
C      1  0.5677140000000  0.4682210000000  0.5776620000000 1.0
C      1  0.5778000000000  0.5604290000000  0.5789290000000 1.0
C      1  0.4409190000000  0.4709120000000  0.5292200000000 1.0
C      1  0.4660410000000  0.5236540000000  0.5229600000000 1.0
C      1  0.4342120000000  0.4543050000000  0.5788410000000 1.0
C      1  0.4361910000000  0.5585930000000  0.5499020000000 1.0
C      1  0.4795580000000  0.4926130000000  0.4306740000000 1.0
C      1  0.5697330000000  0.4121070000000  0.5237110000000 1.0
C      1  0.5530920000000  0.5351560000000  0.4133200000000 1.0
C      1  0.4289740000000  0.4776540000000  0.4397660000000 1.0
C      1  0.5668660000000  0.5077610000000  0.5206210000000 1.0
C      1  0.5350830000000  0.4296180000000  0.4486990000000 1.0
C      1  0.5065690000000  0.4378480000000  0.4437620000000 1.0
C      1  0.4924960000000  0.4184920000000  0.4254200000000 1.0
C      1  0.5554320000000  0.5705850000000  0.5745670000000 1.0
C      1  0.5497420000000  0.5712350000000  0.4871080000000 1.0
C      1  0.5965680000000  0.5506760000000  0.4677060000000 1.0
C      1  0.5414250000000  0.5964480000000  0.5168950000000 1.0
C      1  0.5905600000000  0.4976970000000  0.5341890000000 1.0
C      1  0.5831080000000  0.4663980000000  0.4536570000000 1.0
C      1  0.4876280000000  0.5298970000000  0.6040270000000 1.0
C      1  0.4855190000000  0.5027830000000  0.6154600000000 1.0
C      1  0.5258170000000  0.5854640000000  0.4246500000000 1.0
C      1  0.5036000000000  0.5186720000000  0.5481240000000 1.0
C      1  0.4104780000000  0.5000900000000  0.4462520000000 1.0
C      1  0.6137710000000  0.4626230000000  0.5148020000000 1.0
C      1  0.5701620000000  0.4989880000000  0.5802050000000 1.0
C      1  0.4858350000000  0.5395440000000  0.5393120000000 1.0
C      1  0.5418610000000  0.4754640000000  0.4300610000000 1.0
C      1  0.4889540000000  0.5339090000000  0.4845800000000 1.0
C      1  0.4788280000000  0.6124750000000  0.5238350000000 1.0
C      1  0.5425160000000  0.4335670000000  0.5506490000000 1.0
C      1  0.4895820000000  0.4525310000000  0.4619390000000 1.0
C      1  0.5094390000000  0.4826010000000  0.3895770000000 1.0
C      1  0.4750890000000  0.4261190000000  0.5327600000000 1.0
C      1  0.4994400000000  0.5995810000000  0.4340740000000 1.0
C      1  0.3845800000000  0.5196950000000  0.5016320000000 1.0
C      1  0.5030310000000  0.5489950000000  0.4002050000000 1.0
C      1  0.5888330000000  0.4524750000000  0.5027090000000 1.0
C      1  0.4820430000000  0.6009690000000  0.4838050000000 1.0
C      1  0.5209620000000  0.5392650000000  0.3804910000000 1.0
C      1  0.4849670000000  0.3851120000000  0.5153760000000 1.0
C      1  0.4256840000000  0.4045790000000  0.5290490000000 1.0
C      1  0.4953310000000  0.5750540000000  0.4909630000000 1.0
C      1  0.4841390000000  0.4627820000000  0.5903960000000 1.0
C      1  0.5083050000000  0.5014840000000  0.5042640000000 1.0
C      1  0.4818920000000  0.5110900000000  0.4991400000000 1.0
C      1  0.4198370000000  0.4990740000000  0.4958760000000 1.0
C      1  0.5019600000000  0.4020040000000  0.4735570000000 1.0
C      1  0.4507670000000  0.5592380000000  0.4967790000000 1.0
C      1  0.4839620000000  0.4671910000000  0.5116760000000 1.0
C      1  0.5382550000000  0.4803150000000  0.6102990000000 1.0
C      1  0.4524050000000  0.5984910000000  0.5221350000000 1.0
C      1  0.5016570000000  0.4630470000000  0.4884220000000 1.0
C      1  0.4139390000000  0.5541130000000  0.4596770000000 1.0
C      1  0.4366600000000  0.4947270000000  0.4142140000000 1.0
C      1  0.6080980000000  0.5158150000000  0.5489540000000 1.0
C      1  0.4566560000000  0.4595860000000  0.5079460000000 1.0
C      1  0.4043030000000  0.4514550000000  0.5131390000000 1.0
C      1  0.4627200000000  0.4987170000000  0.4786100000000 1.0
C      1  0.5250430000000  0.4348210000000  0.5860740000000 1.0
C      1  0.5550190000000  0.4777450000000  0.4569630000000 1.0
C      1  0.5615290000000  0.4592250000000  0.4158780000000 1.0
C      1  0.5205550000000  0.4883630000000  0.4824900000000 1.0
C      1  0.4273960000000  0.4933820000000  0.5234420000000 1.0
C      1  0.4949970000000  0.3891060000000  0.5429740000000 1.0
C      1  0.5824160000000  0.4539110000000  0.5569750000000 1.0
C      1  0.4878560000000  0.4702150000000  0.5399500000000 1.0
C      1  0.4740530000000  0.5908920000000  0.5631000000000 1.0
C      1  0.4490060000000  0.5850660000000  0.5474180000000 1.0
C      1  0.4467370000000  0.5960450000000  0.4509790000000 1.0
C      1  0.5197490000000  0.5849820000000  0.5383020000000 1.0
C      1  0.5230980000000  0.4003310000000  0.5415830000000 1.0
C      1  0.5077120000000  0.5608830000000  0.5216880000000 1.0
C      1  0.5096180000000  0.4866410000000  0.6122130000000 1.0
C      1  0.5643380000000  0.4683470000000  0.5084140000000 1.0
C      1  0.3912600000000  0.5340070000000  0.5528650000000 1.0
C      1  0.5054020000000  0.5040280000000  0.4331520000000 1.0
C      1  0.5199600000000  0.5073040000000  0.5279810000000 1.0
C      1  0.5547300000000  0.5292560000000  0.4671690000000 1.0
C      1  0.3774580000000  0.4988330000000  0.5222460000000 1.0
C      1  0.4391820000000  0.5286090000000  0.4248460000000 1.0
C      1  0.3931970000000  0.4811270000000  0.4602760000000 1.0
C      1  0.4969620000000  0.4557340000000  0.3859080000000 1.0
C      1  0.4647480000000  0.5707900000000  0.4243210000000 1.0
C      1  0.3936770000000  0.4984950000000  0.4841010000000 1.0
C      1  0.4710540000000  0.4855480000000  0.5586000000000 1.0
C      1  0.5698830000000  0.4296110000000  0.5473150000000 1.0
C      1  0.4955920000000  0.5283150000000  0.3798380000000 1.0
C      1  0.6012530000000  0.4908900000000  0.4529870000000 1.0
C      1  0.4511730000000  0.4131990000000  0.4578370000000 1.0
C      1  0.4118800000000  0.5606200000000  0.4880830000000 1.0
C      1  0.4426660000000  0.4059090000000  0.5537190000000 1.0
C      1  0.5364140000000  0.5884750000000  0.4698770000000 1.0
C      1  0.5890000000000  0.5396410000000  0.4427350000000 1.0
C      1  0.4881300000000  0.5010450000000  0.3842240000000 1.0
C      1  0.4701490000000  0.5986820000000  0.4320580000000 1.0
C      1  0.5391580000000  0.5103730000000  0.5642340000000 1.0
C      1  0.4100980000000  0.5501250000000  0.5376860000000 1.0
C      1  0.5885940000000  0.5030710000000  0.4085260000000 1.0
C      1  0.5396240000000  0.4574430000000  0.5188430000000 1.0
C      1  0.4379770000000  0.5847510000000  0.4990370000000 1.0
C      1  0.6043420000000  0.5494140000000  0.5093900000000 1.0
C      1  0.4608410000000  0.4591960000000  0.4576820000000 1.0
C      1  0.4589470000000  0.5420810000000  0.5623520000000 1.0
C      1  0.6044500000000  0.5427190000000  0.5379520000000 1.0
C      1  0.5112990000000  0.5682330000000  0.5871930000000 1.0
C      1  0.5405730000000  0.5441220000000  0.4890340000000 1.0
C      1  0.5666390000000  0.4231920000000  0.4760800000000 1.0
C      1  0.5094680000000  0.5758260000000  0.4647590000000 1.0
C      1  0.4685770000000  0.4854540000000  0.4545090000000 1.0
C      1  0.6000850000000  0.4703430000000  0.5398580000000 1.0
C      1  0.6238900000000  0.4846210000000  0.4973940000000 1.0
C      1  0.5312750000000  0.4143460000000  0.5660740000000 1.0
C      1  0.5228420000000  0.4852040000000  0.5617550000000 1.0
C      1  0.4588610000000  0.4388710000000  0.4118780000000 1.0
C      1  0.5224640000000  0.4900930000000  0.4152180000000 1.0
C      1  0.4534940000000  0.5096780000000  0.5651300000000 1.0
C      1  0.5586930000000  0.5026050000000  0.4721970000000 1.0
C      1  0.4617970000000  0.4188900000000  0.4305540000000 1.0
C      1  0.5434460000000  0.4007540000000  0.5186570000000 1.0
C      1  0.5256780000000  0.6084640000000  0.4974560000000 1.0
C      1  0.4729340000000  0.4052790000000  0.5534820000000 1.0
C      1  0.5310880000000  0.4614910000000  0.5458340000000 1.0
C      1  0.4175180000000  0.5281430000000  0.4453740000000 1.0
C      1  0.5309430000000  0.5448940000000  0.5177370000000 1.0
C      1  0.5115330000000  0.5510500000000  0.4494350000000 1.0
C      1  0.4983620000000  0.6176720000000  0.5009060000000 1.0
C      1  0.4675400000000  0.5561210000000  0.4490260000000 1.0
C      1  0.4886150000000  0.4438560000000  0.5523450000000 1.0
C      1  0.5460740000000  0.4462410000000  0.4713310000000 1.0
C      1  0.4624400000000  0.3893510000000  0.4966540000000 1.0
C      1  0.6094080000000  0.5329270000000  0.4848520000000 1.0
C      1  0.5460280000000  0.5762520000000  0.4436370000000 1.0
C      1  0.4970070000000  0.5348350000000  0.4289180000000 1.0
C      1  0.6132800000000  0.5028700000000  0.4771020000000 1.0
C      1  0.5887450000000  0.5217260000000  0.5703140000000 1.0
C      1  0.4398650000000  0.4751730000000  0.6017260000000 1.0
C      1  0.4455170000000  0.5344680000000  0.5060510000000 1.0
C      1  0.4008500000000  0.5443220000000  0.5085950000000 1.0
C      1  0.5712270000000  0.4831320000000  0.4015160000000 1.0
C      1  0.5295050000000  0.4036870000000  0.4644820000000 1.0
C      1  0.4997100000000  0.4325920000000  0.4018260000000 1.0
C      1  0.4203220000000  0.4488270000000  0.4823950000000 1.0
C      1  0.5566250000000  0.4937740000000  0.4990660000000 1.0
C      1  0.5447320000000  0.4576630000000  0.5922600000000 1.0
C      1  0.4737600000000  0.5568400000000  0.4806150000000 1.0
C      1  0.5248480000000  0.4454030000000  0.4957850000000 1.0
C      1  0.5450230000000  0.5237780000000  0.5331110000000 1.0
C      1  0.4338660000000  0.4256490000000  0.5749080000000 1.0
C      1  0.4900210000000  0.4136550000000  0.5121320000000 1.0
C      1  0.5586460000000  0.5461070000000  0.4414580000000 1.0
C      1  0.4688020000000  0.4784090000000  0.6102260000000 1.0
C      1  0.4095990000000  0.5162940000000  0.5595720000000 1.0
C      1  0.4455960000000  0.4628410000000  0.4823790000000 1.0
C      1  0.4697530000000  0.5482940000000  0.5892530000000 1.0
C      1  0.4381250000000  0.5590900000000  0.4201530000000 1.0
C      1  0.5343070000000  0.5526190000000  0.4007850000000 1.0
C      1  0.4679830000000  0.5309650000000  0.4362700000000 1.0
C      1  0.3908050000000  0.4741020000000  0.5216080000000 1.0
C      1  0.4678020000000  0.4584960000000  0.3940330000000 1.0
C      1  0.4527970000000  0.6015500000000  0.4788880000000 1.0
C      1  0.4482380000000  0.4676280000000  0.5567290000000 1.0
C      1  0.4395490000000  0.4085710000000  0.5012150000000 1.0
C      1  0.4204560000000  0.4330160000000  0.5295590000000 1.0
C      1  0.4665250000000  0.4886380000000  0.4032970000000 1.0
C      1  0.5139340000000  0.5366550000000  0.4738400000000 1.0
C      1  0.5299970000000  0.5792540000000  0.5676460000000 1.0
C      1  0.4942770000000  0.6012840000000  0.5453270000000 1.0
C      1  0.5530850000000  0.5047530000000  0.6037370000000 1.0
C      1  0.4296630000000  0.4236150000000  0.4739110000000 1.0
C      1  0.4721780000000  0.3967210000000  0.4708340000000 1.0
C      1  0.4382670000000  0.5021240000000  0.5932100000000 1.0
C      1  0.5089050000000  0.4201150000000  0.4952880000000 1.0
C      1  0.3854210000000  0.5046050000000  0.5494770000000 1.0
C      1  0.5371680000000  0.5251320000000  0.5903280000000 1.0
C      1  0.5636130000000  0.5116790000000  0.4001080000000 1.0
C      1  0.5882310000000  0.5688940000000  0.4954940000000 1.0
C      1  0.5170300000000  0.4956650000000  0.4556400000000 1.0
C      1  0.4331660000000  0.5127320000000  0.5438260000000 1.0
C      1  0.5142090000000  0.5415040000000  0.5988410000000 1.0
C      1  0.4827420000000  0.5741210000000  0.5852960000000 1.0
C      1  0.4280650000000  0.5740740000000  0.4429970000000 1.0
C      1  0.4963860000000  0.4386960000000  0.5803520000000 1.0
C      1  0.4118880000000  0.4579110000000  0.4563590000000 1.0
C      1  0.5029290000000  0.4831860000000  0.5834270000000 1.0
C      1  0.4405600000000  0.5156440000000  0.4847620000000 1.0
C      1  0.5476700000000  0.4031450000000  0.4882110000000 1.0
C      1  0.5810190000000  0.5452980000000  0.5557530000000 1.0
C      1  0.5645630000000  0.5804480000000  0.5078420000000 1.0
C      1  0.5967160000000  0.5124980000000  0.4343930000000 1.0
C      1  0.4499190000000  0.4337560000000  0.5178940000000 1.0
C      1  0.5706010000000  0.4445780000000  0.4394850000000 1.0
C      1  0.5838340000000  0.4236960000000  0.4996210000000 1.0
END
