TITL C-4164232-771-585 -6.30162142572712 125000 -9227.78495937102 0 0 63 (C1) n - 1
REM
REM in /home/nfs/bkarasulu/CARBON/AIRSS/Generating-Clusters/ReaxFF-fromJPCA2015/Units_Real/with-SteepDescent/Only-C1/SD-CG/Try1-3A/FIRE-CG
REM
REM
REM
REM
REM
REM ./C.cell (11c1c37f851c82e70ff6c80c92926a4b)
REM
REM compiler GCC version 9.2.1 20190827 (Red Hat 9.2.1-1)
REM options -cpp -mtune=generic -march=x86-64 -g -O0 -fpre-include=/usr/include/finclude/math-vector-fortran.h
REM seed 1006415154 -1758379402 1780422626 -2119695551 -1146551816 1478611427 -1125651012 -255749143 -1726800378 -2072573307 990353890 2062493088 -1905374586 -1874196628 -742841640 -2099829835 1364478902 2146349034 485137622 584199221 2065157909 -1045336825 -76976028 -1026230813 1971734459 374070635 952228854 1240370018 1191239072 1976659309 426660241 194245716 -1313781199
REM
CELL 1.54180   50.00000   50.00000   50.00000   90.00000   90.00000   90.00000
LATT -1
SFAC C  
C      1  0.5308230000000  0.5174250000000  0.4314080000000 1.0
C      1  0.5429550000000  0.5244660000000  0.5647460000000 1.0
C      1  0.4335500000000  0.5259490000000  0.4869860000000 1.0
C      1  0.4267230000000  0.4826430000000  0.4989720000000 1.0
C      1  0.4492980000000  0.5022170000000  0.4976460000000 1.0
C      1  0.4449750000000  0.4819950000000  0.4486710000000 1.0
C      1  0.4293830000000  0.4679040000000  0.4730570000000 1.0
C      1  0.5428680000000  0.4440790000000  0.4955450000000 1.0
C      1  0.4620160000000  0.5457390000000  0.5273880000000 1.0
C      1  0.5449260000000  0.5165800000000  0.4578960000000 1.0
C      1  0.4775970000000  0.5856470000000  0.5020000000000 1.0
C      1  0.5152260000000  0.4811920000000  0.4863950000000 1.0
C      1  0.5649510000000  0.4667400000000  0.4597530000000 1.0
C      1  0.4998480000000  0.5631250000000  0.4753500000000 1.0
C      1  0.4814130000000  0.5165870000000  0.4453300000000 1.0
C      1  0.5210840000000  0.5082700000000  0.5247970000000 1.0
C      1  0.5276650000000  0.4398750000000  0.4707490000000 1.0
C      1  0.4934490000000  0.4573960000000  0.4428430000000 1.0
C      1  0.4818250000000  0.5214740000000  0.5535130000000 1.0
C      1  0.4756200000000  0.4943540000000  0.4908030000000 1.0
C      1  0.4850730000000  0.4514270000000  0.5433990000000 1.0
C      1  0.5264630000000  0.5731710000000  0.5196160000000 1.0
C      1  0.5524280000000  0.5493540000000  0.5548000000000 1.0
C      1  0.5630760000000  0.4648250000000  0.4895010000000 1.0
C      1  0.5397780000000  0.4548200000000  0.4480020000000 1.0
C      1  0.5038990000000  0.5834070000000  0.5119590000000 1.0
C      1  0.4388550000000  0.5327900000000  0.4595120000000 1.0
C      1  0.4419050000000  0.5528430000000  0.4818100000000 1.0
C      1  0.4371530000000  0.4888280000000  0.5472390000000 1.0
C      1  0.5856200000000  0.4773560000000  0.5317420000000 1.0
C      1  0.5301200000000  0.4443510000000  0.5218460000000 1.0
C      1  0.5756520000000  0.4555760000000  0.5501600000000 1.0
C      1  0.4994670000000  0.4460540000000  0.4697160000000 1.0
C      1  0.4922320000000  0.4644530000000  0.4934530000000 1.0
C      1  0.5677670000000  0.4865410000000  0.5100030000000 1.0
C      1  0.4325270000000  0.4422980000000  0.4852520000000 1.0
C      1  0.4366580000000  0.4441810000000  0.5171750000000 1.0
C      1  0.5491550000000  0.5601300000000  0.5257800000000 1.0
C      1  0.4572970000000  0.5628560000000  0.5054670000000 1.0
C      1  0.4849240000000  0.4776870000000  0.5566650000000 1.0
C      1  0.4541500000000  0.5134410000000  0.5496300000000 1.0
C      1  0.4685720000000  0.4708770000000  0.4444630000000 1.0
C      1  0.5566910000000  0.5374410000000  0.5070060000000 1.0
C      1  0.5450990000000  0.4519750000000  0.5477840000000 1.0
C      1  0.5404390000000  0.4753190000000  0.5602570000000 1.0
C      1  0.5303760000000  0.4995340000000  0.5692870000000 1.0
C      1  0.5037560000000  0.5366490000000  0.4857490000000 1.0
C      1  0.4273480000000  0.4710610000000  0.5261020000000 1.0
C      1  0.4612500000000  0.4451280000000  0.5293730000000 1.0
C      1  0.4882870000000  0.5146070000000  0.4737890000000 1.0
C      1  0.5523350000000  0.5325220000000  0.4803590000000 1.0
C      1  0.4888590000000  0.5425990000000  0.5352710000000 1.0
C      1  0.4881960000000  0.5900200000000  0.4725050000000 1.0
C      1  0.5307820000000  0.4978540000000  0.4739510000000 1.0
C      1  0.5029590000000  0.5150270000000  0.4256990000000 1.0
C      1  0.5080120000000  0.5310010000000  0.5145150000000 1.0
C      1  0.5190890000000  0.4677940000000  0.4324620000000 1.0
C      1  0.5035950000000  0.5000280000000  0.5515710000000 1.0
C      1  0.5022920000000  0.4489540000000  0.5196240000000 1.0
C      1  0.5485960000000  0.5088070000000  0.5158420000000 1.0
C      1  0.5208740000000  0.4937560000000  0.4209680000000 1.0
C      1  0.4597220000000  0.4880110000000  0.5621160000000 1.0
C      1  0.4524790000000  0.5109910000000  0.4447310000000 1.0
END
