TITL C-4164233-775-90 -7.10939352193726 125000 -14536.338033753 0 0 98 (C1) n - 1
REM
REM in /home/nfs/bkarasulu/CARBON/AIRSS/Generating-Clusters/ReaxFF-fromJPCA2015/Units_Real/with-SteepDescent/Only-C1/SD-CG/Try1-3A/FIRE-CG
REM
REM
REM
REM
REM
REM ./C.cell (11c1c37f851c82e70ff6c80c92926a4b)
REM
REM compiler GCC version 9.2.1 20190827 (Red Hat 9.2.1-1)
REM options -cpp -mtune=generic -march=x86-64 -g -O0 -fpre-include=/usr/include/finclude/math-vector-fortran.h
REM seed -1845169654 1955308460 -410594820 1696505932 -260207470 952271891 -247644003 -32280192 280085092 -2136460128 2104692493 -22962595 -2068829237 -1242066263 -1197635349 -2098229050 55392860 -1995130721 396631404 973086230 -378625296 367480335 -1215127981 2104609574 -203677578 1794113300 1666827208 -451434136 -485372889 1588468507 1034078657 867004282 -1551341303
REM
CELL 1.54180   50.00000   50.00000   50.00000   90.00000   90.00000   90.00000
LATT -1
SFAC C  
C      1  0.4783360000000  0.4114620000000  0.4738070000000 1.0
C      1  0.5824130000000  0.5105710000000  0.5168040000000 1.0
C      1  0.5066550000000  0.5324600000000  0.4099790000000 1.0
C      1  0.4806730000000  0.5901470000000  0.5162710000000 1.0
C      1  0.5332320000000  0.5396340000000  0.4216280000000 1.0
C      1  0.4937010000000  0.4851840000000  0.4617770000000 1.0
C      1  0.5312250000000  0.4696260000000  0.4288210000000 1.0
C      1  0.5764780000000  0.4844170000000  0.5603460000000 1.0
C      1  0.4685760000000  0.4501350000000  0.4527670000000 1.0
C      1  0.4754360000000  0.5012830000000  0.5800100000000 1.0
C      1  0.4538100000000  0.5318900000000  0.4633620000000 1.0
C      1  0.4721190000000  0.5047130000000  0.5022730000000 1.0
C      1  0.4759030000000  0.5325560000000  0.5106000000000 1.0
C      1  0.5758560000000  0.5076360000000  0.4748740000000 1.0
C      1  0.5072060000000  0.4556360000000  0.4211620000000 1.0
C      1  0.5579660000000  0.5001150000000  0.5780380000000 1.0
C      1  0.5015650000000  0.5445940000000  0.5170410000000 1.0
C      1  0.4444300000000  0.5652240000000  0.5251260000000 1.0
C      1  0.4898070000000  0.5671440000000  0.4445490000000 1.0
C      1  0.5499660000000  0.5312850000000  0.4423850000000 1.0
C      1  0.4548920000000  0.5526220000000  0.5679210000000 1.0
C      1  0.4214870000000  0.4901260000000  0.4569030000000 1.0
C      1  0.5758120000000  0.4678630000000  0.5089890000000 1.0
C      1  0.4447860000000  0.5114300000000  0.4167830000000 1.0
C      1  0.5323050000000  0.4171300000000  0.4784470000000 1.0
C      1  0.5366860000000  0.4921880000000  0.5330380000000 1.0
C      1  0.5557520000000  0.4342770000000  0.4781740000000 1.0
C      1  0.4940710000000  0.5795350000000  0.4725750000000 1.0
C      1  0.4573270000000  0.4623930000000  0.5470360000000 1.0
C      1  0.5399060000000  0.5181760000000  0.5256110000000 1.0
C      1  0.5177900000000  0.5338920000000  0.5749300000000 1.0
C      1  0.4856030000000  0.5118650000000  0.4120890000000 1.0
C      1  0.5232170000000  0.5237770000000  0.4805180000000 1.0
C      1  0.5251990000000  0.5695330000000  0.5404010000000 1.0
C      1  0.5032830000000  0.5076780000000  0.5735390000000 1.0
C      1  0.4453150000000  0.5677270000000  0.4959670000000 1.0
C      1  0.5075650000000  0.5752070000000  0.5153830000000 1.0
C      1  0.5002140000000  0.4375490000000  0.5250960000000 1.0
C      1  0.5458320000000  0.5263180000000  0.5714700000000 1.0
C      1  0.4133290000000  0.4839320000000  0.4845410000000 1.0
C      1  0.5593600000000  0.4638410000000  0.4670490000000 1.0
C      1  0.5305020000000  0.4072190000000  0.5056930000000 1.0
C      1  0.5764210000000  0.5291900000000  0.4971960000000 1.0
C      1  0.5538790000000  0.4803240000000  0.4398930000000 1.0
C      1  0.4931470000000  0.4566460000000  0.5025390000000 1.0
C      1  0.4469430000000  0.4456530000000  0.5031190000000 1.0
C      1  0.4839860000000  0.4057200000000  0.4982010000000 1.0
C      1  0.5627640000000  0.5071480000000  0.4488990000000 1.0
C      1  0.4349360000000  0.5322670000000  0.5692800000000 1.0
C      1  0.4465030000000  0.5362570000000  0.5294120000000 1.0
C      1  0.5136350000000  0.4905870000000  0.5512890000000 1.0
C      1  0.5489680000000  0.4234900000000  0.5223770000000 1.0
C      1  0.4195940000000  0.4623970000000  0.4648880000000 1.0
C      1  0.4558640000000  0.4825050000000  0.5680850000000 1.0
C      1  0.4550200000000  0.5112500000000  0.5612120000000 1.0
C      1  0.4652030000000  0.5815320000000  0.5390220000000 1.0
C      1  0.4136500000000  0.5162060000000  0.5524860000000 1.0
C      1  0.5189480000000  0.5794110000000  0.4864390000000 1.0
C      1  0.4705880000000  0.5833760000000  0.4903430000000 1.0
C      1  0.4352820000000  0.5422100000000  0.4861930000000 1.0
C      1  0.4782460000000  0.4634810000000  0.4285380000000 1.0
C      1  0.4515230000000  0.4254620000000  0.4830280000000 1.0
C      1  0.4787830000000  0.5666990000000  0.5613700000000 1.0
C      1  0.4923650000000  0.4949630000000  0.5354590000000 1.0
C      1  0.4604780000000  0.5168010000000  0.4003220000000 1.0
C      1  0.5099540000000  0.5573060000000  0.4237270000000 1.0
C      1  0.5601970000000  0.5542770000000  0.5027930000000 1.0
C      1  0.5442140000000  0.4743400000000  0.5116540000000 1.0
C      1  0.4423170000000  0.4651580000000  0.5214390000000 1.0
C      1  0.5511720000000  0.5596040000000  0.5304850000000 1.0
C      1  0.4326170000000  0.5229130000000  0.5076980000000 1.0
C      1  0.4246030000000  0.4911540000000  0.5108260000000 1.0
C      1  0.4869630000000  0.4834890000000  0.5118070000000 1.0
C      1  0.4073140000000  0.5031590000000  0.5357720000000 1.0
C      1  0.4768490000000  0.4923730000000  0.4367630000000 1.0
C      1  0.4412990000000  0.4425050000000  0.4610500000000 1.0
C      1  0.5353800000000  0.5429380000000  0.4627650000000 1.0
C      1  0.4823460000000  0.4468620000000  0.5500160000000 1.0
C      1  0.5065080000000  0.4180470000000  0.4618760000000 1.0
C      1  0.5354380000000  0.4752850000000  0.4850970000000 1.0
C      1  0.5222860000000  0.5289400000000  0.5081210000000 1.0
C      1  0.4449490000000  0.5045850000000  0.4449320000000 1.0
C      1  0.4749410000000  0.5233140000000  0.4825450000000 1.0
C      1  0.5081780000000  0.5580900000000  0.5613080000000 1.0
C      1  0.5540310000000  0.4717490000000  0.5732620000000 1.0
C      1  0.5668960000000  0.4377910000000  0.5042150000000 1.0
C      1  0.5185020000000  0.4956710000000  0.4727260000000 1.0
C      1  0.5296950000000  0.4380850000000  0.5386820000000 1.0
C      1  0.4645000000000  0.5545300000000  0.4443290000000 1.0
C      1  0.5794630000000  0.4800560000000  0.4819030000000 1.0
C      1  0.4873950000000  0.4598580000000  0.4744270000000 1.0
C      1  0.5089600000000  0.4356320000000  0.4407980000000 1.0
C      1  0.5850810000000  0.4878100000000  0.5320300000000 1.0
C      1  0.5536670000000  0.5341150000000  0.5442800000000 1.0
C      1  0.5035450000000  0.4523990000000  0.5662920000000 1.0
C      1  0.5035500000000  0.4074890000000  0.5174010000000 1.0
C      1  0.5435490000000  0.5650320000000  0.4813530000000 1.0
C      1  0.5313300000000  0.4518790000000  0.5642680000000 1.0
END
