TITL C-4164238-4211-287 150.472783405243 125000 -20627.0666887164 0 0 140 (C1) n - 1
REM
REM in /home/nfs/bkarasulu/CARBON/AIRSS/Generating-Clusters/ReaxFF-fromJPCA2015/Units_Real/with-SteepDescent/Only-C1/SD-CG/Try1-3A/FIRE-CG
REM
REM
REM
REM
REM
REM ./C.cell (11c1c37f851c82e70ff6c80c92926a4b)
REM
REM compiler GCC version 9.2.1 20190827 (Red Hat 9.2.1-1)
REM options -cpp -mtune=generic -march=x86-64 -g -O0 -fpre-include=/usr/include/finclude/math-vector-fortran.h
REM seed 1469590473 -1089724476 -1172109111 -1428977081 1136053544 -176590474 -1307858397 690613926 1896372076 -168858997 -972411766 681866506 -1296663989 246259946 -1429489474 295410507 -2005408729 586053433 -102827451 -942278110 506286983 1814703489 -814569546 -1009271314 327723682 -1880657636 -785483755 -1525883989 -345150147 -1635837338 -199714130 1947919373 498986647
REM
CELL 1.54180   50.00000   50.00000   50.00000   90.00000   90.00000   90.00000
LATT -1
SFAC C  
C      1  0.5665950000000  0.5044420000000  0.5387000000000 1.0
C      1  0.4752110000000  0.3987120000000  0.4938720000000 1.0
C      1  0.4914790000000  0.5556030000000  0.4703210000000 1.0
C      1  0.5326740000000  0.4123030000000  0.5631920000000 1.0
C      1  0.4116000000000  0.5395510000000  0.5217780000000 1.0
C      1  0.4106660000000  0.5599140000000  0.4986350000000 1.0
C      1  0.4952480000000  0.3983330000000  0.4730220000000 1.0
C      1  0.4858960000000  0.4728510000000  0.5452010000000 1.0
C      1  0.5315360000000  0.4349420000000  0.5818660000000 1.0
C      1  0.4690960000000  0.5940860000000  0.4670740000000 1.0
C      1  0.5060780000000  0.5938220000000  0.5269690000000 1.0
C      1  0.4640780000000  0.4640430000000  0.4887500000000 1.0
C      1  0.5094010000000  0.5340770000000  0.5393070000000 1.0
C      1  0.5429380000000  0.5580730000000  0.4218290000000 1.0
C      1  0.5202480000000  0.5739200000000  0.4331910000000 1.0
C      1  0.5229560000000  0.5936190000000  0.4558640000000 1.0
C      1  0.4611590000000  0.5762510000000  0.5584080000000 1.0
C      1  0.4761250000000  0.5003010000000  0.5431750000000 1.0
C      1  0.4639660000000  0.5424170000000  0.5161550000000 1.0
C      1  0.5520240000000  0.5478980000000  0.5654810000000 1.0
C      1  0.5060610000000  0.5324390000000  0.4619370000000 1.0
C      1  0.5297390000000  0.5044250000000  0.4021260000000 1.0
C      1  0.5379000000000  0.5924240000000  0.4809250000000 1.0
C      1  0.5577270000000  0.5243690000000  0.5819070000000 1.0
C      1  0.4985390000000  0.5016750000000  0.4978590000000 1.0
C      1  0.4399770000000  0.5005560000000  0.4637130000000 1.0
C      1  0.4571340000000  0.4156780000000  0.4553210000000 1.0
C      1  0.5069870000000  0.4192100000000  0.5757460000000 1.0
C      1  0.4993610000000  0.5559170000000  0.5820240000000 1.0
C      1  0.5777120000000  0.5280380000000  0.5275110000000 1.0
C      1  0.4964700000000  0.4581640000000  0.4145840000000 1.0
C      1  0.5834110000000  0.4882240000000  0.5535420000000 1.0
C      1  0.5673590000000  0.5522040000000  0.4331880000000 1.0
C      1  0.5742950000000  0.4414260000000  0.5340580000000 1.0
C      1  0.4717790000000  0.5681790000000  0.4513860000000 1.0
C      1  0.5956950000000  0.5230730000000  0.5035580000000 1.0
C      1  0.4060980000000  0.4671900000000  0.5247230000000 1.0
C      1  0.4444750000000  0.5492850000000  0.4546380000000 1.0
C      1  0.4626750000000  0.4950030000000  0.5963260000000 1.0
C      1  0.5103340000000  0.4946240000000  0.4199400000000 1.0
C      1  0.4738920000000  0.4977110000000  0.5142430000000 1.0
C      1  0.4842810000000  0.4160060000000  0.4520260000000 1.0
C      1  0.4085620000000  0.4937590000000  0.5386970000000 1.0
C      1  0.4203350000000  0.4478600000000  0.4806590000000 1.0
C      1  0.4789850000000  0.4579650000000  0.5691050000000 1.0
C      1  0.4929610000000  0.5650620000000  0.4274140000000 1.0
C      1  0.4972140000000  0.6016610000000  0.4686670000000 1.0
C      1  0.5387480000000  0.5254080000000  0.4206240000000 1.0
C      1  0.5896740000000  0.5383850000000  0.4800080000000 1.0
C      1  0.5373350000000  0.5255060000000  0.4958600000000 1.0
C      1  0.5228580000000  0.4541400000000  0.5260690000000 1.0
C      1  0.4931870000000  0.4530090000000  0.5234150000000 1.0
C      1  0.5494840000000  0.4650460000000  0.4184660000000 1.0
C      1  0.5224040000000  0.5486390000000  0.4962910000000 1.0
C      1  0.5329170000000  0.4714220000000  0.5480130000000 1.0
C      1  0.4271310000000  0.4493050000000  0.4506000000000 1.0
C      1  0.4909270000000  0.4892390000000  0.6071430000000 1.0
C      1  0.5798070000000  0.4562310000000  0.4841800000000 1.0
C      1  0.4109840000000  0.4714810000000  0.4400860000000 1.0
C      1  0.4610910000000  0.5930040000000  0.4962490000000 1.0
C      1  0.4825800000000  0.4294590000000  0.5637830000000 1.0
C      1  0.5210100000000  0.5542020000000  0.5593410000000 1.0
C      1  0.4864360000000  0.5157690000000  0.4750910000000 1.0
C      1  0.4346150000000  0.5236950000000  0.5666240000000 1.0
C      1  0.4853520000000  0.5318500000000  0.5888080000000 1.0
C      1  0.4576130000000  0.5215420000000  0.5850920000000 1.0
C      1  0.4574530000000  0.5223700000000  0.4718550000000 1.0
C      1  0.4550080000000  0.4760810000000  0.4646440000000 1.0
C      1  0.4913000000000  0.4544660000000  0.4895800000000 1.0
C      1  0.4359700000000  0.4302020000000  0.4986530000000 1.0
C      1  0.4981980000000  0.5771580000000  0.4863070000000 1.0
C      1  0.5830080000000  0.4713630000000  0.4591340000000 1.0
C      1  0.4514400000000  0.4363680000000  0.4378250000000 1.0
C      1  0.5884440000000  0.4645980000000  0.5364770000000 1.0
C      1  0.5148480000000  0.4747010000000  0.4847470000000 1.0
C      1  0.5659390000000  0.4803960000000  0.4369630000000 1.0
C      1  0.4212460000000  0.4975550000000  0.5639330000000 1.0
C      1  0.4537450000000  0.4784400000000  0.5113390000000 1.0
C      1  0.5230360000000  0.4757590000000  0.4027480000000 1.0
C      1  0.4924680000000  0.5389980000000  0.4140250000000 1.0
C      1  0.4120360000000  0.4968790000000  0.4570330000000 1.0
C      1  0.5211050000000  0.5143810000000  0.5202360000000 1.0
C      1  0.4630180000000  0.4974010000000  0.4224840000000 1.0
C      1  0.5611640000000  0.5823460000000  0.4948670000000 1.0
C      1  0.5504290000000  0.4838490000000  0.5918550000000 1.0
C      1  0.4810660000000  0.5293780000000  0.5380210000000 1.0
C      1  0.4859150000000  0.5802210000000  0.5709670000000 1.0
C      1  0.5958190000000  0.4969320000000  0.4662470000000 1.0
C      1  0.5805330000000  0.5671540000000  0.4785180000000 1.0
C      1  0.4364440000000  0.5123330000000  0.4188290000000 1.0
C      1  0.5848240000000  0.5218760000000  0.4561010000000 1.0
C      1  0.4283660000000  0.4852740000000  0.5207190000000 1.0
C      1  0.5434820000000  0.4460220000000  0.4362070000000 1.0
C      1  0.4282560000000  0.4516120000000  0.5419290000000 1.0
C      1  0.5697920000000  0.5641090000000  0.4533680000000 1.0
C      1  0.5375030000000  0.4091540000000  0.5343100000000 1.0
C      1  0.5211070000000  0.4005980000000  0.4865010000000 1.0
C      1  0.4328090000000  0.4700520000000  0.5647630000000 1.0
C      1  0.5724200000000  0.4977140000000  0.5784380000000 1.0
C      1  0.4816560000000  0.5988110000000  0.5142900000000 1.0
C      1  0.4706840000000  0.4461160000000  0.4158990000000 1.0
C      1  0.4512600000000  0.4115590000000  0.4830550000000 1.0
C      1  0.5584170000000  0.5390260000000  0.5101710000000 1.0
C      1  0.5559350000000  0.4374280000000  0.4926990000000 1.0
C      1  0.5604790000000  0.4224140000000  0.5217610000000 1.0
C      1  0.5406450000000  0.4970870000000  0.5361920000000 1.0
C      1  0.4996110000000  0.4401340000000  0.4602190000000 1.0
C      1  0.4875540000000  0.4041890000000  0.5194550000000 1.0
C      1  0.4316970000000  0.5392890000000  0.4283840000000 1.0
C      1  0.5573190000000  0.5665640000000  0.5200300000000 1.0
C      1  0.4960450000000  0.4646690000000  0.4435500000000 1.0
C      1  0.5372750000000  0.4628600000000  0.5752070000000 1.0
C      1  0.4747610000000  0.4267660000000  0.5347400000000 1.0
C      1  0.5377370000000  0.5072000000000  0.4659390000000 1.0
C      1  0.5067910000000  0.5112430000000  0.5958710000000 1.0
C      1  0.4706150000000  0.4784360000000  0.4428700000000 1.0
C      1  0.4051770000000  0.4684680000000  0.4932780000000 1.0
C      1  0.4199740000000  0.5194040000000  0.5021930000000 1.0
C      1  0.5212760000000  0.4860850000000  0.4561070000000 1.0
C      1  0.5694860000000  0.5561760000000  0.5443090000000 1.0
C      1  0.5420660000000  0.4166130000000  0.4750220000000 1.0
C      1  0.5367840000000  0.5097090000000  0.5962990000000 1.0
C      1  0.5131000000000  0.5314260000000  0.4336210000000 1.0
C      1  0.4479410000000  0.5250950000000  0.4991740000000 1.0
C      1  0.4254490000000  0.5439170000000  0.5472940000000 1.0
C      1  0.5161900000000  0.4015450000000  0.5158250000000 1.0
C      1  0.5585870000000  0.5104700000000  0.4442730000000 1.0
C      1  0.5288700000000  0.4298190000000  0.4530170000000 1.0
C      1  0.5348860000000  0.4588160000000  0.5003980000000 1.0
C      1  0.4863660000000  0.5101050000000  0.4128750000000 1.0
C      1  0.4553290000000  0.4699160000000  0.5825550000000 1.0
C      1  0.4394590000000  0.5702800000000  0.5429140000000 1.0
C      1  0.6008720000000  0.4962080000000  0.4951440000000 1.0
C      1  0.4534500000000  0.5699120000000  0.5150630000000 1.0
C      1  0.4055820000000  0.4965430000000  0.4855620000000 1.0
C      1  0.5203640000000  0.5763560000000  0.5023110000000 1.0
C      1  0.4237690000000  0.5608350000000  0.4724510000000 1.0
C      1  0.5914370000000  0.4701610000000  0.5061040000000 1.0
C      1  0.4440940000000  0.4343300000000  0.5267690000000 1.0
C      1  0.5097350000000  0.5836560000000  0.5531300000000 1.0
END
