TITL C-4164236-1577-34 19.5878749437592 125000 -28405.6789782337 0 0 190 (C1) n - 1
REM
REM in /home/nfs/bkarasulu/CARBON/AIRSS/Generating-Clusters/ReaxFF-fromJPCA2015/Units_Real/with-SteepDescent/Only-C1/SD-CG/Try1-3A/FIRE-CG
REM
REM
REM
REM
REM
REM ./C.cell (11c1c37f851c82e70ff6c80c92926a4b)
REM
REM compiler GCC version 9.2.1 20190827 (Red Hat 9.2.1-1)
REM options -cpp -mtune=generic -march=x86-64 -g -O0 -fpre-include=/usr/include/finclude/math-vector-fortran.h
REM seed -1932563036 -2001375348 1153357135 -1880972737 997146324 -2118131145 1403638462 1948108509 -578251304 1431371879 383069446 79419389 494115955 1716109535 -233792257 -1382294630 230479944 -318826972 849965703 -439564107 -1267378519 517108244 -2083167016 -353431490 1390249247 1866975326 1231207449 -702271677 -1857354296 378019572 -1989528766 -186552622 1937313181
REM
CELL 1.54180   50.00000   50.00000   50.00000   90.00000   90.00000   90.00000
LATT -1
SFAC C  
C      1  0.4596410000000  0.5513880000000  0.4635340000000 1.0
C      1  0.5304860000000  0.5258000000000  0.4253340000000 1.0
C      1  0.4110090000000  0.4648260000000  0.4451460000000 1.0
C      1  0.4678880000000  0.4525460000000  0.4500580000000 1.0
C      1  0.4958340000000  0.4894100000000  0.5470490000000 1.0
C      1  0.4878240000000  0.4440250000000  0.4995990000000 1.0
C      1  0.6103460000000  0.4902520000000  0.4791360000000 1.0
C      1  0.5034980000000  0.3930360000000  0.4756380000000 1.0
C      1  0.4383160000000  0.5230370000000  0.5749660000000 1.0
C      1  0.4473780000000  0.4601380000000  0.4093220000000 1.0
C      1  0.5391100000000  0.5522250000000  0.5830160000000 1.0
C      1  0.4769100000000  0.6217980000000  0.4867070000000 1.0
C      1  0.4635850000000  0.4141240000000  0.4262870000000 1.0
C      1  0.5774650000000  0.4820520000000  0.4181990000000 1.0
C      1  0.4885240000000  0.5168650000000  0.4527680000000 1.0
C      1  0.6191470000000  0.5265670000000  0.5158450000000 1.0
C      1  0.5783610000000  0.5377070000000  0.5013300000000 1.0
C      1  0.4279790000000  0.5247070000000  0.4901360000000 1.0
C      1  0.5112420000000  0.5368170000000  0.4929040000000 1.0
C      1  0.4600780000000  0.4148580000000  0.5718180000000 1.0
C      1  0.4481860000000  0.5295200000000  0.5300490000000 1.0
C      1  0.4491380000000  0.4635300000000  0.5310550000000 1.0
C      1  0.5465710000000  0.4102110000000  0.4697310000000 1.0
C      1  0.5356510000000  0.4392610000000  0.4185030000000 1.0
C      1  0.5870920000000  0.4417710000000  0.4722720000000 1.0
C      1  0.5254900000000  0.6046200000000  0.5273240000000 1.0
C      1  0.4317290000000  0.4814880000000  0.5086110000000 1.0
C      1  0.4264950000000  0.4091670000000  0.5286540000000 1.0
C      1  0.4617470000000  0.6133910000000  0.5109040000000 1.0
C      1  0.5521120000000  0.4869530000000  0.4063810000000 1.0
C      1  0.3805210000000  0.5139660000000  0.5211860000000 1.0
C      1  0.4141770000000  0.4420170000000  0.4657250000000 1.0
C      1  0.4792940000000  0.5687700000000  0.5691200000000 1.0
C      1  0.4647700000000  0.6171400000000  0.4601000000000 1.0
C      1  0.5104080000000  0.4422650000000  0.4562410000000 1.0
C      1  0.5527600000000  0.5436200000000  0.5119600000000 1.0
C      1  0.5963710000000  0.4300450000000  0.5189660000000 1.0
C      1  0.4730750000000  0.3923130000000  0.4729310000000 1.0
C      1  0.5377880000000  0.5538940000000  0.4288490000000 1.0
C      1  0.4545950000000  0.4050620000000  0.4537170000000 1.0
C      1  0.4709120000000  0.4815380000000  0.4798840000000 1.0
C      1  0.5367790000000  0.4690250000000  0.5794170000000 1.0
C      1  0.4877190000000  0.3846880000000  0.5182680000000 1.0
C      1  0.5118490000000  0.4646160000000  0.5172270000000 1.0
C      1  0.5625280000000  0.5782130000000  0.5471670000000 1.0
C      1  0.5109930000000  0.4257840000000  0.5852850000000 1.0
C      1  0.6206770000000  0.4804790000000  0.5267830000000 1.0
C      1  0.5399350000000  0.5283190000000  0.5953010000000 1.0
C      1  0.4417630000000  0.4809730000000  0.4796190000000 1.0
C      1  0.5972870000000  0.4395320000000  0.5456460000000 1.0
C      1  0.5138230000000  0.4238650000000  0.4311610000000 1.0
C      1  0.5036030000000  0.4612220000000  0.5457440000000 1.0
C      1  0.4202640000000  0.4781360000000  0.5708010000000 1.0
C      1  0.5790020000000  0.5660740000000  0.4574210000000 1.0
C      1  0.5474870000000  0.6064720000000  0.4716140000000 1.0
C      1  0.4665250000000  0.5389010000000  0.5103390000000 1.0
C      1  0.5596610000000  0.5090510000000  0.5855000000000 1.0
C      1  0.5546930000000  0.6018730000000  0.5261790000000 1.0
C      1  0.5226830000000  0.4025610000000  0.4552140000000 1.0
C      1  0.4510290000000  0.4152500000000  0.5121660000000 1.0
C      1  0.4758700000000  0.5986160000000  0.4394000000000 1.0
C      1  0.5054720000000  0.5931160000000  0.4390660000000 1.0
C      1  0.5406270000000  0.4655430000000  0.5226960000000 1.0
C      1  0.4351410000000  0.5329520000000  0.4207840000000 1.0
C      1  0.4914530000000  0.5522790000000  0.5087250000000 1.0
C      1  0.4774920000000  0.5108690000000  0.4787890000000 1.0
C      1  0.5036990000000  0.6168320000000  0.5427390000000 1.0
C      1  0.4810430000000  0.4947780000000  0.5013350000000 1.0
C      1  0.5373330000000  0.4290790000000  0.4920340000000 1.0
C      1  0.4767240000000  0.5582400000000  0.4238850000000 1.0
C      1  0.5089690000000  0.5109490000000  0.5634820000000 1.0
C      1  0.5474530000000  0.4915850000000  0.5661580000000 1.0
C      1  0.5222020000000  0.5112000000000  0.5009910000000 1.0
C      1  0.4392580000000  0.4945320000000  0.5865840000000 1.0
C      1  0.5165570000000  0.4523690000000  0.5686150000000 1.0
C      1  0.4241450000000  0.5885200000000  0.4846390000000 1.0
C      1  0.5891300000000  0.5387480000000  0.5670940000000 1.0
C      1  0.3955910000000  0.4869410000000  0.4558150000000 1.0
C      1  0.4559560000000  0.5305340000000  0.4000650000000 1.0
C      1  0.5014880000000  0.6053180000000  0.4865230000000 1.0
C      1  0.4216690000000  0.5070420000000  0.4198970000000 1.0
C      1  0.5053130000000  0.5548380000000  0.5341430000000 1.0
C      1  0.5702510000000  0.4226680000000  0.4570260000000 1.0
C      1  0.5395910000000  0.5743290000000  0.5703620000000 1.0
C      1  0.5594450000000  0.4833740000000  0.4754080000000 1.0
C      1  0.5306650000000  0.3806960000000  0.5532950000000 1.0
C      1  0.5248110000000  0.4073550000000  0.5629940000000 1.0
C      1  0.5192490000000  0.5070150000000  0.4466080000000 1.0
C      1  0.5103070000000  0.3750980000000  0.5031750000000 1.0
C      1  0.3880570000000  0.4878500000000  0.5302390000000 1.0
C      1  0.4833930000000  0.4757400000000  0.4425210000000 1.0
C      1  0.5214490000000  0.4232120000000  0.5391560000000 1.0
C      1  0.4350020000000  0.4076770000000  0.5573530000000 1.0
C      1  0.5016140000000  0.4103240000000  0.5233930000000 1.0
C      1  0.5719940000000  0.5910630000000  0.4715640000000 1.0
C      1  0.4027090000000  0.4449370000000  0.4942090000000 1.0
C      1  0.4114400000000  0.4271040000000  0.5134190000000 1.0
C      1  0.4503720000000  0.4400680000000  0.4300270000000 1.0
C      1  0.5079830000000  0.4202640000000  0.4967970000000 1.0
C      1  0.5908190000000  0.4280850000000  0.4932710000000 1.0
C      1  0.5533760000000  0.4638720000000  0.4556940000000 1.0
C      1  0.4133270000000  0.5096000000000  0.4476700000000 1.0
C      1  0.4652310000000  0.4858860000000  0.5529160000000 1.0
C      1  0.5521660000000  0.5157380000000  0.4089910000000 1.0
C      1  0.5375290000000  0.5184480000000  0.5253780000000 1.0
C      1  0.4981320000000  0.4749560000000  0.3977770000000 1.0
C      1  0.5100010000000  0.5160500000000  0.5937860000000 1.0
C      1  0.5483290000000  0.5632660000000  0.5303810000000 1.0
C      1  0.5402790000000  0.5056890000000  0.4735340000000 1.0
C      1  0.5121510000000  0.4801120000000  0.4365120000000 1.0
C      1  0.4862960000000  0.5808460000000  0.4909760000000 1.0
C      1  0.4975990000000  0.5579270000000  0.4028860000000 1.0
C      1  0.5863150000000  0.4731180000000  0.4785680000000 1.0
C      1  0.4771660000000  0.4567220000000  0.5963420000000 1.0
C      1  0.5757520000000  0.5294980000000  0.4212230000000 1.0
C      1  0.5193590000000  0.6026220000000  0.4631180000000 1.0
C      1  0.4648570000000  0.5462340000000  0.5805050000000 1.0
C      1  0.4357060000000  0.4326040000000  0.5708040000000 1.0
C      1  0.5100450000000  0.5811580000000  0.5747170000000 1.0
C      1  0.4764170000000  0.6085150000000  0.5357270000000 1.0
C      1  0.5303730000000  0.3728930000000  0.5235810000000 1.0
C      1  0.4320150000000  0.4566070000000  0.5544980000000 1.0
C      1  0.5271160000000  0.4687620000000  0.4118890000000 1.0
C      1  0.4858000000000  0.5386720000000  0.5970450000000 1.0
C      1  0.5796150000000  0.4993250000000  0.5330380000000 1.0
C      1  0.5081670000000  0.6105450000000  0.5722700000000 1.0
C      1  0.4293310000000  0.5557580000000  0.5344220000000 1.0
C      1  0.5358130000000  0.5485240000000  0.4867220000000 1.0
C      1  0.4818720000000  0.5437750000000  0.4476110000000 1.0
C      1  0.5040370000000  0.4623810000000  0.6107400000000 1.0
C      1  0.5038460000000  0.4922440000000  0.5135680000000 1.0
C      1  0.4431080000000  0.5979970000000  0.4642950000000 1.0
C      1  0.4422860000000  0.5797860000000  0.5332270000000 1.0
C      1  0.5080230000000  0.4902640000000  0.6106030000000 1.0
C      1  0.5177130000000  0.5307580000000  0.5445890000000 1.0
C      1  0.5522960000000  0.4492460000000  0.5969910000000 1.0
C      1  0.3846170000000  0.5191510000000  0.4930090000000 1.0
C      1  0.4352040000000  0.5591620000000  0.4427480000000 1.0
C      1  0.5255430000000  0.4407640000000  0.6071060000000 1.0
C      1  0.5243380000000  0.5752240000000  0.5275220000000 1.0
C      1  0.4556860000000  0.5318820000000  0.4855860000000 1.0
C      1  0.4553150000000  0.5134610000000  0.5532630000000 1.0
C      1  0.4651320000000  0.4996350000000  0.4387050000000 1.0
C      1  0.5945680000000  0.4918390000000  0.5568630000000 1.0
C      1  0.4566560000000  0.5782280000000  0.4302050000000 1.0
C      1  0.5909190000000  0.5167720000000  0.5140250000000 1.0
C      1  0.4053710000000  0.5525900000000  0.5198140000000 1.0
C      1  0.4875280000000  0.5024420000000  0.3947060000000 1.0
C      1  0.5334350000000  0.4504290000000  0.4714280000000 1.0
C      1  0.4779180000000  0.4549950000000  0.4044380000000 1.0
C      1  0.3874150000000  0.4923430000000  0.4832830000000 1.0
C      1  0.5880330000000  0.5129470000000  0.5777660000000 1.0
C      1  0.4858120000000  0.4287380000000  0.4152010000000 1.0
C      1  0.5615060000000  0.4327520000000  0.4291320000000 1.0
C      1  0.4794850000000  0.4299930000000  0.5861410000000 1.0
C      1  0.4393140000000  0.5954530000000  0.5099650000000 1.0
C      1  0.4391890000000  0.4983530000000  0.4569470000000 1.0
C      1  0.4092710000000  0.5218880000000  0.5611820000000 1.0
C      1  0.3986710000000  0.4737930000000  0.5054980000000 1.0
C      1  0.4859520000000  0.5329810000000  0.3930760000000 1.0
C      1  0.5746780000000  0.4580160000000  0.4347440000000 1.0
C      1  0.4051480000000  0.5433820000000  0.4900870000000 1.0
C      1  0.4620400000000  0.5033880000000  0.4086320000000 1.0
C      1  0.5807950000000  0.5414500000000  0.4728630000000 1.0
C      1  0.6101900000000  0.4678240000000  0.5489640000000 1.0
C      1  0.5449730000000  0.4377090000000  0.5265300000000 1.0
C      1  0.4630810000000  0.4413300000000  0.5160940000000 1.0
C      1  0.5689980000000  0.4327190000000  0.5497780000000 1.0
C      1  0.4330690000000  0.4222710000000  0.4617980000000 1.0
C      1  0.5162250000000  0.5723810000000  0.4211500000000 1.0
C      1  0.5903290000000  0.5605070000000  0.5503470000000 1.0
C      1  0.4006670000000  0.4949180000000  0.5563550000000 1.0
C      1  0.4652690000000  0.3912970000000  0.5004920000000 1.0
C      1  0.3940170000000  0.5349130000000  0.5399060000000 1.0
C      1  0.5675840000000  0.5550990000000  0.4324270000000 1.0
C      1  0.6044030000000  0.5014700000000  0.4551050000000 1.0
C      1  0.4634640000000  0.4789190000000  0.5824780000000 1.0
C      1  0.5670190000000  0.4407060000000  0.5746800000000 1.0
C      1  0.5620500000000  0.6029010000000  0.4976260000000 1.0
C      1  0.5516260000000  0.4922230000000  0.5366870000000 1.0
C      1  0.4322030000000  0.5099370000000  0.5136820000000 1.0
C      1  0.4656890000000  0.5851120000000  0.5494090000000 1.0
C      1  0.4186500000000  0.5653900000000  0.4677580000000 1.0
C      1  0.4640450000000  0.5787580000000  0.4742190000000 1.0
C      1  0.4852510000000  0.4419790000000  0.4698650000000 1.0
C      1  0.6095070000000  0.5472420000000  0.5329050000000 1.0
C      1  0.4266340000000  0.4756670000000  0.4224640000000 1.0
C      1  0.6259360000000  0.4983460000000  0.5062280000000 1.0
C      1  0.5918200000000  0.5061690000000  0.4301350000000 1.0
C      1  0.5527790000000  0.5322750000000  0.4703100000000 1.0
END
