TITL C-4164242-3624-34 12.1440381943728 125000 -11215.888130036 0 0 77 (C1) n - 1
REM
REM in /home/nfs/bkarasulu/CARBON/AIRSS/Generating-Clusters/ReaxFF-fromJPCA2015/Units_Real/with-SteepDescent/Only-C1/SD-CG/Try1-3A/FIRE-CG
REM
REM
REM
REM
REM
REM ./C.cell (11c1c37f851c82e70ff6c80c92926a4b)
REM
REM compiler GCC version 9.2.1 20190827 (Red Hat 9.2.1-1)
REM options -cpp -mtune=generic -march=x86-64 -g -O0 -fpre-include=/usr/include/finclude/math-vector-fortran.h
REM seed 961147672 1428448108 -1106911512 -894301557 1349460235 379751059 -516778676 1232874325 -785132742 1545846559 210290114 -18552875 817626993 -1301582953 2127581934 -430209252 -1752267627 -1666357685 526958871 1184432790 -985427894 433175756 -952635810 1218671421 -759475722 1270145877 780598021 -2001494744 2143680416 -431808855 -955775744 166593229 1588303617
REM
CELL 1.54180   50.00000   50.00000   50.00000   90.00000   90.00000   90.00000
LATT -1
SFAC C  
C      1  0.5036270000000  0.4893330000000  0.4220850000000 1.0
C      1  0.5044620000000  0.5694960000000  0.5287130000000 1.0
C      1  0.5192680000000  0.5115490000000  0.4336180000000 1.0
C      1  0.4404280000000  0.4768540000000  0.5413840000000 1.0
C      1  0.4752440000000  0.5703710000000  0.5224810000000 1.0
C      1  0.5604180000000  0.5034140000000  0.4410600000000 1.0
C      1  0.5151150000000  0.4953040000000  0.5056100000000 1.0
C      1  0.5008930000000  0.5733250000000  0.4819440000000 1.0
C      1  0.4872370000000  0.4944910000000  0.5130350000000 1.0
C      1  0.4907830000000  0.4217090000000  0.4890070000000 1.0
C      1  0.4536120000000  0.5517950000000  0.5323490000000 1.0
C      1  0.4560200000000  0.4651480000000  0.5782280000000 1.0
C      1  0.4513180000000  0.5306380000000  0.5536110000000 1.0
C      1  0.5164990000000  0.5422240000000  0.5283600000000 1.0
C      1  0.4918470000000  0.5082410000000  0.4687510000000 1.0
C      1  0.5046060000000  0.5125460000000  0.5632890000000 1.0
C      1  0.5341830000000  0.4747040000000  0.4999270000000 1.0
C      1  0.5191660000000  0.5779060000000  0.5047410000000 1.0
C      1  0.5076600000000  0.4445280000000  0.5530310000000 1.0
C      1  0.4822230000000  0.4378230000000  0.5406870000000 1.0
C      1  0.5351960000000  0.5498150000000  0.4550020000000 1.0
C      1  0.4344170000000  0.5057660000000  0.5488830000000 1.0
C      1  0.4368340000000  0.4671420000000  0.5142880000000 1.0
C      1  0.5169780000000  0.4958470000000  0.5849740000000 1.0
C      1  0.5320530000000  0.4463860000000  0.5087700000000 1.0
C      1  0.4743230000000  0.5710650000000  0.4938470000000 1.0
C      1  0.5084890000000  0.4716520000000  0.5669830000000 1.0
C      1  0.4774340000000  0.5196030000000  0.5228280000000 1.0
C      1  0.4576300000000  0.4488320000000  0.5031920000000 1.0
C      1  0.4339650000000  0.5321300000000  0.4761390000000 1.0
C      1  0.4797470000000  0.5241150000000  0.5521300000000 1.0
C      1  0.4613330000000  0.4668530000000  0.4313800000000 1.0
C      1  0.4262910000000  0.5141640000000  0.5242820000000 1.0
C      1  0.5332930000000  0.4426430000000  0.5396530000000 1.0
C      1  0.5139210000000  0.4904400000000  0.5454780000000 1.0
C      1  0.4377530000000  0.5217470000000  0.4485140000000 1.0
C      1  0.4236080000000  0.4980310000000  0.4541950000000 1.0
C      1  0.5296700000000  0.5464830000000  0.5518310000000 1.0
C      1  0.5586860000000  0.4831590000000  0.5655440000000 1.0
C      1  0.4597700000000  0.4564100000000  0.5546710000000 1.0
C      1  0.5741510000000  0.5413570000000  0.4900790000000 1.0
C      1  0.4409150000000  0.4555260000000  0.4483330000000 1.0
C      1  0.4663050000000  0.4410560000000  0.4455990000000 1.0
C      1  0.5670530000000  0.5540350000000  0.5154860000000 1.0
C      1  0.4659350000000  0.5194660000000  0.4378580000000 1.0
C      1  0.5073800000000  0.5548600000000  0.4602300000000 1.0
C      1  0.4900790000000  0.4305410000000  0.4593670000000 1.0
C      1  0.5133560000000  0.4402680000000  0.4439110000000 1.0
C      1  0.4219760000000  0.5128890000000  0.4965920000000 1.0
C      1  0.5057450000000  0.4455110000000  0.4941320000000 1.0
C      1  0.5563100000000  0.4763460000000  0.4519150000000 1.0
C      1  0.4743830000000  0.4279080000000  0.5144890000000 1.0
C      1  0.5545190000000  0.4594890000000  0.5492820000000 1.0
C      1  0.4822490000000  0.5353560000000  0.4580400000000 1.0
C      1  0.5495700000000  0.5310760000000  0.5637910000000 1.0
C      1  0.5551430000000  0.5589180000000  0.4751960000000 1.0
C      1  0.4220740000000  0.4724460000000  0.4652530000000 1.0
C      1  0.4598250000000  0.5475780000000  0.4806990000000 1.0
C      1  0.5444100000000  0.5047860000000  0.5786910000000 1.0
C      1  0.4755000000000  0.4931300000000  0.4285990000000 1.0
C      1  0.4780040000000  0.4898160000000  0.4864800000000 1.0
C      1  0.4813610000000  0.4614440000000  0.4900130000000 1.0
C      1  0.5475420000000  0.5717980000000  0.5007870000000 1.0
C      1  0.5238370000000  0.5220970000000  0.5076670000000 1.0
C      1  0.5458930000000  0.4871670000000  0.5377780000000 1.0
C      1  0.5377150000000  0.5194770000000  0.4831650000000 1.0
C      1  0.5649530000000  0.5129770000000  0.4936840000000 1.0
C      1  0.5436060000000  0.5277800000000  0.4352110000000 1.0
C      1  0.5655560000000  0.5329260000000  0.5370720000000 1.0
C      1  0.5385870000000  0.4559560000000  0.4397210000000 1.0
C      1  0.5589390000000  0.4726890000000  0.4831620000000 1.0
C      1  0.5631070000000  0.5083760000000  0.5224550000000 1.0
C      1  0.4579690000000  0.5350840000000  0.5085950000000 1.0
C      1  0.5150310000000  0.4621040000000  0.4240540000000 1.0
C      1  0.5614500000000  0.4452520000000  0.4918000000000 1.0
C      1  0.4230730000000  0.4828110000000  0.4934320000000 1.0
C      1  0.5204980000000  0.5060190000000  0.4628830000000 1.0
END
