TITL C-4164240-4114-644 0.357197479226874 125000 -4012.87845157876 0 0 29 (C1) n - 1
REM
REM in /home/nfs/bkarasulu/CARBON/AIRSS/Generating-Clusters/ReaxFF-fromJPCA2015/Units_Real/with-SteepDescent/Only-C1/SD-CG/Try1-3A/FIRE-CG
REM
REM
REM
REM
REM
REM ./C.cell (11c1c37f851c82e70ff6c80c92926a4b)
REM
REM compiler GCC version 9.2.1 20190827 (Red Hat 9.2.1-1)
REM options -cpp -mtune=generic -march=x86-64 -g -O0 -fpre-include=/usr/include/finclude/math-vector-fortran.h
REM seed 204962093 270742099 1517371102 550451340 626209446 -464487437 -292518639 -1309793904 -1335953578 -749969691 -165647056 1766923864 119039832 -1975967092 1100877963 -1302637680 -478734543 -375617497 726122326 -1230699188 -1688058014 1247314369 2008008309 -1141506713 693624535 69793800 1939195765 -1245410824 -446773888 1693401715 2100700892 -608025137 -1066035238
REM
CELL 1.54180   50.00000   50.00000   50.00000   90.00000   90.00000   90.00000
LATT -1
SFAC C  
C      1  0.4936800000000  0.5042340000000  0.4377360000000 1.0
C      1  0.4734830000000  0.5284630000000  0.5457100000000 1.0
C      1  0.4566050000000  0.5263280000000  0.4694400000000 1.0
C      1  0.4951230000000  0.5450700000000  0.4658200000000 1.0
C      1  0.5043250000000  0.4366370000000  0.4774860000000 1.0
C      1  0.5030400000000  0.5099350000000  0.5024610000000 1.0
C      1  0.5093690000000  0.5587000000000  0.4847960000000 1.0
C      1  0.4796070000000  0.5278340000000  0.4499330000000 1.0
C      1  0.5191300000000  0.5409840000000  0.5396910000000 1.0
C      1  0.4961050000000  0.4762780000000  0.4425210000000 1.0
C      1  0.4558080000000  0.5308120000000  0.5229420000000 1.0
C      1  0.4874270000000  0.4584290000000  0.4640650000000 1.0
C      1  0.4990080000000  0.4368070000000  0.5073430000000 1.0
C      1  0.4775950000000  0.5458970000000  0.5249410000000 1.0
C      1  0.5166160000000  0.4951240000000  0.5547610000000 1.0
C      1  0.4788130000000  0.4975960000000  0.4974380000000 1.0
C      1  0.4552780000000  0.5158680000000  0.4971980000000 1.0
C      1  0.5520020000000  0.5104340000000  0.5189110000000 1.0
C      1  0.5019130000000  0.5223430000000  0.5532670000000 1.0
C      1  0.5031800000000  0.5391480000000  0.5116430000000 1.0
C      1  0.5168550000000  0.4523700000000  0.5271000000000 1.0
C      1  0.4726910000000  0.4694920000000  0.4882470000000 1.0
C      1  0.5368910000000  0.4957440000000  0.4675780000000 1.0
C      1  0.5081580000000  0.4699900000000  0.5470820000000 1.0
C      1  0.5367440000000  0.4715920000000  0.5178570000000 1.0
C      1  0.4756730000000  0.4520470000000  0.5030030000000 1.0
C      1  0.5429920000000  0.4911550000000  0.5392870000000 1.0
C      1  0.5301390000000  0.4966770000000  0.4979310000000 1.0
C      1  0.5217500000000  0.4940120000000  0.4438090000000 1.0
END
