TITL C-4164246-3563-147 34.913835994477 125000 -21097.6364028563 0 0 143 (C1) n - 1
REM
REM in /home/nfs/bkarasulu/CARBON/AIRSS/Generating-Clusters/ReaxFF-fromJPCA2015/Units_Real/with-SteepDescent/Only-C1/SD-CG/Try1-3A/FIRE-CG
REM
REM
REM
REM
REM
REM ./C.cell (11c1c37f851c82e70ff6c80c92926a4b)
REM
REM compiler GCC version 9.2.1 20190827 (Red Hat 9.2.1-1)
REM options -cpp -mtune=generic -march=x86-64 -g -O0 -fpre-include=/usr/include/finclude/math-vector-fortran.h
REM seed -385991340 1200762326 -1790814454 -818383897 -940622432 228616992 1316887990 1967639983 1798037624 2132116097 -611668850 -943357021 903870120 1342545023 -994683275 1309669190 -2038014676 1042069951 -1129506708 -884173776 1580080504 -1151926526 339950713 964143938 -145706356 1515397901 -1136389508 2067880083 935311928 -1964748329 1810265458 221412474 -1855163686
REM
CELL 1.54180   50.00000   50.00000   50.00000   90.00000   90.00000   90.00000
LATT -1
SFAC C  
C      1  0.4817040000000  0.5251160000000  0.5433330000000 1.0
C      1  0.4287710000000  0.5692170000000  0.4901670000000 1.0
C      1  0.5165330000000  0.5131280000000  0.4020270000000 1.0
C      1  0.5861860000000  0.5281710000000  0.5179570000000 1.0
C      1  0.4315640000000  0.5468480000000  0.4531940000000 1.0
C      1  0.5477550000000  0.5784900000000  0.4747050000000 1.0
C      1  0.5311080000000  0.5419820000000  0.5920320000000 1.0
C      1  0.4269710000000  0.5279800000000  0.4300570000000 1.0
C      1  0.4377520000000  0.5583310000000  0.5466120000000 1.0
C      1  0.4678460000000  0.6085190000000  0.5225590000000 1.0
C      1  0.5426690000000  0.4658420000000  0.5405040000000 1.0
C      1  0.4952050000000  0.5168600000000  0.5197200000000 1.0
C      1  0.5736160000000  0.4258100000000  0.5112460000000 1.0
C      1  0.5761960000000  0.4816280000000  0.4357740000000 1.0
C      1  0.5490580000000  0.4995890000000  0.4787800000000 1.0
C      1  0.4545100000000  0.5270010000000  0.4220180000000 1.0
C      1  0.3908730000000  0.5134420000000  0.5127400000000 1.0
C      1  0.4398230000000  0.5298410000000  0.5561790000000 1.0
C      1  0.3934470000000  0.4859460000000  0.5067200000000 1.0
C      1  0.5195940000000  0.5915620000000  0.5275890000000 1.0
C      1  0.5735080000000  0.5203870000000  0.5689350000000 1.0
C      1  0.5059400000000  0.4978980000000  0.5631640000000 1.0
C      1  0.5892070000000  0.4952540000000  0.4591930000000 1.0
C      1  0.5168210000000  0.4721790000000  0.6094980000000 1.0
C      1  0.4627730000000  0.5210600000000  0.4885480000000 1.0
C      1  0.5326810000000  0.4397800000000  0.5764330000000 1.0
C      1  0.4915510000000  0.5500980000000  0.5562170000000 1.0
C      1  0.5735460000000  0.5024340000000  0.5109380000000 1.0
C      1  0.4220220000000  0.4992490000000  0.4312890000000 1.0
C      1  0.4771160000000  0.5230050000000  0.4402210000000 1.0
C      1  0.5838270000000  0.4616500000000  0.5488730000000 1.0
C      1  0.5895140000000  0.4472290000000  0.5242120000000 1.0
C      1  0.5437490000000  0.4710000000000  0.4696380000000 1.0
C      1  0.4763860000000  0.5965670000000  0.4745450000000 1.0
C      1  0.3984000000000  0.4932990000000  0.4471320000000 1.0
C      1  0.5211050000000  0.5103110000000  0.5206600000000 1.0
C      1  0.4463070000000  0.4573450000000  0.5566100000000 1.0
C      1  0.5506860000000  0.4938750000000  0.4279070000000 1.0
C      1  0.5110080000000  0.4462870000000  0.5056150000000 1.0
C      1  0.5137610000000  0.6043500000000  0.5025090000000 1.0
C      1  0.4805270000000  0.4039540000000  0.5260370000000 1.0
C      1  0.4474540000000  0.4888450000000  0.5195070000000 1.0
C      1  0.4641080000000  0.4924900000000  0.5837920000000 1.0
C      1  0.4865940000000  0.4694200000000  0.4156250000000 1.0
C      1  0.5485560000000  0.4174380000000  0.5225890000000 1.0
C      1  0.4509810000000  0.5824130000000  0.4702270000000 1.0
C      1  0.4762770000000  0.5617790000000  0.5777020000000 1.0
C      1  0.5247730000000  0.5942670000000  0.4758100000000 1.0
C      1  0.4346040000000  0.5693370000000  0.5191530000000 1.0
C      1  0.5727580000000  0.5489780000000  0.5015520000000 1.0
C      1  0.5702110000000  0.5623580000000  0.4742570000000 1.0
C      1  0.4820020000000  0.5632400000000  0.5116870000000 1.0
C      1  0.5137860000000  0.4570840000000  0.5371990000000 1.0
C      1  0.4641060000000  0.4367870000000  0.4352810000000 1.0
C      1  0.4722670000000  0.4646900000000  0.5701490000000 1.0
C      1  0.4512620000000  0.5709200000000  0.4440750000000 1.0
C      1  0.4739830000000  0.5653210000000  0.4252450000000 1.0
C      1  0.4858300000000  0.4744850000000  0.4703840000000 1.0
C      1  0.5434050000000  0.5774430000000  0.5333180000000 1.0
C      1  0.4307030000000  0.4777980000000  0.4919770000000 1.0
C      1  0.5343880000000  0.5246420000000  0.4793630000000 1.0
C      1  0.5376330000000  0.5475650000000  0.5300500000000 1.0
C      1  0.5258490000000  0.5134150000000  0.5489920000000 1.0
C      1  0.4408430000000  0.4335800000000  0.5432770000000 1.0
C      1  0.5500870000000  0.5509340000000  0.4261280000000 1.0
C      1  0.5701120000000  0.4524620000000  0.4380890000000 1.0
C      1  0.5061210000000  0.5300040000000  0.6001410000000 1.0
C      1  0.5036370000000  0.3945720000000  0.4811460000000 1.0
C      1  0.5001720000000  0.5078770000000  0.4445190000000 1.0
C      1  0.5141990000000  0.4482730000000  0.5960680000000 1.0
C      1  0.4569450000000  0.5404270000000  0.4697070000000 1.0
C      1  0.5004440000000  0.4787710000000  0.4447140000000 1.0
C      1  0.5550350000000  0.4857230000000  0.5831710000000 1.0
C      1  0.5443590000000  0.5430690000000  0.5017150000000 1.0
C      1  0.4702500000000  0.4931400000000  0.4858040000000 1.0
C      1  0.5094830000000  0.5253620000000  0.4653320000000 1.0
C      1  0.4320240000000  0.4786740000000  0.5434510000000 1.0
C      1  0.4790970000000  0.4414200000000  0.4089730000000 1.0
C      1  0.5043770000000  0.4066020000000  0.5416900000000 1.0
C      1  0.5799250000000  0.5199720000000  0.4520560000000 1.0
C      1  0.5865020000000  0.4871140000000  0.4894520000000 1.0
C      1  0.4426130000000  0.4310990000000  0.4885020000000 1.0
C      1  0.4801820000000  0.3991580000000  0.4971200000000 1.0
C      1  0.4776920000000  0.4182370000000  0.4537020000000 1.0
C      1  0.4735240000000  0.5421800000000  0.4059230000000 1.0
C      1  0.4856870000000  0.4565850000000  0.4933940000000 1.0
C      1  0.5294070000000  0.4609180000000  0.4151610000000 1.0
C      1  0.5696980000000  0.4517480000000  0.4667770000000 1.0
C      1  0.5352060000000  0.4897870000000  0.6021700000000 1.0
C      1  0.4363530000000  0.4251640000000  0.5163370000000 1.0
C      1  0.4369830000000  0.4558080000000  0.4732940000000 1.0
C      1  0.3972580000000  0.5080020000000  0.4646600000000 1.0
C      1  0.4817610000000  0.5360340000000  0.5039300000000 1.0
C      1  0.5004150000000  0.5898850000000  0.4589940000000 1.0
C      1  0.4574500000000  0.5186660000000  0.5817270000000 1.0
C      1  0.4120440000000  0.5500070000000  0.4779180000000 1.0
C      1  0.5964510000000  0.4859670000000  0.5390400000000 1.0
C      1  0.3966210000000  0.5270640000000  0.4869120000000 1.0
C      1  0.5245380000000  0.3923720000000  0.5006950000000 1.0
C      1  0.5445880000000  0.4401330000000  0.4286400000000 1.0
C      1  0.4056760000000  0.4685360000000  0.4962980000000 1.0
C      1  0.4695830000000  0.4915390000000  0.4087380000000 1.0
C      1  0.4473730000000  0.4828080000000  0.4274210000000 1.0
C      1  0.5097640000000  0.4315870000000  0.5592140000000 1.0
C      1  0.5281350000000  0.3968100000000  0.5292210000000 1.0
C      1  0.5472270000000  0.4172910000000  0.4717240000000 1.0
C      1  0.4856030000000  0.6105850000000  0.4991190000000 1.0
C      1  0.4715840000000  0.4768030000000  0.5089610000000 1.0
C      1  0.5328540000000  0.4196370000000  0.4968840000000 1.0
C      1  0.5309020000000  0.5386330000000  0.4072420000000 1.0
C      1  0.5245110000000  0.5638510000000  0.4208390000000 1.0
C      1  0.5558000000000  0.5576160000000  0.5509590000000 1.0
C      1  0.5316320000000  0.4213640000000  0.4477010000000 1.0
C      1  0.5532400000000  0.4864970000000  0.5239810000000 1.0
C      1  0.5346120000000  0.4912620000000  0.5035500000000 1.0
C      1  0.4999060000000  0.5748550000000  0.4341430000000 1.0
C      1  0.4629750000000  0.4133130000000  0.4784630000000 1.0
C      1  0.4553800000000  0.5763990000000  0.5617630000000 1.0
C      1  0.5999420000000  0.4727930000000  0.5120490000000 1.0
C      1  0.4920650000000  0.4424230000000  0.5799270000000 1.0
C      1  0.5726860000000  0.4273740000000  0.4817740000000 1.0
C      1  0.4551320000000  0.5163070000000  0.5360600000000 1.0
C      1  0.4950070000000  0.4754930000000  0.5509590000000 1.0
C      1  0.5338510000000  0.4886150000000  0.4051310000000 1.0
C      1  0.4845140000000  0.5416440000000  0.4608170000000 1.0
C      1  0.4779900000000  0.5377990000000  0.5939780000000 1.0
C      1  0.4601300000000  0.5820060000000  0.5112820000000 1.0
C      1  0.5295490000000  0.4747020000000  0.4424320000000 1.0
C      1  0.4873940000000  0.5154030000000  0.4016710000000 1.0
C      1  0.5694910000000  0.5449530000000  0.4482370000000 1.0
C      1  0.5506680000000  0.5045190000000  0.5616270000000 1.0
C      1  0.4480530000000  0.4594210000000  0.4450360000000 1.0
C      1  0.5566060000000  0.5443970000000  0.5770660000000 1.0
C      1  0.4137550000000  0.5002800000000  0.5498560000000 1.0
C      1  0.3945990000000  0.5211120000000  0.5428340000000 1.0
C      1  0.5055570000000  0.4099630000000  0.4559680000000 1.0
C      1  0.4539820000000  0.4114490000000  0.5335940000000 1.0
C      1  0.4945150000000  0.5748840000000  0.5377720000000 1.0
C      1  0.5089190000000  0.4993320000000  0.5939830000000 1.0
C      1  0.4724330000000  0.5948750000000  0.5474000000000 1.0
C      1  0.5901640000000  0.5152510000000  0.5443790000000 1.0
C      1  0.5545100000000  0.4591500000000  0.5671370000000 1.0
C      1  0.5265070000000  0.4664450000000  0.4924550000000 1.0
END
