TITL C-4164235-1454-187 0.205703270178487 125000 -3024.8901769194 0 0 22 (C1) n - 1
REM
REM in /home/nfs/bkarasulu/CARBON/AIRSS/Generating-Clusters/ReaxFF-fromJPCA2015/Units_Real/with-SteepDescent/Only-C1/SD-CG/Try1-3A/FIRE-CG
REM
REM
REM
REM
REM
REM ./C.cell (11c1c37f851c82e70ff6c80c92926a4b)
REM
REM compiler GCC version 9.2.1 20190827 (Red Hat 9.2.1-1)
REM options -cpp -mtune=generic -march=x86-64 -g -O0 -fpre-include=/usr/include/finclude/math-vector-fortran.h
REM seed 1552898961 -359972177 106283216 1542305547 964100875 -1379270941 2116229989 727463368 -1023683454 -74292002 -471191271 -509888569 2064365947 1096907404 494653680 410852122 -1022246212 939023453 -1952053075 -870748419 -729809960 -1173066830 1054551934 -526833866 1959179575 1600440110 -737859002 -1141387996 1850147189 -567150141 -1000795515 -1833924419 -1426990488
REM
CELL 1.54180   50.00000   50.00000   50.00000   90.00000   90.00000   90.00000
LATT -1
SFAC C  
C      1  0.5148000000000  0.4704130000000  0.5164660000000 1.0
C      1  0.4840730000000  0.5334120000000  0.4788660000000 1.0
C      1  0.5560920000000  0.4813860000000  0.4877090000000 1.0
C      1  0.5526410000000  0.5061880000000  0.5013670000000 1.0
C      1  0.5091740000000  0.5342260000000  0.4914070000000 1.0
C      1  0.4717090000000  0.5253480000000  0.5206640000000 1.0
C      1  0.4549420000000  0.4843950000000  0.4938900000000 1.0
C      1  0.4665800000000  0.4808450000000  0.4671180000000 1.0
C      1  0.5123960000000  0.5402990000000  0.5597120000000 1.0
C      1  0.4584680000000  0.5247780000000  0.4721950000000 1.0
C      1  0.4989770000000  0.5365980000000  0.5200860000000 1.0
C      1  0.4610410000000  0.4641590000000  0.5148100000000 1.0
C      1  0.5322310000000  0.4783740000000  0.5377470000000 1.0
C      1  0.4566790000000  0.5024580000000  0.4502210000000 1.0
C      1  0.5273680000000  0.5115190000000  0.4865250000000 1.0
C      1  0.4890470000000  0.4579290000000  0.5233540000000 1.0
C      1  0.4980030000000  0.4731780000000  0.4668360000000 1.0
C      1  0.5138130000000  0.4633360000000  0.4505360000000 1.0
C      1  0.5208320000000  0.4816300000000  0.4875250000000 1.0
C      1  0.5221210000000  0.5293860000000  0.5396850000000 1.0
C      1  0.5454390000000  0.5065920000000  0.5334030000000 1.0
C      1  0.4535750000000  0.5135500000000  0.4998810000000 1.0
END
