TITL C-4164232-771-520 27.2533155936416 125000 -29293.2419808201 0 0 196 (C1) n - 1
REM
REM in /home/nfs/bkarasulu/CARBON/AIRSS/Generating-Clusters/ReaxFF-fromJPCA2015/Units_Real/with-SteepDescent/Only-C1/SD-CG/Try1-3A/FIRE-CG
REM
REM
REM
REM
REM
REM ./C.cell (11c1c37f851c82e70ff6c80c92926a4b)
REM
REM compiler GCC version 9.2.1 20190827 (Red Hat 9.2.1-1)
REM options -cpp -mtune=generic -march=x86-64 -g -O0 -fpre-include=/usr/include/finclude/math-vector-fortran.h
REM seed -1354098752 1794160369 -291923969 1454351585 -1173072426 -959204505 -729960258 -1650433287 2017886060 895897341 -673597395 -847014529 2054903912 -515380315 -1916126052 1229214037 69097909 -468441313 1939510528 -1117711830 -2033833719 -1610583918 -865453171 -1190999134 -155678238 -1279952149 -2110148206 -1873717138 -476545336 -2053455372 -2068097816 433205215 1723681372
REM
CELL 1.54180   50.00000   50.00000   50.00000   90.00000   90.00000   90.00000
LATT -1
SFAC C  
C      1  0.6014500000000  0.4852500000000  0.5352520000000 1.0
C      1  0.4473650000000  0.5958630000000  0.5012250000000 1.0
C      1  0.4577020000000  0.5050040000000  0.6068510000000 1.0
C      1  0.4044430000000  0.4502880000000  0.4656250000000 1.0
C      1  0.5737620000000  0.5302890000000  0.4900820000000 1.0
C      1  0.4699480000000  0.4817700000000  0.4614810000000 1.0
C      1  0.4565950000000  0.5565760000000  0.5133690000000 1.0
C      1  0.5432920000000  0.4146400000000  0.4387920000000 1.0
C      1  0.5424180000000  0.5989820000000  0.4576220000000 1.0
C      1  0.5615040000000  0.4109170000000  0.4875140000000 1.0
C      1  0.5926310000000  0.4368260000000  0.5463480000000 1.0
C      1  0.5064470000000  0.4403610000000  0.3904000000000 1.0
C      1  0.5336120000000  0.5563990000000  0.4929590000000 1.0
C      1  0.5119300000000  0.5337330000000  0.3932380000000 1.0
C      1  0.4579860000000  0.5512460000000  0.4612720000000 1.0
C      1  0.4845810000000  0.5061030000000  0.6187380000000 1.0
C      1  0.3810700000000  0.4818960000000  0.5333350000000 1.0
C      1  0.4985500000000  0.4255110000000  0.4444170000000 1.0
C      1  0.5320090000000  0.5893200000000  0.5694210000000 1.0
C      1  0.5676370000000  0.5934690000000  0.4744420000000 1.0
C      1  0.5833700000000  0.5550610000000  0.5365710000000 1.0
C      1  0.4334400000000  0.4687590000000  0.4269550000000 1.0
C      1  0.5169920000000  0.5028830000000  0.5120210000000 1.0
C      1  0.4471300000000  0.5235140000000  0.4105860000000 1.0
C      1  0.5012740000000  0.5320740000000  0.5541460000000 1.0
C      1  0.4421310000000  0.4711930000000  0.5098550000000 1.0
C      1  0.4350360000000  0.5577450000000  0.5806290000000 1.0
C      1  0.4537470000000  0.5259910000000  0.4445810000000 1.0
C      1  0.3995900000000  0.5092850000000  0.4897540000000 1.0
C      1  0.3869890000000  0.4884110000000  0.4760610000000 1.0
C      1  0.4400970000000  0.5448960000000  0.5357580000000 1.0
C      1  0.5117640000000  0.4229730000000  0.4692660000000 1.0
C      1  0.4057880000000  0.4630270000000  0.4401020000000 1.0
C      1  0.4592560000000  0.4229920000000  0.5649040000000 1.0
C      1  0.4255750000000  0.5237810000000  0.4571350000000 1.0
C      1  0.5554070000000  0.4831110000000  0.6137950000000 1.0
C      1  0.5425830000000  0.4512480000000  0.4208390000000 1.0
C      1  0.4998530000000  0.4346960000000  0.5936990000000 1.0
C      1  0.5033170000000  0.4029970000000  0.5540030000000 1.0
C      1  0.4502830000000  0.4866320000000  0.5864390000000 1.0
C      1  0.4613380000000  0.5922560000000  0.5503520000000 1.0
C      1  0.5417940000000  0.4262360000000  0.4693390000000 1.0
C      1  0.5425240000000  0.5305280000000  0.4502690000000 1.0
C      1  0.4640700000000  0.6032330000000  0.5221570000000 1.0
C      1  0.5222490000000  0.5064620000000  0.5909290000000 1.0
C      1  0.5461390000000  0.5266230000000  0.5430680000000 1.0
C      1  0.5352510000000  0.5045750000000  0.4913810000000 1.0
C      1  0.5825000000000  0.5317230000000  0.4308860000000 1.0
C      1  0.5033560000000  0.5844690000000  0.4606800000000 1.0
C      1  0.5495640000000  0.5024770000000  0.4437140000000 1.0
C      1  0.5157050000000  0.4669760000000  0.4362890000000 1.0
C      1  0.4554430000000  0.4030850000000  0.4413740000000 1.0
C      1  0.4327460000000  0.5865140000000  0.4782850000000 1.0
C      1  0.5630240000000  0.5235580000000  0.4103130000000 1.0
C      1  0.5355540000000  0.5712630000000  0.5235690000000 1.0
C      1  0.4584960000000  0.5413340000000  0.4886300000000 1.0
C      1  0.5818560000000  0.4468050000000  0.4519550000000 1.0
C      1  0.5152490000000  0.4745430000000  0.4632990000000 1.0
C      1  0.4079910000000  0.5510420000000  0.4571030000000 1.0
C      1  0.4308080000000  0.4981450000000  0.4160670000000 1.0
C      1  0.5830160000000  0.4238220000000  0.5015090000000 1.0
C      1  0.4866020000000  0.4179780000000  0.5737850000000 1.0
C      1  0.4796210000000  0.4383180000000  0.5269470000000 1.0
C      1  0.5031330000000  0.4918320000000  0.5736920000000 1.0
C      1  0.3925810000000  0.4874390000000  0.4471860000000 1.0
C      1  0.4890130000000  0.4865060000000  0.4017940000000 1.0
C      1  0.4941940000000  0.4853820000000  0.5089240000000 1.0
C      1  0.6001340000000  0.4777010000000  0.4309610000000 1.0
C      1  0.3850950000000  0.5258920000000  0.5063110000000 1.0
C      1  0.4936660000000  0.5735040000000  0.5887600000000 1.0
C      1  0.5549100000000  0.5061880000000  0.5594570000000 1.0
C      1  0.4552070000000  0.3938150000000  0.4739230000000 1.0
C      1  0.6056140000000  0.4883830000000  0.4553930000000 1.0
C      1  0.4755120000000  0.3757650000000  0.4830490000000 1.0
C      1  0.4094520000000  0.5685170000000  0.4799570000000 1.0
C      1  0.5123330000000  0.6123230000000  0.4626090000000 1.0
C      1  0.5803110000000  0.4899640000000  0.5178880000000 1.0
C      1  0.5796840000000  0.5050840000000  0.5756300000000 1.0
C      1  0.5287910000000  0.5760420000000  0.4715880000000 1.0
C      1  0.4272150000000  0.5141190000000  0.4859020000000 1.0
C      1  0.4355740000000  0.4233710000000  0.4427750000000 1.0
C      1  0.4147170000000  0.5476550000000  0.5229550000000 1.0
C      1  0.5697980000000  0.5925630000000  0.5036450000000 1.0
C      1  0.6121140000000  0.5331490000000  0.4726430000000 1.0
C      1  0.3907240000000  0.4623340000000  0.4878460000000 1.0
C      1  0.4555820000000  0.5133180000000  0.5348810000000 1.0
C      1  0.4094190000000  0.4818860000000  0.5689200000000 1.0
C      1  0.3926540000000  0.4993050000000  0.5555230000000 1.0
C      1  0.5666810000000  0.5530330000000  0.4422930000000 1.0
C      1  0.4426710000000  0.4422920000000  0.5777050000000 1.0
C      1  0.5058100000000  0.5521220000000  0.4958220000000 1.0
C      1  0.4358170000000  0.5531760000000  0.4126390000000 1.0
C      1  0.4815960000000  0.5670770000000  0.4184490000000 1.0
C      1  0.3786700000000  0.5098560000000  0.5301470000000 1.0
C      1  0.4803150000000  0.5628530000000  0.5262800000000 1.0
C      1  0.4925370000000  0.4509110000000  0.4316570000000 1.0
C      1  0.5408920000000  0.5633630000000  0.5736510000000 1.0
C      1  0.4821270000000  0.5448420000000  0.5426230000000 1.0
C      1  0.5105810000000  0.6030060000000  0.5668010000000 1.0
C      1  0.4738930000000  0.5071890000000  0.4515570000000 1.0
C      1  0.4560750000000  0.4291960000000  0.5371620000000 1.0
C      1  0.5169970000000  0.4103430000000  0.4265440000000 1.0
C      1  0.5045860000000  0.5727130000000  0.5156690000000 1.0
C      1  0.5883630000000  0.5094140000000  0.4996590000000 1.0
C      1  0.5216540000000  0.6164400000000  0.5133530000000 1.0
C      1  0.5444660000000  0.5984490000000  0.5184040000000 1.0
C      1  0.5717730000000  0.4905250000000  0.5994260000000 1.0
C      1  0.4353570000000  0.4003920000000  0.4940470000000 1.0
C      1  0.4338140000000  0.4267310000000  0.5177320000000 1.0
C      1  0.5915520000000  0.5534890000000  0.4846320000000 1.0
C      1  0.5467470000000  0.5296400000000  0.4841560000000 1.0
C      1  0.4868340000000  0.4231390000000  0.5042050000000 1.0
C      1  0.6254410000000  0.5312190000000  0.5228330000000 1.0
C      1  0.5068300000000  0.6221100000000  0.4888300000000 1.0
C      1  0.5734960000000  0.4372390000000  0.5664760000000 1.0
C      1  0.4226620000000  0.4548460000000  0.5571560000000 1.0
C      1  0.4472770000000  0.4678550000000  0.4531180000000 1.0
C      1  0.5434560000000  0.5853160000000  0.4296560000000 1.0
C      1  0.5138050000000  0.5543280000000  0.5777330000000 1.0
C      1  0.6011850000000  0.5174360000000  0.4512340000000 1.0
C      1  0.4396480000000  0.4467880000000  0.4970750000000 1.0
C      1  0.4860130000000  0.4568890000000  0.4038560000000 1.0
C      1  0.6036990000000  0.5333740000000  0.5430920000000 1.0
C      1  0.4978750000000  0.4165970000000  0.4047350000000 1.0
C      1  0.5793380000000  0.4161270000000  0.5306480000000 1.0
C      1  0.4815190000000  0.5567190000000  0.6083760000000 1.0
C      1  0.4706450000000  0.5276990000000  0.3921920000000 1.0
C      1  0.5217850000000  0.3878120000000  0.5034610000000 1.0
C      1  0.5212720000000  0.5354830000000  0.5983450000000 1.0
C      1  0.6169070000000  0.5182860000000  0.4969830000000 1.0
C      1  0.5970140000000  0.4613540000000  0.4701780000000 1.0
C      1  0.5860240000000  0.5700210000000  0.5125740000000 1.0
C      1  0.4706920000000  0.5059490000000  0.5104630000000 1.0
C      1  0.5281100000000  0.4359090000000  0.5898080000000 1.0
C      1  0.5270250000000  0.4878940000000  0.6136310000000 1.0
C      1  0.4941020000000  0.6045790000000  0.5116740000000 1.0
C      1  0.5403110000000  0.4846840000000  0.4701030000000 1.0
C      1  0.5206750000000  0.5207090000000  0.5332340000000 1.0
C      1  0.5788360000000  0.5704120000000  0.4624980000000 1.0
C      1  0.5130860000000  0.5376810000000  0.4461800000000 1.0
C      1  0.5397110000000  0.5401690000000  0.4011770000000 1.0
C      1  0.5492810000000  0.3905770000000  0.5052520000000 1.0
C      1  0.4113090000000  0.4421370000000  0.5321190000000 1.0
C      1  0.5530560000000  0.4035510000000  0.5330470000000 1.0
C      1  0.4458900000000  0.4681800000000  0.5388880000000 1.0
C      1  0.4874550000000  0.5307750000000  0.4883970000000 1.0
C      1  0.4535360000000  0.5735670000000  0.4250710000000 1.0
C      1  0.5351810000000  0.4833430000000  0.3960730000000 1.0
C      1  0.4922470000000  0.4708900000000  0.4803570000000 1.0
C      1  0.5011600000000  0.5637700000000  0.4394940000000 1.0
C      1  0.5448880000000  0.4547300000000  0.5093880000000 1.0
C      1  0.4958870000000  0.5206190000000  0.4616830000000 1.0
C      1  0.5967690000000  0.4495290000000  0.4987010000000 1.0
C      1  0.5150120000000  0.4736570000000  0.5541930000000 1.0
C      1  0.5579230000000  0.4943260000000  0.4141820000000 1.0
C      1  0.4466080000000  0.4968740000000  0.4987390000000 1.0
C      1  0.4994690000000  0.4603990000000  0.5314490000000 1.0
C      1  0.4841860000000  0.5945950000000  0.5704900000000 1.0
C      1  0.4932710000000  0.3904660000000  0.5061270000000 1.0
C      1  0.4572590000000  0.4590000000000  0.5953780000000 1.0
C      1  0.3936880000000  0.4593060000000  0.5177030000000 1.0
C      1  0.4583710000000  0.5264610000000  0.5877800000000 1.0
C      1  0.5287790000000  0.4175880000000  0.5407160000000 1.0
C      1  0.4938450000000  0.5106140000000  0.3856190000000 1.0
C      1  0.4901130000000  0.3837510000000  0.5385190000000 1.0
C      1  0.4337820000000  0.4450970000000  0.4685550000000 1.0
C      1  0.6029280000000  0.4574980000000  0.5264910000000 1.0
C      1  0.4969700000000  0.5328360000000  0.6147150000000 1.0
C      1  0.4165440000000  0.5577590000000  0.4315450000000 1.0
C      1  0.4499720000000  0.5775580000000  0.4546970000000 1.0
C      1  0.4117940000000  0.5063370000000  0.4354690000000 1.0
C      1  0.5523080000000  0.4368040000000  0.5812210000000 1.0
C      1  0.6010630000000  0.5062040000000  0.5556280000000 1.0
C      1  0.4981960000000  0.4801840000000  0.6180750000000 1.0
C      1  0.4943330000000  0.4395570000000  0.4842810000000 1.0
C      1  0.4680940000000  0.4168410000000  0.4180910000000 1.0
C      1  0.4543110000000  0.5516640000000  0.6014680000000 1.0
C      1  0.4437330000000  0.5705600000000  0.5563640000000 1.0
C      1  0.5140580000000  0.4896340000000  0.4153280000000 1.0
C      1  0.5331280000000  0.4539970000000  0.3935160000000 1.0
C      1  0.5639720000000  0.4342240000000  0.4321480000000 1.0
C      1  0.5459890000000  0.4552010000000  0.4806040000000 1.0
C      1  0.5428410000000  0.5663320000000  0.4120210000000 1.0
C      1  0.4882160000000  0.5494820000000  0.3973420000000 1.0
C      1  0.4865380000000  0.5152400000000  0.5700500000000 1.0
C      1  0.4845840000000  0.4573980000000  0.6053740000000 1.0
C      1  0.4534610000000  0.4917010000000  0.5527740000000 1.0
C      1  0.3969750000000  0.5546110000000  0.5042210000000 1.0
C      1  0.5870040000000  0.4787150000000  0.4068090000000 1.0
C      1  0.5558850000000  0.4766750000000  0.5245250000000 1.0
C      1  0.4460460000000  0.4361780000000  0.4193740000000 1.0
C      1  0.4225140000000  0.5016310000000  0.5854750000000 1.0
C      1  0.5532360000000  0.5539910000000  0.5456890000000 1.0
C      1  0.5426510000000  0.4811190000000  0.5494800000000 1.0
C      1  0.4302700000000  0.5288810000000  0.5769710000000 1.0
C      1  0.5242900000000  0.4420000000000  0.5268040000000 1.0
END
