TITL C-4164243-3780-17 38.2364398658229 125000 -22498.1857685244 0 0 149 (C1) n - 1
REM
REM in /home/nfs/bkarasulu/CARBON/AIRSS/Generating-Clusters/ReaxFF-fromJPCA2015/Units_Real/with-SteepDescent/Only-C1/SD-CG/Try1-3A/FIRE-CG
REM
REM
REM
REM
REM
REM ./C.cell (11c1c37f851c82e70ff6c80c92926a4b)
REM
REM compiler GCC version 9.2.1 20190827 (Red Hat 9.2.1-1)
REM options -cpp -mtune=generic -march=x86-64 -g -O0 -fpre-include=/usr/include/finclude/math-vector-fortran.h
REM seed 1769147386 649374588 -882266019 448499751 1089780643 1749032154 2102079200 -1176010288 -1518572699 1718126833 551649341 973518106 -773124088 1979070086 1392014335 -2119044339 1462243892 -895780790 -869778809 637540905 -1975207074 -10063223 5258500 -1041341958 493087694 -1297118099 -89001606 -1093501819 438561083 573172025 -57329790 -1431126124 -403385984
REM
CELL 1.54180   50.00000   50.00000   50.00000   90.00000   90.00000   90.00000
LATT -1
SFAC C  
C      1  0.4552200000000  0.4626670000000  0.5906240000000 1.0
C      1  0.5563230000000  0.5698880000000  0.4965870000000 1.0
C      1  0.4342400000000  0.5632380000000  0.4490240000000 1.0
C      1  0.4154410000000  0.5086190000000  0.4475590000000 1.0
C      1  0.5765670000000  0.4371050000000  0.4512740000000 1.0
C      1  0.5268540000000  0.4435490000000  0.5909790000000 1.0
C      1  0.5053060000000  0.4119130000000  0.4733690000000 1.0
C      1  0.4143530000000  0.4866640000000  0.5630990000000 1.0
C      1  0.5200820000000  0.4207720000000  0.5736740000000 1.0
C      1  0.4607980000000  0.5060910000000  0.5217530000000 1.0
C      1  0.5369150000000  0.5739380000000  0.4545730000000 1.0
C      1  0.4837130000000  0.3985040000000  0.4398650000000 1.0
C      1  0.5477120000000  0.4930910000000  0.4956670000000 1.0
C      1  0.4040400000000  0.5063080000000  0.4945860000000 1.0
C      1  0.5830350000000  0.4608800000000  0.4332200000000 1.0
C      1  0.5935400000000  0.4447740000000  0.4968850000000 1.0
C      1  0.5890370000000  0.4999190000000  0.5484020000000 1.0
C      1  0.4063770000000  0.4876310000000  0.5351910000000 1.0
C      1  0.4098570000000  0.4638930000000  0.5159140000000 1.0
C      1  0.5918480000000  0.4728120000000  0.5103760000000 1.0
C      1  0.4638810000000  0.6143460000000  0.4930570000000 1.0
C      1  0.5035210000000  0.5137450000000  0.4591280000000 1.0
C      1  0.5316400000000  0.4571230000000  0.4130660000000 1.0
C      1  0.5571940000000  0.5520020000000  0.4539860000000 1.0
C      1  0.5633280000000  0.4792550000000  0.5149050000000 1.0
C      1  0.6018420000000  0.4710790000000  0.4534320000000 1.0
C      1  0.5265060000000  0.6090270000000  0.5273830000000 1.0
C      1  0.4917320000000  0.5478750000000  0.5177790000000 1.0
C      1  0.5139150000000  0.4770240000000  0.5561290000000 1.0
C      1  0.4896370000000  0.4331840000000  0.4114000000000 1.0
C      1  0.4760980000000  0.4216300000000  0.5113730000000 1.0
C      1  0.4739970000000  0.4597390000000  0.4735220000000 1.0
C      1  0.5874630000000  0.5438380000000  0.5246350000000 1.0
C      1  0.5023100000000  0.4208070000000  0.5500540000000 1.0
C      1  0.4537420000000  0.4923900000000  0.5896300000000 1.0
C      1  0.4072800000000  0.5246150000000  0.4710880000000 1.0
C      1  0.4757760000000  0.4681010000000  0.4448700000000 1.0
C      1  0.5022300000000  0.4157020000000  0.5206970000000 1.0
C      1  0.5450440000000  0.4815560000000  0.4070590000000 1.0
C      1  0.4892290000000  0.5379430000000  0.5448720000000 1.0
C      1  0.5307760000000  0.4201790000000  0.5497140000000 1.0
C      1  0.4477370000000  0.4202720000000  0.4722210000000 1.0
C      1  0.5936640000000  0.5229090000000  0.5069290000000 1.0
C      1  0.5238340000000  0.4808540000000  0.4496900000000 1.0
C      1  0.5927710000000  0.4605210000000  0.5385770000000 1.0
C      1  0.4539170000000  0.4923970000000  0.4100940000000 1.0
C      1  0.4211460000000  0.5601940000000  0.5231660000000 1.0
C      1  0.4073850000000  0.5131770000000  0.5230320000000 1.0
C      1  0.4459070000000  0.4759230000000  0.4816540000000 1.0
C      1  0.5071820000000  0.5813910000000  0.5673590000000 1.0
C      1  0.4352190000000  0.5070130000000  0.5725540000000 1.0
C      1  0.4315730000000  0.4524460000000  0.4431940000000 1.0
C      1  0.5319370000000  0.5289580000000  0.5160790000000 1.0
C      1  0.5090420000000  0.5386800000000  0.5946360000000 1.0
C      1  0.5059080000000  0.5495930000000  0.4234780000000 1.0
C      1  0.4206460000000  0.5359770000000  0.5391340000000 1.0
C      1  0.5270090000000  0.5046950000000  0.4053790000000 1.0
C      1  0.4931300000000  0.5025160000000  0.4831850000000 1.0
C      1  0.4810580000000  0.5355990000000  0.5893520000000 1.0
C      1  0.5820200000000  0.5259470000000  0.5473590000000 1.0
C      1  0.5315800000000  0.5290670000000  0.4225790000000 1.0
C      1  0.4202790000000  0.4581860000000  0.4718490000000 1.0
C      1  0.5520910000000  0.5267540000000  0.5620290000000 1.0
C      1  0.4457600000000  0.4273350000000  0.4437060000000 1.0
C      1  0.4942970000000  0.4657450000000  0.5162090000000 1.0
C      1  0.4563320000000  0.4364320000000  0.5298970000000 1.0
C      1  0.5111190000000  0.5726570000000  0.4394030000000 1.0
C      1  0.4818120000000  0.5102960000000  0.5410010000000 1.0
C      1  0.5237470000000  0.5125120000000  0.5985320000000 1.0
C      1  0.5748710000000  0.4254670000000  0.5074050000000 1.0
C      1  0.4682480000000  0.5487410000000  0.5652390000000 1.0
C      1  0.5863300000000  0.4774460000000  0.5614190000000 1.0
C      1  0.4645150000000  0.5660500000000  0.4406830000000 1.0
C      1  0.4148640000000  0.4579280000000  0.5702860000000 1.0
C      1  0.5223930000000  0.5615050000000  0.5822570000000 1.0
C      1  0.5511400000000  0.5218530000000  0.4977570000000 1.0
C      1  0.4400190000000  0.5325650000000  0.5603190000000 1.0
C      1  0.5219860000000  0.4123240000000  0.4986240000000 1.0
C      1  0.4777140000000  0.5464820000000  0.4247910000000 1.0
C      1  0.5415350000000  0.4783960000000  0.4716140000000 1.0
C      1  0.4986940000000  0.3881410000000  0.4570170000000 1.0
C      1  0.4276430000000  0.4405290000000  0.5159340000000 1.0
C      1  0.4643440000000  0.4336480000000  0.5614880000000 1.0
C      1  0.4825160000000  0.4573460000000  0.3996630000000 1.0
C      1  0.5472020000000  0.4605010000000  0.5879970000000 1.0
C      1  0.5243500000000  0.4573390000000  0.4655190000000 1.0
C      1  0.4541360000000  0.5248810000000  0.5015100000000 1.0
C      1  0.4989720000000  0.4820500000000  0.4354940000000 1.0
C      1  0.4777650000000  0.5072340000000  0.5968390000000 1.0
C      1  0.4943780000000  0.4746260000000  0.4887670000000 1.0
C      1  0.4998590000000  0.4954970000000  0.4091910000000 1.0
C      1  0.5121830000000  0.5379510000000  0.4720850000000 1.0
C      1  0.4536330000000  0.6074990000000  0.5226670000000 1.0
C      1  0.5544610000000  0.5743600000000  0.5479530000000 1.0
C      1  0.5992950000000  0.4451200000000  0.4684420000000 1.0
C      1  0.4548370000000  0.5716600000000  0.5039640000000 1.0
C      1  0.5062490000000  0.4671290000000  0.5830690000000 1.0
C      1  0.5677460000000  0.5665970000000  0.5229720000000 1.0
C      1  0.5270670000000  0.5220020000000  0.5423620000000 1.0
C      1  0.4571370000000  0.5148570000000  0.4535210000000 1.0
C      1  0.4672690000000  0.4635430000000  0.5253790000000 1.0
C      1  0.5123520000000  0.5389650000000  0.5008570000000 1.0
C      1  0.5357580000000  0.5853810000000  0.4809100000000 1.0
C      1  0.5765690000000  0.5079710000000  0.4404230000000 1.0
C      1  0.5498650000000  0.4185070000000  0.4916790000000 1.0
C      1  0.5493280000000  0.5076170000000  0.5853090000000 1.0
C      1  0.5607790000000  0.5445810000000  0.4823640000000 1.0
C      1  0.4754830000000  0.5989390000000  0.5394340000000 1.0
C      1  0.4211570000000  0.5499900000000  0.4717610000000 1.0
C      1  0.4199740000000  0.5464990000000  0.4314300000000 1.0
C      1  0.4750450000000  0.4264630000000  0.4825570000000 1.0
C      1  0.4699850000000  0.5195750000000  0.4791170000000 1.0
C      1  0.4828380000000  0.5724960000000  0.5076880000000 1.0
C      1  0.4684450000000  0.4175680000000  0.4263030000000 1.0
C      1  0.4852520000000  0.5836150000000  0.4505120000000 1.0
C      1  0.4384100000000  0.4961160000000  0.4612490000000 1.0
C      1  0.5111150000000  0.6000930000000  0.4885470000000 1.0
C      1  0.4864430000000  0.6018740000000  0.4736680000000 1.0
C      1  0.4766480000000  0.4839310000000  0.3931800000000 1.0
C      1  0.5480170000000  0.5561240000000  0.5690920000000 1.0
C      1  0.4506650000000  0.4701760000000  0.4297810000000 1.0
C      1  0.4981750000000  0.5969080000000  0.5163720000000 1.0
C      1  0.4388210000000  0.4412450000000  0.5764990000000 1.0
C      1  0.4047580000000  0.4771440000000  0.4908230000000 1.0
C      1  0.5423510000000  0.4616700000000  0.5212590000000 1.0
C      1  0.4795490000000  0.5792820000000  0.5602700000000 1.0
C      1  0.5166660000000  0.4631050000000  0.5324800000000 1.0
C      1  0.5076310000000  0.5023640000000  0.5481280000000 1.0
C      1  0.5947270000000  0.4979570000000  0.4626610000000 1.0
C      1  0.4378920000000  0.5488310000000  0.4994760000000 1.0
C      1  0.5978020000000  0.5008750000000  0.4917530000000 1.0
C      1  0.4671150000000  0.6370000000000  0.4825990000000 1.0
C      1  0.4265270000000  0.5206990000000  0.4224670000000 1.0
C      1  0.5530080000000  0.4248570000000  0.4632160000000 1.0
C      1  0.4582110000000  0.5193280000000  0.4242930000000 1.0
C      1  0.5774230000000  0.4352880000000  0.5349180000000 1.0
C      1  0.5487040000000  0.4402200000000  0.5399690000000 1.0
C      1  0.4387770000000  0.5827650000000  0.5255950000000 1.0
C      1  0.4791480000000  0.4507440000000  0.5795790000000 1.0
C      1  0.5253850000000  0.4305660000000  0.4525610000000 1.0
C      1  0.5631680000000  0.4818540000000  0.5836000000000 1.0
C      1  0.5308030000000  0.5930440000000  0.5507920000000 1.0
C      1  0.5273600000000  0.5243850000000  0.4521530000000 1.0
C      1  0.4267990000000  0.4328210000000  0.4885480000000 1.0
C      1  0.5619240000000  0.5323330000000  0.4333000000000 1.0
C      1  0.5186730000000  0.4354800000000  0.4219600000000 1.0
C      1  0.5695690000000  0.4849380000000  0.4239980000000 1.0
C      1  0.5029190000000  0.4929510000000  0.5996480000000 1.0
C      1  0.4521400000000  0.4821360000000  0.5103180000000 1.0
END
