TITL C-4164235-1454-569 8.42454789220674 125000 -16265.6086716273 0 0 109 (C1) n - 1
REM
REM in /home/nfs/bkarasulu/CARBON/AIRSS/Generating-Clusters/ReaxFF-fromJPCA2015/Units_Real/with-SteepDescent/Only-C1/SD-CG/Try1-3A/FIRE-CG
REM
REM
REM
REM
REM
REM ./C.cell (11c1c37f851c82e70ff6c80c92926a4b)
REM
REM compiler GCC version 9.2.1 20190827 (Red Hat 9.2.1-1)
REM options -cpp -mtune=generic -march=x86-64 -g -O0 -fpre-include=/usr/include/finclude/math-vector-fortran.h
REM seed 1028073289 596387326 -1103231917 -912342942 -1443331792 20320350 862156869 294592434 -960637854 -1408456338 -23815994 1912416075 -2051693016 -2013648870 -980478897 968221137 -1155094434 1722468677 -1737151982 1878208417 -805009623 -174046852 1778662939 -1578174220 -730910541 280032916 876496248 587304881 313572372 -1961731299 953819907 -808927797 -1641565029
REM
CELL 1.54180   50.00000   50.00000   50.00000   90.00000   90.00000   90.00000
LATT -1
SFAC C  
C      1  0.4417910000000  0.4878060000000  0.5121600000000 1.0
C      1  0.4679530000000  0.4659000000000  0.4691580000000 1.0
C      1  0.4426910000000  0.4434900000000  0.5453880000000 1.0
C      1  0.4729420000000  0.4348130000000  0.4415840000000 1.0
C      1  0.5614640000000  0.5381770000000  0.4504710000000 1.0
C      1  0.4058560000000  0.5153040000000  0.4981140000000 1.0
C      1  0.5093040000000  0.4585900000000  0.4830980000000 1.0
C      1  0.5246870000000  0.4918990000000  0.4218090000000 1.0
C      1  0.5465010000000  0.5594000000000  0.4639410000000 1.0
C      1  0.5052050000000  0.4221630000000  0.5292470000000 1.0
C      1  0.4581220000000  0.4864160000000  0.5362470000000 1.0
C      1  0.4794560000000  0.4241870000000  0.5185720000000 1.0
C      1  0.5676930000000  0.5533020000000  0.5115620000000 1.0
C      1  0.4386540000000  0.4795570000000  0.4380340000000 1.0
C      1  0.5528510000000  0.5521960000000  0.5370410000000 1.0
C      1  0.5033270000000  0.5707130000000  0.5686960000000 1.0
C      1  0.5150870000000  0.4837970000000  0.4489700000000 1.0
C      1  0.5616720000000  0.4333010000000  0.5103730000000 1.0
C      1  0.5430110000000  0.4574610000000  0.5610130000000 1.0
C      1  0.4038130000000  0.4992800000000  0.5224180000000 1.0
C      1  0.4502420000000  0.5785450000000  0.4812810000000 1.0
C      1  0.5566390000000  0.4169670000000  0.4864780000000 1.0
C      1  0.5005150000000  0.5021870000000  0.4101090000000 1.0
C      1  0.4517030000000  0.5492040000000  0.5466660000000 1.0
C      1  0.4485410000000  0.4695520000000  0.5573160000000 1.0
C      1  0.4683860000000  0.5721350000000  0.4567820000000 1.0
C      1  0.4972320000000  0.4324600000000  0.5537590000000 1.0
C      1  0.5252450000000  0.5350620000000  0.4984030000000 1.0
C      1  0.5646150000000  0.5240370000000  0.5064270000000 1.0
C      1  0.5392860000000  0.5108400000000  0.5037450000000 1.0
C      1  0.5401020000000  0.5322090000000  0.5775880000000 1.0
C      1  0.5518410000000  0.4849580000000  0.5670800000000 1.0
C      1  0.5896990000000  0.5023960000000  0.4804240000000 1.0
C      1  0.5253010000000  0.4891170000000  0.5186680000000 1.0
C      1  0.5133320000000  0.5013910000000  0.5433500000000 1.0
C      1  0.5205030000000  0.5635840000000  0.4506810000000 1.0
C      1  0.4264510000000  0.5379190000000  0.5003040000000 1.0
C      1  0.5713710000000  0.5054970000000  0.5575490000000 1.0
C      1  0.5902080000000  0.5100890000000  0.5088800000000 1.0
C      1  0.5769290000000  0.4773450000000  0.4868420000000 1.0
C      1  0.5277340000000  0.5039270000000  0.5728250000000 1.0
C      1  0.5516060000000  0.4212010000000  0.4570910000000 1.0
C      1  0.5413210000000  0.4551630000000  0.5066270000000 1.0
C      1  0.5616550000000  0.5338980000000  0.5590470000000 1.0
C      1  0.5264000000000  0.4421630000000  0.5273690000000 1.0
C      1  0.5549390000000  0.5704030000000  0.4905810000000 1.0
C      1  0.4162200000000  0.5179910000000  0.5446790000000 1.0
C      1  0.4310250000000  0.5215060000000  0.4594220000000 1.0
C      1  0.5195450000000  0.4453510000000  0.4296750000000 1.0
C      1  0.4086540000000  0.5048930000000  0.4709580000000 1.0
C      1  0.4809300000000  0.5172910000000  0.5240470000000 1.0
C      1  0.4965720000000  0.5772380000000  0.4625550000000 1.0
C      1  0.4806270000000  0.4822090000000  0.4210650000000 1.0
C      1  0.5058510000000  0.4291250000000  0.4786430000000 1.0
C      1  0.5381760000000  0.5817140000000  0.5107380000000 1.0
C      1  0.4305510000000  0.5130710000000  0.5691050000000 1.0
C      1  0.5523860000000  0.4365630000000  0.5399850000000 1.0
C      1  0.5178100000000  0.5448670000000  0.4287440000000 1.0
C      1  0.4693330000000  0.4578140000000  0.5741870000000 1.0
C      1  0.4588860000000  0.5782790000000  0.5081580000000 1.0
C      1  0.4663030000000  0.5274710000000  0.4277100000000 1.0
C      1  0.4434960000000  0.4454450000000  0.4952870000000 1.0
C      1  0.4684320000000  0.4332970000000  0.5574160000000 1.0
C      1  0.4451120000000  0.4731560000000  0.4859880000000 1.0
C      1  0.4653350000000  0.4252970000000  0.4939920000000 1.0
C      1  0.4953100000000  0.4705550000000  0.5801180000000 1.0
C      1  0.4954710000000  0.5774560000000  0.5417450000000 1.0
C      1  0.5705000000000  0.4936440000000  0.4351080000000 1.0
C      1  0.5499210000000  0.5061710000000  0.4184850000000 1.0
C      1  0.5667150000000  0.4647580000000  0.4393100000000 1.0
C      1  0.4225940000000  0.4809400000000  0.4623110000000 1.0
C      1  0.4791120000000  0.5223660000000  0.4791030000000 1.0
C      1  0.4298110000000  0.5406090000000  0.5312400000000 1.0
C      1  0.5101420000000  0.5831290000000  0.5163550000000 1.0
C      1  0.4286190000000  0.5505010000000  0.4527670000000 1.0
C      1  0.4286080000000  0.4467420000000  0.5199990000000 1.0
C      1  0.5592260000000  0.4654980000000  0.4670910000000 1.0
C      1  0.4564050000000  0.4995270000000  0.4254600000000 1.0
C      1  0.4942300000000  0.5290850000000  0.4190940000000 1.0
C      1  0.5617550000000  0.4734990000000  0.5112810000000 1.0
C      1  0.5021420000000  0.4792350000000  0.5025820000000 1.0
C      1  0.4553310000000  0.5524600000000  0.4400510000000 1.0
C      1  0.4514000000000  0.4538980000000  0.4477160000000 1.0
C      1  0.4951450000000  0.5492930000000  0.5881850000000 1.0
C      1  0.4169700000000  0.4736930000000  0.5166630000000 1.0
C      1  0.5449130000000  0.5338080000000  0.4267390000000 1.0
C      1  0.5050020000000  0.5285000000000  0.5367490000000 1.0
C      1  0.4747410000000  0.5043080000000  0.5459990000000 1.0
C      1  0.4993200000000  0.5427450000000  0.4876400000000 1.0
C      1  0.4505140000000  0.5226040000000  0.4816150000000 1.0
C      1  0.5302210000000  0.4124170000000  0.4739600000000 1.0
C      1  0.4863100000000  0.4807050000000  0.4516180000000 1.0
C      1  0.5305140000000  0.4717820000000  0.4689140000000 1.0
C      1  0.5235870000000  0.5550750000000  0.5839400000000 1.0
C      1  0.4667990000000  0.5717770000000  0.5348300000000 1.0
C      1  0.5004780000000  0.4989620000000  0.5861210000000 1.0
C      1  0.4930370000000  0.4490400000000  0.4253700000000 1.0
C      1  0.5474090000000  0.4418510000000  0.4352900000000 1.0
C      1  0.4823340000000  0.5008360000000  0.4992640000000 1.0
C      1  0.4836710000000  0.5226230000000  0.5854680000000 1.0
C      1  0.4800170000000  0.4224300000000  0.4673250000000 1.0
C      1  0.5882620000000  0.4951250000000  0.5351870000000 1.0
C      1  0.5744470000000  0.4701830000000  0.5369390000000 1.0
C      1  0.4597960000000  0.5251760000000  0.5653090000000 1.0
C      1  0.5770700000000  0.5133880000000  0.4560470000000 1.0
C      1  0.5143410000000  0.4526620000000  0.5673710000000 1.0
C      1  0.5261890000000  0.5454340000000  0.5258610000000 1.0
C      1  0.4267880000000  0.5609840000000  0.4798330000000 1.0
C      1  0.4957150000000  0.5719520000000  0.4918260000000 1.0
END
