TITL C-4164233-775-706 65.3767985865525 125000 -28992.7141296841 0 0 194 (C1) n - 1
REM
REM in /home/nfs/bkarasulu/CARBON/AIRSS/Generating-Clusters/ReaxFF-fromJPCA2015/Units_Real/with-SteepDescent/Only-C1/SD-CG/Try1-3A/FIRE-CG
REM
REM
REM
REM
REM
REM ./C.cell (11c1c37f851c82e70ff6c80c92926a4b)
REM
REM compiler GCC version 9.2.1 20190827 (Red Hat 9.2.1-1)
REM options -cpp -mtune=generic -march=x86-64 -g -O0 -fpre-include=/usr/include/finclude/math-vector-fortran.h
REM seed -1964813765 2127666380 539341099 -1126976502 1003154459 -1942613018 1260680196 -2064704314 929919676 -957135094 -436222633 -1328577252 1848492737 -1349878189 -328877707 394633033 1987222948 1761892992 1256610119 1809209192 -1479211765 -1104595220 -2062296226 -49651792 678727679 -1228226742 -1834200473 -1650736707 -675349016 -1762900093 -904184710 -1744912291 -863638098
REM
CELL 1.54180   50.00000   50.00000   50.00000   90.00000   90.00000   90.00000
LATT -1
SFAC C  
C      1  0.5958900000000  0.4801650000000  0.5791840000000 1.0
C      1  0.5433800000000  0.5866030000000  0.5403270000000 1.0
C      1  0.4718230000000  0.4554020000000  0.6060470000000 1.0
C      1  0.5101990000000  0.5427570000000  0.3939030000000 1.0
C      1  0.4403420000000  0.4179820000000  0.5481450000000 1.0
C      1  0.4145190000000  0.4273760000000  0.5396240000000 1.0
C      1  0.4636540000000  0.4784580000000  0.4399420000000 1.0
C      1  0.5132860000000  0.5155090000000  0.5996130000000 1.0
C      1  0.6064120000000  0.4884970000000  0.5326670000000 1.0
C      1  0.4800960000000  0.5740310000000  0.4183670000000 1.0
C      1  0.5460440000000  0.4743310000000  0.3986990000000 1.0
C      1  0.4098450000000  0.4727890000000  0.5449340000000 1.0
C      1  0.3918640000000  0.4863400000000  0.5089120000000 1.0
C      1  0.5921720000000  0.4940610000000  0.4361130000000 1.0
C      1  0.4457890000000  0.4326840000000  0.5744400000000 1.0
C      1  0.5147800000000  0.6053680000000  0.4453630000000 1.0
C      1  0.4836510000000  0.5502280000000  0.4011490000000 1.0
C      1  0.6093650000000  0.4914160000000  0.4592420000000 1.0
C      1  0.4039220000000  0.4316160000000  0.5119730000000 1.0
C      1  0.5499120000000  0.5461960000000  0.5713930000000 1.0
C      1  0.4771940000000  0.5756220000000  0.5843470000000 1.0
C      1  0.4600260000000  0.4062310000000  0.5294480000000 1.0
C      1  0.4337840000000  0.3910500000000  0.4931780000000 1.0
C      1  0.5072100000000  0.6026910000000  0.4749990000000 1.0
C      1  0.5424110000000  0.4828940000000  0.5413080000000 1.0
C      1  0.4504000000000  0.4672260000000  0.3950150000000 1.0
C      1  0.4425000000000  0.5907990000000  0.5138030000000 1.0
C      1  0.5783100000000  0.5163900000000  0.5981180000000 1.0
C      1  0.4913650000000  0.5502940000000  0.5488510000000 1.0
C      1  0.4877210000000  0.4160310000000  0.5387200000000 1.0
C      1  0.5504460000000  0.4175670000000  0.5576810000000 1.0
C      1  0.5234600000000  0.5024220000000  0.3809220000000 1.0
C      1  0.5457110000000  0.6068160000000  0.4951500000000 1.0
C      1  0.5267730000000  0.4292370000000  0.4128840000000 1.0
C      1  0.5292220000000  0.5606770000000  0.5860270000000 1.0
C      1  0.3939920000000  0.5376130000000  0.4844810000000 1.0
C      1  0.4585060000000  0.5818250000000  0.4371670000000 1.0
C      1  0.4635220000000  0.5854630000000  0.4664460000000 1.0
C      1  0.4024800000000  0.5234810000000  0.5544220000000 1.0
C      1  0.4863000000000  0.6109290000000  0.4954510000000 1.0
C      1  0.4111610000000  0.4963230000000  0.5624200000000 1.0
C      1  0.4713620000000  0.4810360000000  0.5945780000000 1.0
C      1  0.6038790000000  0.4594130000000  0.5290170000000 1.0
C      1  0.5082130000000  0.5397990000000  0.5073590000000 1.0
C      1  0.5591690000000  0.4513960000000  0.4393350000000 1.0
C      1  0.4674440000000  0.5258280000000  0.3938790000000 1.0
C      1  0.5317480000000  0.6042250000000  0.5203540000000 1.0
C      1  0.4798040000000  0.5625630000000  0.4724130000000 1.0
C      1  0.5222750000000  0.4597370000000  0.4980080000000 1.0
C      1  0.5459100000000  0.4746400000000  0.4279740000000 1.0
C      1  0.4998990000000  0.4162560000000  0.5094240000000 1.0
C      1  0.5994290000000  0.4411930000000  0.4795420000000 1.0
C      1  0.5051340000000  0.4790410000000  0.4820580000000 1.0
C      1  0.4577650000000  0.5004290000000  0.4652690000000 1.0
C      1  0.4815200000000  0.5253560000000  0.5576380000000 1.0
C      1  0.5799180000000  0.5236980000000  0.4254550000000 1.0
C      1  0.5776050000000  0.5789450000000  0.5032500000000 1.0
C      1  0.5532240000000  0.4070470000000  0.4794400000000 1.0
C      1  0.5624790000000  0.5286630000000  0.4494240000000 1.0
C      1  0.4821210000000  0.5034050000000  0.3816120000000 1.0
C      1  0.5719490000000  0.4665210000000  0.5883150000000 1.0
C      1  0.5803720000000  0.4159680000000  0.4820800000000 1.0
C      1  0.5517780000000  0.4738050000000  0.4926000000000 1.0
C      1  0.4978510000000  0.4358920000000  0.5807250000000 1.0
C      1  0.5025090000000  0.4635750000000  0.4595360000000 1.0
C      1  0.4869740000000  0.4150150000000  0.4397800000000 1.0
C      1  0.5009350000000  0.6094890000000  0.5204130000000 1.0
C      1  0.5290420000000  0.4917930000000  0.4449370000000 1.0
C      1  0.5270480000000  0.5801230000000  0.5643400000000 1.0
C      1  0.4799870000000  0.5496470000000  0.5981090000000 1.0
C      1  0.4288150000000  0.4557880000000  0.5801940000000 1.0
C      1  0.4929400000000  0.4747480000000  0.4347980000000 1.0
C      1  0.4298550000000  0.4863060000000  0.5830560000000 1.0
C      1  0.5891710000000  0.4968290000000  0.5526460000000 1.0
C      1  0.4958230000000  0.5521950000000  0.4504710000000 1.0
C      1  0.5095200000000  0.3883750000000  0.5012740000000 1.0
C      1  0.5406260000000  0.5308620000000  0.5482460000000 1.0
C      1  0.3744720000000  0.5079370000000  0.5066630000000 1.0
C      1  0.4911100000000  0.4458100000000  0.5541440000000 1.0
C      1  0.4607430000000  0.4811380000000  0.5476920000000 1.0
C      1  0.4976780000000  0.4890520000000  0.5281020000000 1.0
C      1  0.5944010000000  0.5659950000000  0.4557440000000 1.0
C      1  0.4184640000000  0.5011460000000  0.5028050000000 1.0
C      1  0.4556010000000  0.4606230000000  0.5277120000000 1.0
C      1  0.5817660000000  0.4428520000000  0.5447410000000 1.0
C      1  0.4607080000000  0.3951490000000  0.5027290000000 1.0
C      1  0.4587210000000  0.6009040000000  0.4918160000000 1.0
C      1  0.4236230000000  0.4506990000000  0.4398410000000 1.0
C      1  0.4773880000000  0.4752560000000  0.3883930000000 1.0
C      1  0.4703080000000  0.4988730000000  0.5104930000000 1.0
C      1  0.4087160000000  0.4478070000000  0.5604950000000 1.0
C      1  0.5645430000000  0.4221530000000  0.5330310000000 1.0
C      1  0.5110710000000  0.4402300000000  0.4752710000000 1.0
C      1  0.4303590000000  0.4763600000000  0.4968400000000 1.0
C      1  0.6007950000000  0.5367870000000  0.4843500000000 1.0
C      1  0.5014950000000  0.5073070000000  0.4832830000000 1.0
C      1  0.4285550000000  0.4261670000000  0.4230450000000 1.0
C      1  0.5484240000000  0.5042300000000  0.3908420000000 1.0
C      1  0.4158890000000  0.4782950000000  0.4331530000000 1.0
C      1  0.5894680000000  0.5522570000000  0.5347530000000 1.0
C      1  0.5751520000000  0.5394520000000  0.5816980000000 1.0
C      1  0.4516140000000  0.5355290000000  0.4307500000000 1.0
C      1  0.5823340000000  0.5840230000000  0.4759080000000 1.0
C      1  0.5280620000000  0.5517700000000  0.4876730000000 1.0
C      1  0.5240650000000  0.4674090000000  0.6138230000000 1.0
C      1  0.5347200000000  0.5213570000000  0.4443500000000 1.0
C      1  0.4396340000000  0.4123470000000  0.4476890000000 1.0
C      1  0.3924120000000  0.4563270000000  0.5001590000000 1.0
C      1  0.5255210000000  0.4965620000000  0.5219460000000 1.0
C      1  0.5177140000000  0.5776380000000  0.4832880000000 1.0
C      1  0.5571020000000  0.5074220000000  0.5453410000000 1.0
C      1  0.6021190000000  0.4507690000000  0.5039590000000 1.0
C      1  0.5673790000000  0.4960880000000  0.5031160000000 1.0
C      1  0.4962840000000  0.4603130000000  0.4072690000000 1.0
C      1  0.4523550000000  0.5774260000000  0.5713890000000 1.0
C      1  0.4070400000000  0.5606310000000  0.5350740000000 1.0
C      1  0.4480210000000  0.5161750000000  0.5193270000000 1.0
C      1  0.5358980000000  0.5494120000000  0.4070840000000 1.0
C      1  0.4561160000000  0.5324970000000  0.5940780000000 1.0
C      1  0.4129640000000  0.5588870000000  0.4852500000000 1.0
C      1  0.5973600000000  0.5494000000000  0.4338370000000 1.0
C      1  0.4509240000000  0.5031230000000  0.5948520000000 1.0
C      1  0.4288850000000  0.4657920000000  0.5236620000000 1.0
C      1  0.4858090000000  0.6020200000000  0.5431560000000 1.0
C      1  0.3877720000000  0.5388430000000  0.5322240000000 1.0
C      1  0.4982840000000  0.4280620000000  0.4167370000000 1.0
C      1  0.3736970000000  0.5357250000000  0.5056140000000 1.0
C      1  0.4640490000000  0.4271140000000  0.4572670000000 1.0
C      1  0.4063060000000  0.4641740000000  0.4763950000000 1.0
C      1  0.5865110000000  0.4649260000000  0.4355840000000 1.0
C      1  0.5986160000000  0.5037410000000  0.5092510000000 1.0
C      1  0.5567150000000  0.5225830000000  0.4971480000000 1.0
C      1  0.5695980000000  0.5755650000000  0.5291440000000 1.0
C      1  0.5607460000000  0.4928690000000  0.5994950000000 1.0
C      1  0.5219430000000  0.5429830000000  0.4589680000000 1.0
C      1  0.4587800000000  0.4827200000000  0.4895810000000 1.0
C      1  0.5019240000000  0.4599430000000  0.5208500000000 1.0
C      1  0.4979390000000  0.5867420000000  0.5646610000000 1.0
C      1  0.4585240000000  0.5445060000000  0.5139650000000 1.0
C      1  0.4579860000000  0.5103620000000  0.5475570000000 1.0
C      1  0.6006080000000  0.5359760000000  0.5135810000000 1.0
C      1  0.5088890000000  0.5442980000000  0.6003830000000 1.0
C      1  0.4413560000000  0.4423060000000  0.4040980000000 1.0
C      1  0.5417660000000  0.5950440000000  0.4433850000000 1.0
C      1  0.5269760000000  0.4713040000000  0.5643470000000 1.0
C      1  0.4220240000000  0.4016640000000  0.4680400000000 1.0
C      1  0.4403460000000  0.4881530000000  0.4169960000000 1.0
C      1  0.5572270000000  0.5990940000000  0.4697860000000 1.0
C      1  0.5246840000000  0.4541790000000  0.3972340000000 1.0
C      1  0.5138990000000  0.5387860000000  0.5360400000000 1.0
C      1  0.4113120000000  0.5118210000000  0.4766560000000 1.0
C      1  0.5715220000000  0.5367080000000  0.4758910000000 1.0
C      1  0.4702480000000  0.4309170000000  0.5920620000000 1.0
C      1  0.4989490000000  0.5090820000000  0.5751440000000 1.0
C      1  0.4584510000000  0.5874880000000  0.5411890000000 1.0
C      1  0.4762250000000  0.4547100000000  0.5066460000000 1.0
C      1  0.4699130000000  0.5606520000000  0.5345530000000 1.0
C      1  0.6041220000000  0.5056020000000  0.5903180000000 1.0
C      1  0.5061640000000  0.5183070000000  0.3781250000000 1.0
C      1  0.5264660000000  0.4058790000000  0.5570000000000 1.0
C      1  0.5432540000000  0.4271880000000  0.4373660000000 1.0
C      1  0.5658310000000  0.4083580000000  0.5059110000000 1.0
C      1  0.4183440000000  0.5471690000000  0.5598890000000 1.0
C      1  0.4327040000000  0.5488360000000  0.4649110000000 1.0
C      1  0.5292030000000  0.4153970000000  0.4615590000000 1.0
C      1  0.6049580000000  0.4609490000000  0.4577010000000 1.0
C      1  0.4518110000000  0.4529360000000  0.4493560000000 1.0
C      1  0.5056680000000  0.4889580000000  0.5575180000000 1.0
C      1  0.5943990000000  0.5417570000000  0.5614930000000 1.0
C      1  0.5012150000000  0.3998770000000  0.4598610000000 1.0
C      1  0.5213810000000  0.4534860000000  0.5876890000000 1.0
C      1  0.4399510000000  0.5526220000000  0.5790610000000 1.0
C      1  0.4042300000000  0.4860340000000  0.4580100000000 1.0
C      1  0.4385410000000  0.5608680000000  0.4384890000000 1.0
C      1  0.5295790000000  0.5087670000000  0.4949010000000 1.0
C      1  0.4737110000000  0.4660570000000  0.5672300000000 1.0
C      1  0.4858300000000  0.3879590000000  0.4827140000000 1.0
C      1  0.5037840000000  0.3964250000000  0.5548520000000 1.0
C      1  0.5561410000000  0.5283990000000  0.4058220000000 1.0
C      1  0.4825380000000  0.5135530000000  0.4625570000000 1.0
C      1  0.4846710000000  0.4314930000000  0.4888140000000 1.0
C      1  0.4448520000000  0.5168790000000  0.4090850000000 1.0
C      1  0.5327790000000  0.5752940000000  0.4223840000000 1.0
C      1  0.4357970000000  0.5202640000000  0.4660820000000 1.0
C      1  0.4104650000000  0.4093480000000  0.4943320000000 1.0
C      1  0.6118200000000  0.5094890000000  0.4826020000000 1.0
C      1  0.4819490000000  0.5476140000000  0.4971790000000 1.0
C      1  0.4202750000000  0.5728450000000  0.5110660000000 1.0
C      1  0.5671330000000  0.4459030000000  0.5682680000000 1.0
C      1  0.4789920000000  0.5311340000000  0.4416440000000 1.0
C      1  0.6086110000000  0.5159390000000  0.5628970000000 1.0
C      1  0.5336220000000  0.4958590000000  0.6100380000000 1.0
C      1  0.5058210000000  0.5876930000000  0.4229250000000 1.0
C      1  0.5422970000000  0.4894300000000  0.4708420000000 1.0
END
