TITL C-4164247-2821-289 0.369180425515118 125000 -3902.91769165547 0 0 28 (C1) n - 1
REM
REM in /home/nfs/bkarasulu/CARBON/AIRSS/Generating-Clusters/ReaxFF-fromJPCA2015/Units_Real/with-SteepDescent/Only-C1/SD-CG/Try1-3A/FIRE-CG
REM
REM
REM
REM
REM
REM ./C.cell (11c1c37f851c82e70ff6c80c92926a4b)
REM
REM compiler GCC version 9.2.1 20190827 (Red Hat 9.2.1-1)
REM options -cpp -mtune=generic -march=x86-64 -g -O0 -fpre-include=/usr/include/finclude/math-vector-fortran.h
REM seed -999610460 1337216542 -1529432762 813344930 -1605693960 -1892703595 231138670 894021037 -1407901636 2009416324 2066869792 -993738722 1703100797 1232277715 1239987570 -1974429787 56297579 475614258 203227309 -492407239 -1980881557 1883024568 -1700187185 1582599681 749166849 -1742253175 524088597 583225334 -658822022 400201567 1343437437 1639401753 1440355620
REM
CELL 1.54180   50.00000   50.00000   50.00000   90.00000   90.00000   90.00000
LATT -1
SFAC C  
C      1  0.4997310000000  0.4919650000000  0.5116810000000 1.0
C      1  0.4564870000000  0.4822130000000  0.4648050000000 1.0
C      1  0.4948850000000  0.4475520000000  0.4723110000000 1.0
C      1  0.5027220000000  0.5455900000000  0.4951030000000 1.0
C      1  0.5030430000000  0.5313600000000  0.5468250000000 1.0
C      1  0.4749040000000  0.4402970000000  0.5207600000000 1.0
C      1  0.5546690000000  0.5047560000000  0.5327660000000 1.0
C      1  0.5085940000000  0.5012070000000  0.5570180000000 1.0
C      1  0.4889990000000  0.4308070000000  0.4962760000000 1.0
C      1  0.5791360000000  0.4967620000000  0.5298360000000 1.0
C      1  0.5165410000000  0.5369270000000  0.5190130000000 1.0
C      1  0.5000070000000  0.5204260000000  0.4549800000000 1.0
C      1  0.4744370000000  0.5444550000000  0.4874620000000 1.0
C      1  0.5404810000000  0.5183140000000  0.4827160000000 1.0
C      1  0.5362530000000  0.4924630000000  0.4677670000000 1.0
C      1  0.4629750000000  0.4686880000000  0.4406660000000 1.0
C      1  0.4859980000000  0.5470570000000  0.5577360000000 1.0
C      1  0.4524640000000  0.4970070000000  0.4881920000000 1.0
C      1  0.5397450000000  0.5225020000000  0.5118540000000 1.0
C      1  0.4694960000000  0.4887730000000  0.5114410000000 1.0
C      1  0.5360120000000  0.4942060000000  0.5570140000000 1.0
C      1  0.5095730000000  0.4923170000000  0.4543290000000 1.0
C      1  0.4738000000000  0.5315920000000  0.4616690000000 1.0
C      1  0.4995500000000  0.4787550000000  0.5397690000000 1.0
C      1  0.5180270000000  0.5346140000000  0.4726990000000 1.0
C      1  0.4932060000000  0.4672870000000  0.4518400000000 1.0
C      1  0.4555440000000  0.5245940000000  0.4812080000000 1.0
C      1  0.4727220000000  0.4675150000000  0.5322640000000 1.0
END
