TITL C-4164232-771-611 7.46839446684834 125000 -14952.1108808335 0 0 102 (C1) n - 1
REM
REM in /home/nfs/bkarasulu/CARBON/AIRSS/Generating-Clusters/ReaxFF-fromJPCA2015/Units_Real/with-SteepDescent/Only-C1/SD-CG/Try1-3A/FIRE-CG
REM
REM
REM
REM
REM
REM ./C.cell (11c1c37f851c82e70ff6c80c92926a4b)
REM
REM compiler GCC version 9.2.1 20190827 (Red Hat 9.2.1-1)
REM options -cpp -mtune=generic -march=x86-64 -g -O0 -fpre-include=/usr/include/finclude/math-vector-fortran.h
REM seed 1775853783 476563074 225912590 -1523492909 -257892579 -1103463810 -888161290 710130339 320229010 1568616928 -999162444 154876247 1822964671 -375624285 -1278372195 1211698410 -1032472988 621295606 -392171990 1216471704 -1267600973 426720141 -1028237803 411825842 9397765 -1022586739 1372750450 2039204731 1249142957 -141833671 184739297 360499364 -89115897
REM
CELL 1.54180   50.00000   50.00000   50.00000   90.00000   90.00000   90.00000
LATT -1
SFAC C  
C      1  0.4672710000000  0.5698830000000  0.4642240000000 1.0
C      1  0.4695260000000  0.5256320000000  0.5427630000000 1.0
C      1  0.5090830000000  0.4822320000000  0.3895990000000 1.0
C      1  0.5113650000000  0.5270900000000  0.5657410000000 1.0
C      1  0.4884990000000  0.4135220000000  0.5172440000000 1.0
C      1  0.5386360000000  0.4201940000000  0.5071430000000 1.0
C      1  0.5732930000000  0.5411400000000  0.4577480000000 1.0
C      1  0.4301500000000  0.4487010000000  0.4963750000000 1.0
C      1  0.5433460000000  0.5693580000000  0.5109660000000 1.0
C      1  0.4789890000000  0.5439420000000  0.4243970000000 1.0
C      1  0.4463310000000  0.5566490000000  0.5129000000000 1.0
C      1  0.4934870000000  0.5028060000000  0.4661960000000 1.0
C      1  0.5596620000000  0.5069440000000  0.4195650000000 1.0
C      1  0.4472360000000  0.4783700000000  0.5388490000000 1.0
C      1  0.4498650000000  0.5134290000000  0.5762520000000 1.0
C      1  0.5259090000000  0.4726880000000  0.4704590000000 1.0
C      1  0.4644400000000  0.4822000000000  0.5017480000000 1.0
C      1  0.4646220000000  0.5284600000000  0.5136600000000 1.0
C      1  0.5808380000000  0.4821410000000  0.5300650000000 1.0
C      1  0.4185770000000  0.5428360000000  0.5058460000000 1.0
C      1  0.5103870000000  0.5095640000000  0.4004660000000 1.0
C      1  0.5109100000000  0.4403060000000  0.5731290000000 1.0
C      1  0.5059020000000  0.4340500000000  0.4597950000000 1.0
C      1  0.4570520000000  0.4279270000000  0.4557100000000 1.0
C      1  0.5348120000000  0.5211560000000  0.4124860000000 1.0
C      1  0.4346040000000  0.5321260000000  0.4471040000000 1.0
C      1  0.5887290000000  0.4853950000000  0.5022120000000 1.0
C      1  0.4044400000000  0.5433510000000  0.4796300000000 1.0
C      1  0.4847860000000  0.4256430000000  0.5422920000000 1.0
C      1  0.5002760000000  0.5856540000000  0.5393950000000 1.0
C      1  0.5305930000000  0.4356200000000  0.4399440000000 1.0
C      1  0.4247490000000  0.4690500000000  0.4743060000000 1.0
C      1  0.4819990000000  0.4724020000000  0.5741910000000 1.0
C      1  0.5032040000000  0.5574650000000  0.4323650000000 1.0
C      1  0.4861920000000  0.4399950000000  0.5658350000000 1.0
C      1  0.4871790000000  0.5254670000000  0.4926550000000 1.0
C      1  0.5199210000000  0.4606960000000  0.5255160000000 1.0
C      1  0.4963480000000  0.5673750000000  0.4594920000000 1.0
C      1  0.5360490000000  0.4544730000000  0.5782310000000 1.0
C      1  0.5044530000000  0.4865250000000  0.5863700000000 1.0
C      1  0.4720820000000  0.4146630000000  0.4925780000000 1.0
C      1  0.5756710000000  0.4692610000000  0.4818160000000 1.0
C      1  0.5640900000000  0.4814340000000  0.4369680000000 1.0
C      1  0.4477450000000  0.5032130000000  0.5146230000000 1.0
C      1  0.5150050000000  0.5124190000000  0.5380290000000 1.0
C      1  0.5409170000000  0.5242370000000  0.4758230000000 1.0
C      1  0.4624240000000  0.5743740000000  0.4926130000000 1.0
C      1  0.5474530000000  0.4691130000000  0.4877580000000 1.0
C      1  0.5875570000000  0.5075620000000  0.4831870000000 1.0
C      1  0.5545470000000  0.4535890000000  0.5574370000000 1.0
C      1  0.5127440000000  0.5814320000000  0.5136660000000 1.0
C      1  0.5230080000000  0.4990540000000  0.4716080000000 1.0
C      1  0.4818880000000  0.4732200000000  0.5210340000000 1.0
C      1  0.4452580000000  0.5352550000000  0.5553930000000 1.0
C      1  0.4570910000000  0.5503340000000  0.4434930000000 1.0
C      1  0.5008020000000  0.4591690000000  0.4714250000000 1.0
C      1  0.4955480000000  0.4602660000000  0.4054860000000 1.0
C      1  0.5336760000000  0.4844520000000  0.5804830000000 1.0
C      1  0.4828370000000  0.4164070000000  0.4644740000000 1.0
C      1  0.4762840000000  0.4706830000000  0.4268610000000 1.0
C      1  0.5448550000000  0.4505180000000  0.5124150000000 1.0
C      1  0.5295420000000  0.5448990000000  0.4287110000000 1.0
C      1  0.4856980000000  0.5166000000000  0.4167730000000 1.0
C      1  0.4064670000000  0.4919780000000  0.4720780000000 1.0
C      1  0.4725130000000  0.5780430000000  0.5505860000000 1.0
C      1  0.4365840000000  0.4588500000000  0.5219630000000 1.0
C      1  0.5759690000000  0.5217430000000  0.4371130000000 1.0
C      1  0.4562430000000  0.4531870000000  0.4397260000000 1.0
C      1  0.4471410000000  0.4272360000000  0.4838310000000 1.0
C      1  0.4105140000000  0.5207080000000  0.4593790000000 1.0
C      1  0.4014590000000  0.5050500000000  0.4963070000000 1.0
C      1  0.4687470000000  0.5194080000000  0.5990720000000 1.0
C      1  0.4973070000000  0.5141050000000  0.5932990000000 1.0
C      1  0.5015140000000  0.5471810000000  0.4800390000000 1.0
C      1  0.4486740000000  0.4733770000000  0.4587030000000 1.0
C      1  0.5520310000000  0.5050650000000  0.5694080000000 1.0
C      1  0.5140480000000  0.4436090000000  0.4189390000000 1.0
C      1  0.5123520000000  0.5749610000000  0.5646870000000 1.0
C      1  0.4496150000000  0.5617190000000  0.5424660000000 1.0
C      1  0.5246770000000  0.5403130000000  0.4943390000000 1.0
C      1  0.4194880000000  0.5149960000000  0.5153640000000 1.0
C      1  0.5177910000000  0.4126940000000  0.5104360000000 1.0
C      1  0.4865580000000  0.5376270000000  0.5628170000000 1.0
C      1  0.5452490000000  0.5456120000000  0.4531820000000 1.0
C      1  0.5088110000000  0.5247680000000  0.5130370000000 1.0
C      1  0.5657290000000  0.5328190000000  0.5398050000000 1.0
C      1  0.5506740000000  0.5349030000000  0.5649390000000 1.0
C      1  0.4580990000000  0.4854730000000  0.5665490000000 1.0
C      1  0.5613940000000  0.5466520000000  0.5136770000000 1.0
C      1  0.5812090000000  0.4882960000000  0.4613280000000 1.0
C      1  0.5694130000000  0.5295630000000  0.4865810000000 1.0
C      1  0.5248290000000  0.4863870000000  0.5367770000000 1.0
C      1  0.5273890000000  0.5505410000000  0.5693980000000 1.0
C      1  0.4889590000000  0.5814090000000  0.4986290000000 1.0
C      1  0.5683320000000  0.4557510000000  0.5342320000000 1.0
C      1  0.4762610000000  0.4778740000000  0.4747040000000 1.0
C      1  0.5478290000000  0.4584770000000  0.4372610000000 1.0
C      1  0.5707830000000  0.5041110000000  0.5462930000000 1.0
C      1  0.4785480000000  0.4178410000000  0.5822370000000 1.0
C      1  0.4858810000000  0.5652440000000  0.5728970000000 1.0
C      1  0.4826260000000  0.4973680000000  0.4381310000000 1.0
C      1  0.5078620000000  0.4804490000000  0.5142740000000 1.0
END
