TITL C-4164232-771-601 80.5425991856784 125000 -24501.2560440623 0 0 164 (C1) n - 1
REM
REM in /home/nfs/bkarasulu/CARBON/AIRSS/Generating-Clusters/ReaxFF-fromJPCA2015/Units_Real/with-SteepDescent/Only-C1/SD-CG/Try1-3A/FIRE-CG
REM
REM
REM
REM
REM
REM ./C.cell (11c1c37f851c82e70ff6c80c92926a4b)
REM
REM compiler GCC version 9.2.1 20190827 (Red Hat 9.2.1-1)
REM options -cpp -mtune=generic -march=x86-64 -g -O0 -fpre-include=/usr/include/finclude/math-vector-fortran.h
REM seed 939132731 -407861979 -1167011294 588555668 -1347022566 -1274306675 -1746252246 510595638 -604937277 -815823566 -1983029613 1623871738 500033103 -1966131491 -1309491561 752285730 -1369285486 -29017565 -1911475337 -987869674 529711959 1704304480 -192161943 452672724 -1034170681 1580910920 -2111816097 1297120973 1794667078 911449681 -731922784 1797136463 499348462
REM
CELL 1.54180   50.00000   50.00000   50.00000   90.00000   90.00000   90.00000
LATT -1
SFAC C  
C      1  0.4541710000000  0.5152090000000  0.4012250000000 1.0
C      1  0.5628170000000  0.5649340000000  0.5534260000000 1.0
C      1  0.5409020000000  0.5406780000000  0.4045650000000 1.0
C      1  0.5345810000000  0.5388920000000  0.4928540000000 1.0
C      1  0.4496630000000  0.5611480000000  0.4383360000000 1.0
C      1  0.4253050000000  0.5688000000000  0.4503400000000 1.0
C      1  0.4165980000000  0.5507210000000  0.5479210000000 1.0
C      1  0.4284890000000  0.4251350000000  0.5283430000000 1.0
C      1  0.5704290000000  0.4983220000000  0.4909000000000 1.0
C      1  0.4745620000000  0.5520040000000  0.4293130000000 1.0
C      1  0.5705450000000  0.5634840000000  0.4535970000000 1.0
C      1  0.5299640000000  0.4518950000000  0.4889830000000 1.0
C      1  0.5694100000000  0.5614230000000  0.5234200000000 1.0
C      1  0.5397800000000  0.4492290000000  0.4084740000000 1.0
C      1  0.5093490000000  0.4549890000000  0.4720300000000 1.0
C      1  0.5480420000000  0.5350190000000  0.5177800000000 1.0
C      1  0.4950850000000  0.5944370000000  0.4463010000000 1.0
C      1  0.4109780000000  0.4484550000000  0.5303510000000 1.0
C      1  0.6103860000000  0.5253850000000  0.5245050000000 1.0
C      1  0.5087600000000  0.4005200000000  0.5259420000000 1.0
C      1  0.4964230000000  0.4032300000000  0.4364320000000 1.0
C      1  0.4793430000000  0.3972930000000  0.5268560000000 1.0
C      1  0.5100030000000  0.5777960000000  0.4257120000000 1.0
C      1  0.5312510000000  0.4745370000000  0.5056200000000 1.0
C      1  0.4360860000000  0.5734470000000  0.5490680000000 1.0
C      1  0.5444560000000  0.6077030000000  0.5055690000000 1.0
C      1  0.5537260000000  0.4063280000000  0.4968230000000 1.0
C      1  0.4301910000000  0.4422920000000  0.4503170000000 1.0
C      1  0.5684520000000  0.4763830000000  0.5753050000000 1.0
C      1  0.4701730000000  0.4078700000000  0.5530000000000 1.0
C      1  0.4374710000000  0.4154320000000  0.5024960000000 1.0
C      1  0.4642190000000  0.4036680000000  0.5022120000000 1.0
C      1  0.5095130000000  0.5090090000000  0.6068930000000 1.0
C      1  0.5499380000000  0.5237220000000  0.5889210000000 1.0
C      1  0.5075900000000  0.6049870000000  0.4694320000000 1.0
C      1  0.5416520000000  0.4697990000000  0.5336280000000 1.0
C      1  0.4206290000000  0.5237720000000  0.5602870000000 1.0
C      1  0.4858110000000  0.4469580000000  0.4120410000000 1.0
C      1  0.4728380000000  0.4864220000000  0.5673150000000 1.0
C      1  0.5137020000000  0.5762710000000  0.5762020000000 1.0
C      1  0.5660770000000  0.4935210000000  0.4176210000000 1.0
C      1  0.5791820000000  0.4246060000000  0.4953040000000 1.0
C      1  0.4159450000000  0.4688020000000  0.5532740000000 1.0
C      1  0.5900070000000  0.5376340000000  0.4291440000000 1.0
C      1  0.4111270000000  0.4980710000000  0.5485400000000 1.0
C      1  0.5228370000000  0.4844380000000  0.5985730000000 1.0
C      1  0.5820580000000  0.4419420000000  0.5192680000000 1.0
C      1  0.5588090000000  0.5083070000000  0.5149380000000 1.0
C      1  0.5058570000000  0.4331690000000  0.5842690000000 1.0
C      1  0.4777650000000  0.4672860000000  0.5888920000000 1.0
C      1  0.5561920000000  0.4276550000000  0.5605380000000 1.0
C      1  0.5794780000000  0.4353600000000  0.4688960000000 1.0
C      1  0.4765750000000  0.5480890000000  0.4847990000000 1.0
C      1  0.4313390000000  0.5128570000000  0.4203730000000 1.0
C      1  0.5488920000000  0.4944640000000  0.5886300000000 1.0
C      1  0.4784110000000  0.4244070000000  0.5762270000000 1.0
C      1  0.4988370000000  0.3964540000000  0.4633750000000 1.0
C      1  0.4514660000000  0.4670280000000  0.5204120000000 1.0
C      1  0.5101920000000  0.4774340000000  0.4565790000000 1.0
C      1  0.4487230000000  0.5447400000000  0.4817610000000 1.0
C      1  0.4768510000000  0.4230310000000  0.4267200000000 1.0
C      1  0.5988380000000  0.4698330000000  0.4759530000000 1.0
C      1  0.5117570000000  0.4549110000000  0.4002890000000 1.0
C      1  0.5142960000000  0.4718250000000  0.5451790000000 1.0
C      1  0.5624940000000  0.5243370000000  0.4184860000000 1.0
C      1  0.4034740000000  0.5506450000000  0.4569580000000 1.0
C      1  0.4877030000000  0.5675630000000  0.5034050000000 1.0
C      1  0.4051400000000  0.4527610000000  0.5026280000000 1.0
C      1  0.4679410000000  0.5014750000000  0.4585220000000 1.0
C      1  0.5059090000000  0.4606120000000  0.5947910000000 1.0
C      1  0.5223420000000  0.4035920000000  0.4486070000000 1.0
C      1  0.4356020000000  0.4572820000000  0.5701630000000 1.0
C      1  0.4616140000000  0.5061620000000  0.5858800000000 1.0
C      1  0.5195630000000  0.4824830000000  0.3931490000000 1.0
C      1  0.3981840000000  0.5487030000000  0.5238640000000 1.0
C      1  0.4863300000000  0.5427470000000  0.5563550000000 1.0
C      1  0.3994020000000  0.4900300000000  0.4693910000000 1.0
C      1  0.4982620000000  0.5439580000000  0.4467230000000 1.0
C      1  0.4548540000000  0.5521080000000  0.5886330000000 1.0
C      1  0.4872320000000  0.4402610000000  0.4783110000000 1.0
C      1  0.4806920000000  0.5465060000000  0.6024200000000 1.0
C      1  0.4817620000000  0.5176690000000  0.6047840000000 1.0
C      1  0.5608730000000  0.4430260000000  0.5355820000000 1.0
C      1  0.5126590000000  0.4254640000000  0.5412520000000 1.0
C      1  0.6112970000000  0.5134240000000  0.4980230000000 1.0
C      1  0.4653940000000  0.5046520000000  0.4857580000000 1.0
C      1  0.4406660000000  0.4936280000000  0.5202880000000 1.0
C      1  0.5272350000000  0.5453580000000  0.4454100000000 1.0
C      1  0.4834340000000  0.4115960000000  0.4814190000000 1.0
C      1  0.4351090000000  0.5838720000000  0.4987170000000 1.0
C      1  0.4139110000000  0.4929590000000  0.4303530000000 1.0
C      1  0.5589260000000  0.4503950000000  0.5758840000000 1.0
C      1  0.4450660000000  0.5147420000000  0.4464220000000 1.0
C      1  0.4724800000000  0.4933520000000  0.4011640000000 1.0
C      1  0.5079530000000  0.5561640000000  0.5972690000000 1.0
C      1  0.5257220000000  0.4967030000000  0.4422500000000 1.0
C      1  0.6021320000000  0.5098410000000  0.5489980000000 1.0
C      1  0.3996450000000  0.5263510000000  0.5050940000000 1.0
C      1  0.5431770000000  0.5195480000000  0.4475670000000 1.0
C      1  0.4658920000000  0.4728750000000  0.4535240000000 1.0
C      1  0.5083040000000  0.5248030000000  0.5510070000000 1.0
C      1  0.4997610000000  0.5332450000000  0.3956280000000 1.0
C      1  0.4415140000000  0.5268740000000  0.5802240000000 1.0
C      1  0.4678460000000  0.5397230000000  0.5388460000000 1.0
C      1  0.5116860000000  0.4960360000000  0.5018780000000 1.0
C      1  0.5385960000000  0.5660180000000  0.4848810000000 1.0
C      1  0.5220330000000  0.5404540000000  0.5323790000000 1.0
C      1  0.4023820000000  0.5245020000000  0.4740190000000 1.0
C      1  0.5438840000000  0.4226120000000  0.4538240000000 1.0
C      1  0.5889430000000  0.4581350000000  0.4539900000000 1.0
C      1  0.4694740000000  0.5929960000000  0.4605630000000 1.0
C      1  0.5342430000000  0.3913320000000  0.5125700000000 1.0
C      1  0.4530910000000  0.4297790000000  0.5443880000000 1.0
C      1  0.5429970000000  0.5684190000000  0.4557060000000 1.0
C      1  0.5766730000000  0.4862350000000  0.4440100000000 1.0
C      1  0.4971560000000  0.5862200000000  0.5394050000000 1.0
C      1  0.5693900000000  0.5425680000000  0.5746520000000 1.0
C      1  0.4326160000000  0.5249420000000  0.4696460000000 1.0
C      1  0.4478250000000  0.4570750000000  0.4935560000000 1.0
C      1  0.5858290000000  0.5261360000000  0.5617710000000 1.0
C      1  0.4434500000000  0.5881910000000  0.4699370000000 1.0
C      1  0.4676710000000  0.4552990000000  0.5416650000000 1.0
C      1  0.4753370000000  0.5889090000000  0.5194850000000 1.0
C      1  0.4997230000000  0.5040000000000  0.3964800000000 1.0
C      1  0.4445850000000  0.4647730000000  0.4357090000000 1.0
C      1  0.5152590000000  0.5200010000000  0.4853220000000 1.0
C      1  0.5656780000000  0.5043040000000  0.4633320000000 1.0
C      1  0.5256400000000  0.5331690000000  0.6016260000000 1.0
C      1  0.4628290000000  0.5078130000000  0.5118170000000 1.0
C      1  0.4268340000000  0.4382180000000  0.4851720000000 1.0
C      1  0.4462420000000  0.5889900000000  0.5250320000000 1.0
C      1  0.5949020000000  0.5487440000000  0.5124080000000 1.0
C      1  0.5389090000000  0.5708610000000  0.5641590000000 1.0
C      1  0.5923290000000  0.4668360000000  0.5224680000000 1.0
C      1  0.5944950000000  0.5494350000000  0.4553340000000 1.0
C      1  0.5273300000000  0.4229640000000  0.5668440000000 1.0
C      1  0.4885980000000  0.4971040000000  0.5193000000000 1.0
C      1  0.4490890000000  0.4234740000000  0.4382020000000 1.0
C      1  0.5419950000000  0.4279740000000  0.4810810000000 1.0
C      1  0.5959240000000  0.4842890000000  0.4974080000000 1.0
C      1  0.5594890000000  0.4924830000000  0.5387060000000 1.0
C      1  0.4579010000000  0.4454720000000  0.5836830000000 1.0
C      1  0.4724080000000  0.5383060000000  0.4027930000000 1.0
C      1  0.5479160000000  0.4772100000000  0.4017210000000 1.0
C      1  0.5100070000000  0.5652030000000  0.5225270000000 1.0
C      1  0.4102730000000  0.5004380000000  0.5177380000000 1.0
C      1  0.4553980000000  0.5737990000000  0.5700730000000 1.0
C      1  0.5538860000000  0.5820030000000  0.5043810000000 1.0
C      1  0.5853640000000  0.4834750000000  0.5465950000000 1.0
C      1  0.4075320000000  0.4723560000000  0.4482960000000 1.0
C      1  0.3990350000000  0.4797280000000  0.4957370000000 1.0
C      1  0.6007280000000  0.5375220000000  0.4857650000000 1.0
C      1  0.4970140000000  0.4948790000000  0.5475200000000 1.0
C      1  0.4647990000000  0.4671210000000  0.4133600000000 1.0
C      1  0.5175320000000  0.5577080000000  0.4056510000000 1.0
C      1  0.4675310000000  0.4581980000000  0.4766220000000 1.0
C      1  0.4972490000000  0.4507610000000  0.5393520000000 1.0
C      1  0.4930500000000  0.5299460000000  0.4702590000000 1.0
C      1  0.5440240000000  0.4457460000000  0.4369010000000 1.0
C      1  0.4346160000000  0.5554090000000  0.5043040000000 1.0
C      1  0.5256900000000  0.6091670000000  0.4884630000000 1.0
C      1  0.4859180000000  0.5751350000000  0.5632870000000 1.0
C      1  0.5368660000000  0.4713940000000  0.4484080000000 1.0
C      1  0.4498520000000  0.5367790000000  0.5218000000000 1.0
END
