TITL C-4164232-771-694 16.3330272049536 125000 -24782.3225254741 0 0 165 (C1) n - 1
REM
REM in /home/nfs/bkarasulu/CARBON/AIRSS/Generating-Clusters/ReaxFF-fromJPCA2015/Units_Real/with-SteepDescent/Only-C1/SD-CG/Try1-3A/FIRE-CG
REM
REM
REM
REM
REM
REM ./C.cell (11c1c37f851c82e70ff6c80c92926a4b)
REM
REM compiler GCC version 9.2.1 20190827 (Red Hat 9.2.1-1)
REM options -cpp -mtune=generic -march=x86-64 -g -O0 -fpre-include=/usr/include/finclude/math-vector-fortran.h
REM seed 425880637 2070234732 516461842 1248894156 -404279757 474882790 892263862 -1267597153 -160851589 522860751 383440885 982387052 271340158 279402245 -239539754 463922729 -995245150 272034486 53519167 515608521 -1041915205 -165716926 -1245509625 498851136 -1633807459 -2018182238 1102816533 -2016516893 -1636774760 -1684251489 -1003722757 -141740800 -1882870425
REM
CELL 1.54180   50.00000   50.00000   50.00000   90.00000   90.00000   90.00000
LATT -1
SFAC C  
C      1  0.5782600000000  0.4923780000000  0.5608400000000 1.0
C      1  0.5911140000000  0.4918040000000  0.4545070000000 1.0
C      1  0.5263610000000  0.4865270000000  0.5271960000000 1.0
C      1  0.5005630000000  0.5733660000000  0.4969300000000 1.0
C      1  0.4602160000000  0.5099850000000  0.5966480000000 1.0
C      1  0.4607980000000  0.5796610000000  0.5108750000000 1.0
C      1  0.5548430000000  0.5948730000000  0.5063230000000 1.0
C      1  0.6064540000000  0.4563050000000  0.4709090000000 1.0
C      1  0.5539400000000  0.5203450000000  0.4670210000000 1.0
C      1  0.5734800000000  0.4712450000000  0.4415670000000 1.0
C      1  0.5005270000000  0.4252800000000  0.4245190000000 1.0
C      1  0.5377140000000  0.5031980000000  0.5710440000000 1.0
C      1  0.4978970000000  0.6019650000000  0.4484520000000 1.0
C      1  0.4818320000000  0.3979410000000  0.5546650000000 1.0
C      1  0.4880480000000  0.4749800000000  0.4052710000000 1.0
C      1  0.5815390000000  0.5204250000000  0.4593840000000 1.0
C      1  0.4635400000000  0.5399930000000  0.4792650000000 1.0
C      1  0.5040750000000  0.5267120000000  0.5068070000000 1.0
C      1  0.5182190000000  0.5484330000000  0.5503950000000 1.0
C      1  0.5684470000000  0.5748050000000  0.5214990000000 1.0
C      1  0.5012280000000  0.5524980000000  0.3959600000000 1.0
C      1  0.4537240000000  0.5403270000000  0.5472810000000 1.0
C      1  0.5341720000000  0.4916500000000  0.4033360000000 1.0
C      1  0.4429480000000  0.6058230000000  0.4375380000000 1.0
C      1  0.4894570000000  0.5643630000000  0.4199240000000 1.0
C      1  0.5444430000000  0.5777020000000  0.4330510000000 1.0
C      1  0.5824190000000  0.5255200000000  0.5225190000000 1.0
C      1  0.4210000000000  0.5344800000000  0.5017080000000 1.0
C      1  0.4996070000000  0.4505330000000  0.4820280000000 1.0
C      1  0.4856960000000  0.5029960000000  0.6020640000000 1.0
C      1  0.4100110000000  0.5232320000000  0.4566440000000 1.0
C      1  0.4646290000000  0.3947620000000  0.4860570000000 1.0
C      1  0.4465020000000  0.5179850000000  0.4896360000000 1.0
C      1  0.5177530000000  0.4895460000000  0.5007430000000 1.0
C      1  0.4943160000000  0.4723980000000  0.5926440000000 1.0
C      1  0.4333990000000  0.4520790000000  0.5556530000000 1.0
C      1  0.4707800000000  0.4565620000000  0.4445860000000 1.0
C      1  0.5230670000000  0.5578160000000  0.4849480000000 1.0
C      1  0.4173150000000  0.4668490000000  0.5773150000000 1.0
C      1  0.5428690000000  0.4154040000000  0.5281500000000 1.0
C      1  0.5219870000000  0.5162880000000  0.3917800000000 1.0
C      1  0.6136630000000  0.4843270000000  0.5294180000000 1.0
C      1  0.4788680000000  0.4128080000000  0.4391800000000 1.0
C      1  0.4658110000000  0.5155260000000  0.4036320000000 1.0
C      1  0.5434420000000  0.4938420000000  0.4822060000000 1.0
C      1  0.4155810000000  0.4960230000000  0.5776250000000 1.0
C      1  0.5829560000000  0.4270850000000  0.5008860000000 1.0
C      1  0.5066300000000  0.5865600000000  0.5272820000000 1.0
C      1  0.4281120000000  0.5452690000000  0.5797060000000 1.0
C      1  0.5423400000000  0.4310360000000  0.4564680000000 1.0
C      1  0.5854840000000  0.5449360000000  0.4757290000000 1.0
C      1  0.5347520000000  0.4035150000000  0.4734490000000 1.0
C      1  0.5353180000000  0.5199210000000  0.5925350000000 1.0
C      1  0.5681570000000  0.5456510000000  0.5644890000000 1.0
C      1  0.5432050000000  0.5494150000000  0.4237680000000 1.0
C      1  0.5878270000000  0.5049270000000  0.5025370000000 1.0
C      1  0.4433170000000  0.5289860000000  0.4186200000000 1.0
C      1  0.4095570000000  0.5337440000000  0.5624210000000 1.0
C      1  0.4530930000000  0.4323440000000  0.4435450000000 1.0
C      1  0.4299540000000  0.4526020000000  0.6014650000000 1.0
C      1  0.4748270000000  0.5581890000000  0.4992580000000 1.0
C      1  0.5357190000000  0.5282770000000  0.4450090000000 1.0
C      1  0.5681130000000  0.5952190000000  0.4803770000000 1.0
C      1  0.4344440000000  0.5830620000000  0.5004830000000 1.0
C      1  0.5142450000000  0.4988530000000  0.4452500000000 1.0
C      1  0.5602590000000  0.5687190000000  0.5484860000000 1.0
C      1  0.4114870000000  0.4946770000000  0.5265330000000 1.0
C      1  0.5182430000000  0.4953730000000  0.5525550000000 1.0
C      1  0.6130490000000  0.4831670000000  0.4731720000000 1.0
C      1  0.4112990000000  0.4447800000000  0.5054870000000 1.0
C      1  0.4140270000000  0.5631440000000  0.5031500000000 1.0
C      1  0.5866340000000  0.4700220000000  0.5423820000000 1.0
C      1  0.4989720000000  0.5352170000000  0.5683390000000 1.0
C      1  0.4821230000000  0.4678670000000  0.5419600000000 1.0
C      1  0.4475860000000  0.5616040000000  0.5637000000000 1.0
C      1  0.4211900000000  0.5506610000000  0.4570920000000 1.0
C      1  0.6160990000000  0.5096510000000  0.5416850000000 1.0
C      1  0.5249890000000  0.5354000000000  0.5241730000000 1.0
C      1  0.5571280000000  0.4756310000000  0.4155980000000 1.0
C      1  0.5106270000000  0.4867260000000  0.4195170000000 1.0
C      1  0.3939550000000  0.4988180000000  0.5028340000000 1.0
C      1  0.4374010000000  0.5527520000000  0.4333230000000 1.0
C      1  0.5832930000000  0.5203280000000  0.5517650000000 1.0
C      1  0.4371740000000  0.4709230000000  0.4146580000000 1.0
C      1  0.4342180000000  0.5171150000000  0.5911210000000 1.0
C      1  0.4772870000000  0.4472280000000  0.4962410000000 1.0
C      1  0.4406830000000  0.4902760000000  0.5251010000000 1.0
C      1  0.6149520000000  0.4942830000000  0.5016600000000 1.0
C      1  0.5768470000000  0.4408800000000  0.5491250000000 1.0
C      1  0.5422820000000  0.4529680000000  0.4180510000000 1.0
C      1  0.5672560000000  0.4670890000000  0.5192290000000 1.0
C      1  0.4800280000000  0.5913440000000  0.4267370000000 1.0
C      1  0.4219920000000  0.5128290000000  0.4324900000000 1.0
C      1  0.5097210000000  0.3963230000000  0.4635720000000 1.0
C      1  0.4207490000000  0.5719090000000  0.4775390000000 1.0
C      1  0.4528810000000  0.4702610000000  0.5410880000000 1.0
C      1  0.4505040000000  0.5826920000000  0.4308070000000 1.0
C      1  0.4928640000000  0.5039430000000  0.4937760000000 1.0
C      1  0.4191950000000  0.4834280000000  0.4347920000000 1.0
C      1  0.4817590000000  0.3934610000000  0.4607080000000 1.0
C      1  0.4984920000000  0.5999310000000  0.4796070000000 1.0
C      1  0.5902940000000  0.4331090000000  0.4735570000000 1.0
C      1  0.4763770000000  0.5260940000000  0.5526110000000 1.0
C      1  0.5314790000000  0.5709500000000  0.5838100000000 1.0
C      1  0.5043300000000  0.5752610000000  0.5886880000000 1.0
C      1  0.5658270000000  0.5880390000000  0.4523550000000 1.0
C      1  0.5203290000000  0.5904860000000  0.4390510000000 1.0
C      1  0.4014100000000  0.4996840000000  0.4735510000000 1.0
C      1  0.4496440000000  0.4870770000000  0.4776680000000 1.0
C      1  0.5747350000000  0.4225280000000  0.5262320000000 1.0
C      1  0.4688510000000  0.5331770000000  0.5257730000000 1.0
C      1  0.4775900000000  0.5314180000000  0.4570180000000 1.0
C      1  0.5106950000000  0.3888640000000  0.5042580000000 1.0
C      1  0.4376920000000  0.4421640000000  0.4182140000000 1.0
C      1  0.4648870000000  0.5845800000000  0.5591090000000 1.0
C      1  0.5711750000000  0.5479500000000  0.5053830000000 1.0
C      1  0.4952910000000  0.4824110000000  0.5627410000000 1.0
C      1  0.5260900000000  0.6048610000000  0.5136990000000 1.0
C      1  0.4518630000000  0.4601030000000  0.4880390000000 1.0
C      1  0.3956210000000  0.5269110000000  0.5059430000000 1.0
C      1  0.5304140000000  0.5751140000000  0.5535140000000 1.0
C      1  0.5056940000000  0.5226690000000  0.5936550000000 1.0
C      1  0.5300130000000  0.4301470000000  0.4283000000000 1.0
C      1  0.4845550000000  0.4494680000000  0.4195030000000 1.0
C      1  0.5229700000000  0.4619820000000  0.5986470000000 1.0
C      1  0.5298080000000  0.4808420000000  0.4605610000000 1.0
C      1  0.4363720000000  0.4142600000000  0.5209530000000 1.0
C      1  0.5850530000000  0.5725840000000  0.4675630000000 1.0
C      1  0.4801640000000  0.5786570000000  0.5810010000000 1.0
C      1  0.5417120000000  0.5431680000000  0.5015520000000 1.0
C      1  0.5189000000000  0.5492880000000  0.4589660000000 1.0
C      1  0.4987110000000  0.4420600000000  0.5385040000000 1.0
C      1  0.4419400000000  0.4111260000000  0.4922780000000 1.0
C      1  0.5305450000000  0.5437900000000  0.3985350000000 1.0
C      1  0.4661980000000  0.4835000000000  0.4550670000000 1.0
C      1  0.5476130000000  0.4586330000000  0.5853230000000 1.0
C      1  0.5578440000000  0.4875580000000  0.5803140000000 1.0
C      1  0.4982030000000  0.4332610000000  0.5701600000000 1.0
C      1  0.4802950000000  0.4254550000000  0.5199090000000 1.0
C      1  0.4618970000000  0.4873890000000  0.4041920000000 1.0
C      1  0.4502680000000  0.4417960000000  0.5826860000000 1.0
C      1  0.5086690000000  0.4064230000000  0.5668660000000 1.0
C      1  0.4788380000000  0.4456300000000  0.5876350000000 1.0
C      1  0.4607860000000  0.5088080000000  0.5123850000000 1.0
C      1  0.5365670000000  0.4129460000000  0.5582150000000 1.0
C      1  0.5486350000000  0.5457310000000  0.5851990000000 1.0
C      1  0.5365650000000  0.3971870000000  0.5024330000000 1.0
C      1  0.4931980000000  0.5505000000000  0.4456320000000 1.0
C      1  0.4612410000000  0.4131820000000  0.5397470000000 1.0
C      1  0.4835430000000  0.3957790000000  0.5081680000000 1.0
C      1  0.4928190000000  0.5248260000000  0.3935330000000 1.0
C      1  0.5542180000000  0.4347640000000  0.5666140000000 1.0
C      1  0.4777740000000  0.5890470000000  0.5326230000000 1.0
C      1  0.5404860000000  0.4631160000000  0.5259400000000 1.0
C      1  0.5221150000000  0.4538690000000  0.4676940000000 1.0
C      1  0.4371480000000  0.4350790000000  0.4738090000000 1.0
C      1  0.5692750000000  0.4451480000000  0.4547480000000 1.0
C      1  0.4075390000000  0.4749320000000  0.4604180000000 1.0
C      1  0.4037070000000  0.5075550000000  0.5532860000000 1.0
C      1  0.5262230000000  0.4403830000000  0.5270050000000 1.0
C      1  0.5668140000000  0.4852110000000  0.4983350000000 1.0
C      1  0.4199750000000  0.4358460000000  0.5304950000000 1.0
C      1  0.5133980000000  0.6179140000000  0.4921420000000 1.0
C      1  0.4885450000000  0.5053760000000  0.4597440000000 1.0
C      1  0.4107240000000  0.4497640000000  0.4773840000000 1.0
END
