TITL C-4164240-4114-741 38.9099468500133 125000 -28254.6729505387 0 0 190 (C1) n - 1
REM
REM in /home/nfs/bkarasulu/CARBON/AIRSS/Generating-Clusters/ReaxFF-fromJPCA2015/Units_Real/with-SteepDescent/Only-C1/SD-CG/Try1-3A/FIRE-CG
REM
REM
REM
REM
REM
REM ./C.cell (11c1c37f851c82e70ff6c80c92926a4b)
REM
REM compiler GCC version 9.2.1 20190827 (Red Hat 9.2.1-1)
REM options -cpp -mtune=generic -march=x86-64 -g -O0 -fpre-include=/usr/include/finclude/math-vector-fortran.h
REM seed -1563736884 1287793878 -2001173992 1405137514 1389917066 -1048504241 715095337 -1823913677 229453952 -521373959 1002739115 -1995938018 -485893085 335411630 -266385654 312734663 736923257 759388358 -1692775758 1929667069 212214473 -67867073 887856978 230515001 578856922 2085244640 543202111 775135905 267856572 991259821 -1362184745 -1200623703 -1525092991
REM
CELL 1.54180   50.00000   50.00000   50.00000   90.00000   90.00000   90.00000
LATT -1
SFAC C  
C      1  0.4522960000000  0.4804650000000  0.4983940000000 1.0
C      1  0.4280620000000  0.5743100000000  0.4570590000000 1.0
C      1  0.5958790000000  0.5363230000000  0.4479360000000 1.0
C      1  0.4244640000000  0.4696670000000  0.4818840000000 1.0
C      1  0.4789290000000  0.3845270000000  0.5151280000000 1.0
C      1  0.5163480000000  0.4198700000000  0.4328260000000 1.0
C      1  0.6039030000000  0.4492190000000  0.5674320000000 1.0
C      1  0.4891660000000  0.4727810000000  0.5821950000000 1.0
C      1  0.4922660000000  0.6057010000000  0.4739180000000 1.0
C      1  0.6085840000000  0.4695070000000  0.5485700000000 1.0
C      1  0.4575870000000  0.3943750000000  0.4729780000000 1.0
C      1  0.5592740000000  0.4189620000000  0.4955060000000 1.0
C      1  0.4206790000000  0.5259280000000  0.5733840000000 1.0
C      1  0.5318390000000  0.5062900000000  0.4559410000000 1.0
C      1  0.4488490000000  0.5927140000000  0.4523740000000 1.0
C      1  0.3999740000000  0.5502530000000  0.5038280000000 1.0
C      1  0.5011780000000  0.4637630000000  0.5079860000000 1.0
C      1  0.5019620000000  0.4959700000000  0.4550720000000 1.0
C      1  0.5833250000000  0.4607120000000  0.5804060000000 1.0
C      1  0.5352510000000  0.4405340000000  0.4239110000000 1.0
C      1  0.5486080000000  0.5473330000000  0.4753770000000 1.0
C      1  0.4770070000000  0.4620910000000  0.4613810000000 1.0
C      1  0.4028690000000  0.4605930000000  0.5620330000000 1.0
C      1  0.4586600000000  0.4792980000000  0.4477980000000 1.0
C      1  0.4685390000000  0.4528270000000  0.5741110000000 1.0
C      1  0.4717690000000  0.4333610000000  0.4963290000000 1.0
C      1  0.4308380000000  0.4817090000000  0.4558260000000 1.0
C      1  0.5391270000000  0.4810760000000  0.5334440000000 1.0
C      1  0.5663110000000  0.4463770000000  0.4906700000000 1.0
C      1  0.4012190000000  0.5175460000000  0.5490770000000 1.0
C      1  0.4769400000000  0.5240780000000  0.6073870000000 1.0
C      1  0.4167390000000  0.4385950000000  0.5765220000000 1.0
C      1  0.4636440000000  0.5994240000000  0.4756810000000 1.0
C      1  0.4914590000000  0.4932740000000  0.5375320000000 1.0
C      1  0.5211220000000  0.6124430000000  0.5481130000000 1.0
C      1  0.4072510000000  0.5045980000000  0.5104400000000 1.0
C      1  0.4816260000000  0.4362240000000  0.4175660000000 1.0
C      1  0.5128680000000  0.4881580000000  0.5199440000000 1.0
C      1  0.4988240000000  0.5542740000000  0.4796030000000 1.0
C      1  0.5408710000000  0.5919260000000  0.5508820000000 1.0
C      1  0.5049380000000  0.4110080000000  0.4648080000000 1.0
C      1  0.4252390000000  0.5274310000000  0.5061580000000 1.0
C      1  0.4200980000000  0.5524920000000  0.4532720000000 1.0
C      1  0.4300130000000  0.4772390000000  0.5732690000000 1.0
C      1  0.4265090000000  0.4291310000000  0.4511970000000 1.0
C      1  0.4762360000000  0.5006180000000  0.4401780000000 1.0
C      1  0.4130820000000  0.5009630000000  0.4441650000000 1.0
C      1  0.5306360000000  0.5346820000000  0.4521030000000 1.0
C      1  0.5814270000000  0.4322680000000  0.5728040000000 1.0
C      1  0.5452720000000  0.5133810000000  0.4054040000000 1.0
C      1  0.5008660000000  0.5841200000000  0.5213720000000 1.0
C      1  0.4718370000000  0.6045650000000  0.5481860000000 1.0
C      1  0.4539650000000  0.3908130000000  0.5019200000000 1.0
C      1  0.5003170000000  0.5296430000000  0.4149490000000 1.0
C      1  0.4108980000000  0.5723250000000  0.5206230000000 1.0
C      1  0.4537370000000  0.4177700000000  0.5410220000000 1.0
C      1  0.4398810000000  0.5484300000000  0.5783450000000 1.0
C      1  0.4432130000000  0.5362190000000  0.4577450000000 1.0
C      1  0.4929530000000  0.4101580000000  0.5536400000000 1.0
C      1  0.4751510000000  0.4615640000000  0.4910650000000 1.0
C      1  0.5653290000000  0.4034450000000  0.4673660000000 1.0
C      1  0.4638600000000  0.4902610000000  0.5295950000000 1.0
C      1  0.4985260000000  0.4944010000000  0.5650550000000 1.0
C      1  0.4636420000000  0.4224030000000  0.4321290000000 1.0
C      1  0.5120160000000  0.5732660000000  0.4964820000000 1.0
C      1  0.4988240000000  0.5559840000000  0.3835320000000 1.0
C      1  0.4233090000000  0.4393390000000  0.4842340000000 1.0
C      1  0.4527960000000  0.4631820000000  0.4025560000000 1.0
C      1  0.5061490000000  0.6165140000000  0.4973890000000 1.0
C      1  0.4977860000000  0.5284060000000  0.4928210000000 1.0
C      1  0.4260390000000  0.4477970000000  0.4307220000000 1.0
C      1  0.5036040000000  0.5437760000000  0.5372500000000 1.0
C      1  0.4828430000000  0.5462420000000  0.4303860000000 1.0
C      1  0.4619670000000  0.5255360000000  0.4357560000000 1.0
C      1  0.4420240000000  0.4529870000000  0.5859320000000 1.0
C      1  0.5127340000000  0.5751370000000  0.4026220000000 1.0
C      1  0.5447590000000  0.4977430000000  0.5548210000000 1.0
C      1  0.5798010000000  0.5593630000000  0.4417480000000 1.0
C      1  0.4435610000000  0.5241850000000  0.4827120000000 1.0
C      1  0.4459550000000  0.4077660000000  0.4484340000000 1.0
C      1  0.5789910000000  0.4935970000000  0.5329250000000 1.0
C      1  0.5023350000000  0.5710150000000  0.5459800000000 1.0
C      1  0.4295210000000  0.5046700000000  0.5902610000000 1.0
C      1  0.4345590000000  0.5723930000000  0.5627460000000 1.0
C      1  0.4537120000000  0.5839550000000  0.5003780000000 1.0
C      1  0.5505220000000  0.4581470000000  0.5462700000000 1.0
C      1  0.4264790000000  0.4686090000000  0.4110950000000 1.0
C      1  0.5318180000000  0.4186060000000  0.5044650000000 1.0
C      1  0.5390480000000  0.4845490000000  0.3968470000000 1.0
C      1  0.4604190000000  0.5033380000000  0.4849590000000 1.0
C      1  0.5537590000000  0.4990640000000  0.6036860000000 1.0
C      1  0.5627770000000  0.5397400000000  0.5361680000000 1.0
C      1  0.4676750000000  0.5619930000000  0.5096650000000 1.0
C      1  0.5706410000000  0.4750900000000  0.6044910000000 1.0
C      1  0.5487110000000  0.4589090000000  0.6120940000000 1.0
C      1  0.5576080000000  0.4197170000000  0.5619960000000 1.0
C      1  0.5658030000000  0.5683120000000  0.4643380000000 1.0
C      1  0.5592200000000  0.5439920000000  0.5670420000000 1.0
C      1  0.5997520000000  0.4704470000000  0.4878260000000 1.0
C      1  0.4373120000000  0.5315200000000  0.5327600000000 1.0
C      1  0.4661070000000  0.5921080000000  0.4258700000000 1.0
C      1  0.5073690000000  0.5174160000000  0.6104580000000 1.0
C      1  0.4865580000000  0.5074570000000  0.4786850000000 1.0
C      1  0.5232000000000  0.5323220000000  0.5914520000000 1.0
C      1  0.5170260000000  0.5604610000000  0.5870930000000 1.0
C      1  0.5232230000000  0.5157310000000  0.5057660000000 1.0
C      1  0.3968780000000  0.5173410000000  0.4635200000000 1.0
C      1  0.5250550000000  0.4943460000000  0.6111940000000 1.0
C      1  0.4242200000000  0.5557050000000  0.5416310000000 1.0
C      1  0.4733140000000  0.4782170000000  0.3919240000000 1.0
C      1  0.4879400000000  0.5678270000000  0.5874660000000 1.0
C      1  0.5653270000000  0.5554640000000  0.4164980000000 1.0
C      1  0.5419340000000  0.3860180000000  0.4629980000000 1.0
C      1  0.5477170000000  0.4661050000000  0.4813450000000 1.0
C      1  0.5538670000000  0.4043770000000  0.5376280000000 1.0
C      1  0.5362110000000  0.4018230000000  0.4399920000000 1.0
C      1  0.4672550000000  0.5482240000000  0.5925360000000 1.0
C      1  0.4638520000000  0.5670950000000  0.4125900000000 1.0
C      1  0.4242510000000  0.4991210000000  0.4169410000000 1.0
C      1  0.4680300000000  0.5078550000000  0.3907880000000 1.0
C      1  0.3953430000000  0.4634310000000  0.5180230000000 1.0
C      1  0.5038720000000  0.4675090000000  0.4587310000000 1.0
C      1  0.4963850000000  0.5919930000000  0.4235040000000 1.0
C      1  0.5712030000000  0.4209310000000  0.5211430000000 1.0
C      1  0.5519270000000  0.5964790000000  0.5237960000000 1.0
C      1  0.5162850000000  0.3854760000000  0.4784070000000 1.0
C      1  0.5508070000000  0.5157760000000  0.4945900000000 1.0
C      1  0.5536010000000  0.4938530000000  0.4727190000000 1.0
C      1  0.4817380000000  0.5405850000000  0.5183950000000 1.0
C      1  0.5667060000000  0.5227220000000  0.5878250000000 1.0
C      1  0.5985110000000  0.5245000000000  0.4747040000000 1.0
C      1  0.4376270000000  0.4118940000000  0.5169930000000 1.0
C      1  0.5279300000000  0.5301430000000  0.4223140000000 1.0
C      1  0.4652170000000  0.4451970000000  0.5455840000000 1.0
C      1  0.5921600000000  0.4681360000000  0.5223110000000 1.0
C      1  0.5300360000000  0.5395210000000  0.5230850000000 1.0
C      1  0.5861550000000  0.5122980000000  0.5721520000000 1.0
C      1  0.5181190000000  0.4289900000000  0.4831820000000 1.0
C      1  0.5082300000000  0.3834780000000  0.5062170000000 1.0
C      1  0.5721130000000  0.4478750000000  0.5306980000000 1.0
C      1  0.5750840000000  0.5831900000000  0.5121560000000 1.0
C      1  0.5350910000000  0.5571590000000  0.4994970000000 1.0
C      1  0.5015640000000  0.5592320000000  0.4518060000000 1.0
C      1  0.4492490000000  0.4815830000000  0.5518600000000 1.0
C      1  0.5227360000000  0.4618220000000  0.4077840000000 1.0
C      1  0.5099970000000  0.4690860000000  0.6027380000000 1.0
C      1  0.5241980000000  0.5100630000000  0.5686240000000 1.0
C      1  0.5833570000000  0.5553820000000  0.5183790000000 1.0
C      1  0.4320260000000  0.5923040000000  0.5190520000000 1.0
C      1  0.4961210000000  0.6130540000000  0.5283050000000 1.0
C      1  0.5531070000000  0.6029770000000  0.4818870000000 1.0
C      1  0.5886180000000  0.4946930000000  0.4692990000000 1.0
C      1  0.4866540000000  0.5871830000000  0.5657170000000 1.0
C      1  0.4939550000000  0.4581770000000  0.4036960000000 1.0
C      1  0.4910150000000  0.5274300000000  0.3873250000000 1.0
C      1  0.3902540000000  0.5361920000000  0.5294880000000 1.0
C      1  0.4497360000000  0.5102110000000  0.5460070000000 1.0
C      1  0.4777610000000  0.4147670000000  0.4756450000000 1.0
C      1  0.4453240000000  0.4315610000000  0.5004480000000 1.0
C      1  0.4540060000000  0.5103540000000  0.6020340000000 1.0
C      1  0.4008960000000  0.5450190000000  0.4705450000000 1.0
C      1  0.5350670000000  0.6120580000000  0.5008760000000 1.0
C      1  0.5911180000000  0.5157620000000  0.4277870000000 1.0
C      1  0.4450570000000  0.5951390000000  0.5454590000000 1.0
C      1  0.5287210000000  0.4478690000000  0.5957020000000 1.0
C      1  0.3951630000000  0.4718640000000  0.4897500000000 1.0
C      1  0.5704260000000  0.5269080000000  0.4098470000000 1.0
C      1  0.5915050000000  0.4895720000000  0.4404200000000 1.0
C      1  0.5641040000000  0.4422160000000  0.4332150000000 1.0
C      1  0.4036290000000  0.4906210000000  0.5350580000000 1.0
C      1  0.6008030000000  0.4979310000000  0.5535700000000 1.0
C      1  0.4080780000000  0.4390530000000  0.5105300000000 1.0
C      1  0.5765530000000  0.5878590000000  0.4826520000000 1.0
C      1  0.5769050000000  0.4265380000000  0.4542480000000 1.0
C      1  0.5196910000000  0.4570460000000  0.4806220000000 1.0
C      1  0.5036620000000  0.5891590000000  0.4512010000000 1.0
C      1  0.5352930000000  0.4392330000000  0.5654800000000 1.0
C      1  0.5811000000000  0.4654880000000  0.4253120000000 1.0
C      1  0.5080620000000  0.4311670000000  0.5501750000000 1.0
C      1  0.5912770000000  0.4431920000000  0.4756120000000 1.0
C      1  0.5922590000000  0.5399940000000  0.4969080000000 1.0
C      1  0.4470670000000  0.5146280000000  0.4093850000000 1.0
C      1  0.3906670000000  0.5005420000000  0.4868450000000 1.0
C      1  0.5662970000000  0.5154000000000  0.5195070000000 1.0
C      1  0.5400620000000  0.5655010000000  0.5702530000000 1.0
C      1  0.5280210000000  0.3980590000000  0.5235650000000 1.0
C      1  0.5633010000000  0.4746130000000  0.4056590000000 1.0
C      1  0.4722720000000  0.3946730000000  0.5424930000000 1.0
C      1  0.5401790000000  0.5686840000000  0.4091490000000 1.0
C      1  0.4910510000000  0.4447040000000  0.5294760000000 1.0
END
