TITL C-4164246-3563-353 26.6953543368735 125000 -17884.8121497018 0 0 121 (C1) n - 1
REM
REM in /home/nfs/bkarasulu/CARBON/AIRSS/Generating-Clusters/ReaxFF-fromJPCA2015/Units_Real/with-SteepDescent/Only-C1/SD-CG/Try1-3A/FIRE-CG
REM
REM
REM
REM
REM
REM ./C.cell (11c1c37f851c82e70ff6c80c92926a4b)
REM
REM compiler GCC version 9.2.1 20190827 (Red Hat 9.2.1-1)
REM options -cpp -mtune=generic -march=x86-64 -g -O0 -fpre-include=/usr/include/finclude/math-vector-fortran.h
REM seed 1848027924 444532582 -1286690354 -955711856 -1412160196 647949713 828234204 2116299199 1224726416 665207420 714166008 -989301842 -1673466344 1950595736 -2092671735 347160231 -647848801 -1304451907 -1604698039 1494508816 -468129881 1741542170 -939961936 198390917 1079852730 -858353823 -1806915040 765024884 844110811 -642559504 1469644411 1670985068 1106238882
REM
CELL 1.54180   50.00000   50.00000   50.00000   90.00000   90.00000   90.00000
LATT -1
SFAC C  
C      1  0.5285360000000  0.4866480000000  0.5823640000000 1.0
C      1  0.4972140000000  0.4182890000000  0.4195540000000 1.0
C      1  0.5501110000000  0.5570740000000  0.5644650000000 1.0
C      1  0.5728600000000  0.5366530000000  0.5226300000000 1.0
C      1  0.5339180000000  0.5805030000000  0.5463510000000 1.0
C      1  0.4830220000000  0.4884740000000  0.4769710000000 1.0
C      1  0.4166810000000  0.4449150000000  0.4967980000000 1.0
C      1  0.4879840000000  0.4327840000000  0.3983940000000 1.0
C      1  0.4471000000000  0.5834460000000  0.5128330000000 1.0
C      1  0.5458950000000  0.4004240000000  0.4862570000000 1.0
C      1  0.4632630000000  0.5285940000000  0.4229360000000 1.0
C      1  0.4581830000000  0.4742090000000  0.5414770000000 1.0
C      1  0.4924170000000  0.5560760000000  0.5866860000000 1.0
C      1  0.4351410000000  0.5736510000000  0.5566940000000 1.0
C      1  0.4725750000000  0.4502720000000  0.4486000000000 1.0
C      1  0.5007830000000  0.4069140000000  0.5573540000000 1.0
C      1  0.4119890000000  0.4978560000000  0.4807510000000 1.0
C      1  0.5611000000000  0.4438850000000  0.4899570000000 1.0
C      1  0.4230310000000  0.4512260000000  0.4556210000000 1.0
C      1  0.4537130000000  0.4696240000000  0.5910970000000 1.0
C      1  0.4918750000000  0.4474130000000  0.4979220000000 1.0
C      1  0.5499190000000  0.4507800000000  0.5484260000000 1.0
C      1  0.5493860000000  0.5233120000000  0.4907170000000 1.0
C      1  0.4660420000000  0.5638630000000  0.5836030000000 1.0
C      1  0.5552720000000  0.4202720000000  0.5070990000000 1.0
C      1  0.4817870000000  0.5956490000000  0.5474110000000 1.0
C      1  0.5573980000000  0.4281310000000  0.4420940000000 1.0
C      1  0.5559670000000  0.4914480000000  0.4203270000000 1.0
C      1  0.4298130000000  0.4294930000000  0.4750340000000 1.0
C      1  0.5042580000000  0.4516810000000  0.5788560000000 1.0
C      1  0.5175920000000  0.4637180000000  0.4249490000000 1.0
C      1  0.4765880000000  0.4209600000000  0.4550880000000 1.0
C      1  0.4861790000000  0.5907680000000  0.4876690000000 1.0
C      1  0.4322400000000  0.4877890000000  0.5420240000000 1.0
C      1  0.4514550000000  0.4281000000000  0.5257130000000 1.0
C      1  0.4564420000000  0.4166990000000  0.4771780000000 1.0
C      1  0.4256650000000  0.4412820000000  0.5241740000000 1.0
C      1  0.4634880000000  0.5492460000000  0.4666770000000 1.0
C      1  0.4900210000000  0.5112860000000  0.5258810000000 1.0
C      1  0.4343580000000  0.5419130000000  0.4844880000000 1.0
C      1  0.5274460000000  0.5388350000000  0.4168870000000 1.0
C      1  0.5696360000000  0.4674790000000  0.5340350000000 1.0
C      1  0.5425570000000  0.4262080000000  0.5326190000000 1.0
C      1  0.5852820000000  0.4624780000000  0.4947360000000 1.0
C      1  0.4823780000000  0.5382780000000  0.5351150000000 1.0
C      1  0.5785550000000  0.5256830000000  0.4829540000000 1.0
C      1  0.5542810000000  0.5098660000000  0.5522310000000 1.0
C      1  0.4475970000000  0.4845320000000  0.4253790000000 1.0
C      1  0.5834710000000  0.4473850000000  0.4448510000000 1.0
C      1  0.4537220000000  0.5347490000000  0.5419360000000 1.0
C      1  0.4794850000000  0.4600820000000  0.4762700000000 1.0
C      1  0.5615070000000  0.5885020000000  0.4871730000000 1.0
C      1  0.5410490000000  0.4531520000000  0.4706160000000 1.0
C      1  0.4001400000000  0.5055840000000  0.5078500000000 1.0
C      1  0.5656020000000  0.5370850000000  0.5506180000000 1.0
C      1  0.5541120000000  0.5578730000000  0.5134420000000 1.0
C      1  0.4793150000000  0.5840820000000  0.5167840000000 1.0
C      1  0.5044340000000  0.4195890000000  0.4466540000000 1.0
C      1  0.4892560000000  0.4603270000000  0.4189750000000 1.0
C      1  0.5463590000000  0.5093790000000  0.5793310000000 1.0
C      1  0.5738780000000  0.5260910000000  0.4537880000000 1.0
C      1  0.4691710000000  0.5526270000000  0.4368990000000 1.0
C      1  0.5319550000000  0.4601650000000  0.5704920000000 1.0
C      1  0.4728220000000  0.4852060000000  0.4115550000000 1.0
C      1  0.5409990000000  0.4987550000000  0.5033520000000 1.0
C      1  0.5846210000000  0.4839910000000  0.5156700000000 1.0
C      1  0.5169090000000  0.4118960000000  0.5331170000000 1.0
C      1  0.4468620000000  0.5105010000000  0.4427720000000 1.0
C      1  0.4285330000000  0.5684340000000  0.5285330000000 1.0
C      1  0.4530630000000  0.4887960000000  0.6079150000000 1.0
C      1  0.4273440000000  0.5191380000000  0.4681930000000 1.0
C      1  0.4376290000000  0.5729580000000  0.4877360000000 1.0
C      1  0.4967530000000  0.4159690000000  0.5059810000000 1.0
C      1  0.4970620000000  0.5591300000000  0.5213290000000 1.0
C      1  0.4837110000000  0.5122870000000  0.4099270000000 1.0
C      1  0.5911560000000  0.4600740000000  0.4677670000000 1.0
C      1  0.5193900000000  0.4035450000000  0.4924910000000 1.0
C      1  0.5300140000000  0.5433070000000  0.4806360000000 1.0
C      1  0.4705940000000  0.5067230000000  0.4601940000000 1.0
C      1  0.5289680000000  0.4872780000000  0.4125550000000 1.0
C      1  0.5080300000000  0.5949750000000  0.5571140000000 1.0
C      1  0.5419010000000  0.5391660000000  0.5852290000000 1.0
C      1  0.5262940000000  0.5596560000000  0.5251080000000 1.0
C      1  0.4870530000000  0.4337670000000  0.5624670000000 1.0
C      1  0.4972910000000  0.4920930000000  0.5467290000000 1.0
C      1  0.5162640000000  0.5493590000000  0.5878440000000 1.0
C      1  0.5157460000000  0.5781430000000  0.4491660000000 1.0
C      1  0.5529760000000  0.5048030000000  0.4445740000000 1.0
C      1  0.5382450000000  0.5618940000000  0.4313250000000 1.0
C      1  0.4306340000000  0.4584200000000  0.5726150000000 1.0
C      1  0.5695850000000  0.5839270000000  0.5142710000000 1.0
C      1  0.4656670000000  0.4139550000000  0.5041970000000 1.0
C      1  0.5103870000000  0.4890170000000  0.4674790000000 1.0
C      1  0.5236840000000  0.5082940000000  0.4525880000000 1.0
C      1  0.5361960000000  0.5992360000000  0.4936270000000 1.0
C      1  0.4450220000000  0.4592210000000  0.4383770000000 1.0
C      1  0.5179060000000  0.4769320000000  0.5329320000000 1.0
C      1  0.4599290000000  0.5873800000000  0.5658960000000 1.0
C      1  0.5275960000000  0.4779350000000  0.4870570000000 1.0
C      1  0.4336050000000  0.5388000000000  0.5196970000000 1.0
C      1  0.5121820000000  0.5906160000000  0.4751340000000 1.0
C      1  0.5854330000000  0.5138230000000  0.5085980000000 1.0
C      1  0.5117560000000  0.4650440000000  0.5080320000000 1.0
C      1  0.4183320000000  0.4602960000000  0.5470420000000 1.0
C      1  0.5392970000000  0.4962060000000  0.5304510000000 1.0
C      1  0.4197360000000  0.5129890000000  0.5283950000000 1.0
C      1  0.5099320000000  0.5337930000000  0.4601050000000 1.0
C      1  0.4632770000000  0.5785690000000  0.4741600000000 1.0
C      1  0.5451810000000  0.5982160000000  0.5229840000000 1.0
C      1  0.4976680000000  0.5582890000000  0.4393110000000 1.0
C      1  0.5595070000000  0.5471800000000  0.4425180000000 1.0
C      1  0.4132780000000  0.4681510000000  0.4778330000000 1.0
C      1  0.5134210000000  0.5152880000000  0.4096430000000 1.0
C      1  0.4996310000000  0.4939350000000  0.5760960000000 1.0
C      1  0.5574860000000  0.4042570000000  0.4572790000000 1.0
C      1  0.5286810000000  0.4418970000000  0.4459580000000 1.0
C      1  0.4807490000000  0.5273560000000  0.4764110000000 1.0
C      1  0.4856990000000  0.4721230000000  0.5892150000000 1.0
C      1  0.4672230000000  0.4448660000000  0.5443100000000 1.0
C      1  0.4825400000000  0.5085890000000  0.4987690000000 1.0
C      1  0.4461030000000  0.5482000000000  0.5669890000000 1.0
END
