TITL C-4164244-2836-551 16.3995857178462 125000 -30143.3273029633 0 0 200 (C1) n - 1
REM
REM in /home/nfs/bkarasulu/CARBON/AIRSS/Generating-Clusters/ReaxFF-fromJPCA2015/Units_Real/with-SteepDescent/Only-C1/SD-CG/Try1-3A/FIRE-CG
REM
REM
REM
REM
REM
REM ./C.cell (11c1c37f851c82e70ff6c80c92926a4b)
REM
REM compiler GCC version 9.2.1 20190827 (Red Hat 9.2.1-1)
REM options -cpp -mtune=generic -march=x86-64 -g -O0 -fpre-include=/usr/include/finclude/math-vector-fortran.h
REM seed -1495711701 1115308242 -1092617170 -1134516176 384611322 192996772 1451415321 75864140 -333175648 -1225394854 853399011 -351966127 968468872 -1809737000 1934400902 355060020 1364258011 1557043209 1400037516 380770651 1645013621 77121039 1385277258 -1227896779 -91591330 -1790778218 1072596728 -1232111267 1534291348 1450859095 -1978109405 1659923531 1228860451
REM
CELL 1.54180   50.00000   50.00000   50.00000   90.00000   90.00000   90.00000
LATT -1
SFAC C  
C      1  0.5242600000000  0.3879590000000  0.5013430000000 1.0
C      1  0.5871840000000  0.4580910000000  0.5699260000000 1.0
C      1  0.5192880000000  0.5345810000000  0.5866960000000 1.0
C      1  0.4201710000000  0.4393160000000  0.4551300000000 1.0
C      1  0.5193750000000  0.4280990000000  0.5118900000000 1.0
C      1  0.5207460000000  0.4318630000000  0.5777250000000 1.0
C      1  0.6040690000000  0.5042480000000  0.5478850000000 1.0
C      1  0.4284750000000  0.4510850000000  0.5670150000000 1.0
C      1  0.5624650000000  0.5951640000000  0.4668820000000 1.0
C      1  0.4409170000000  0.4099710000000  0.4974760000000 1.0
C      1  0.5790020000000  0.5416390000000  0.4257550000000 1.0
C      1  0.5102770000000  0.4024920000000  0.5241730000000 1.0
C      1  0.4612660000000  0.4717940000000  0.6022000000000 1.0
C      1  0.4343670000000  0.5410200000000  0.5495510000000 1.0
C      1  0.5378850000000  0.5126450000000  0.4254800000000 1.0
C      1  0.5313720000000  0.4436210000000  0.4581630000000 1.0
C      1  0.4583920000000  0.5698390000000  0.5703090000000 1.0
C      1  0.3856050000000  0.4955510000000  0.4769810000000 1.0
C      1  0.5096040000000  0.4136360000000  0.5581810000000 1.0
C      1  0.4020150000000  0.5334520000000  0.4986480000000 1.0
C      1  0.4926630000000  0.3947180000000  0.4410290000000 1.0
C      1  0.4880220000000  0.5749650000000  0.4070780000000 1.0
C      1  0.5834310000000  0.5478710000000  0.4847160000000 1.0
C      1  0.3868850000000  0.5177990000000  0.5193560000000 1.0
C      1  0.5265720000000  0.5324160000000  0.3833010000000 1.0
C      1  0.4381880000000  0.5704980000000  0.5487630000000 1.0
C      1  0.5291040000000  0.4109660000000  0.4278750000000 1.0
C      1  0.4823140000000  0.5865200000000  0.5638240000000 1.0
C      1  0.5636270000000  0.4329540000000  0.4938780000000 1.0
C      1  0.5099200000000  0.5829430000000  0.5719610000000 1.0
C      1  0.5634210000000  0.4038960000000  0.5240110000000 1.0
C      1  0.3957590000000  0.4848230000000  0.5533180000000 1.0
C      1  0.5691310000000  0.4451690000000  0.4334950000000 1.0
C      1  0.5282990000000  0.5926280000000  0.4296880000000 1.0
C      1  0.6048810000000  0.5972640000000  0.5238320000000 1.0
C      1  0.4667850000000  0.4333950000000  0.5626590000000 1.0
C      1  0.4819270000000  0.5455310000000  0.5381500000000 1.0
C      1  0.4723860000000  0.5948240000000  0.4792380000000 1.0
C      1  0.4106070000000  0.4762850000000  0.4352640000000 1.0
C      1  0.4816680000000  0.4086050000000  0.5569920000000 1.0
C      1  0.5765520000000  0.5190250000000  0.4068300000000 1.0
C      1  0.5589230000000  0.5290500000000  0.4419790000000 1.0
C      1  0.5101730000000  0.5233630000000  0.4307110000000 1.0
C      1  0.4439500000000  0.4027440000000  0.4561070000000 1.0
C      1  0.5484930000000  0.4654100000000  0.4677890000000 1.0
C      1  0.5002330000000  0.5021590000000  0.5224470000000 1.0
C      1  0.4568750000000  0.4981990000000  0.5486890000000 1.0
C      1  0.4567740000000  0.5483240000000  0.5908510000000 1.0
C      1  0.5180590000000  0.5781060000000  0.4056660000000 1.0
C      1  0.4179920000000  0.4782880000000  0.5712440000000 1.0
C      1  0.4569370000000  0.5258480000000  0.5047990000000 1.0
C      1  0.4656030000000  0.3973870000000  0.4909780000000 1.0
C      1  0.3817380000000  0.4923970000000  0.5068030000000 1.0
C      1  0.4657370000000  0.5468650000000  0.4899180000000 1.0
C      1  0.5658290000000  0.4612080000000  0.4894840000000 1.0
C      1  0.5520050000000  0.4561530000000  0.5383720000000 1.0
C      1  0.6054310000000  0.4646210000000  0.5223210000000 1.0
C      1  0.5408610000000  0.5144560000000  0.5017800000000 1.0
C      1  0.6169880000000  0.5073850000000  0.5212230000000 1.0
C      1  0.4070540000000  0.4465510000000  0.4959960000000 1.0
C      1  0.4806890000000  0.4838260000000  0.6192430000000 1.0
C      1  0.4478080000000  0.5208190000000  0.5963870000000 1.0
C      1  0.4508410000000  0.5281930000000  0.4486010000000 1.0
C      1  0.4385010000000  0.5108430000000  0.4663410000000 1.0
C      1  0.5997910000000  0.4756350000000  0.5490720000000 1.0
C      1  0.5820190000000  0.5727690000000  0.4657700000000 1.0
C      1  0.5511480000000  0.4220760000000  0.4454490000000 1.0
C      1  0.5275060000000  0.4736780000000  0.5117320000000 1.0
C      1  0.4171200000000  0.4993980000000  0.4194990000000 1.0
C      1  0.4857300000000  0.4421550000000  0.4715210000000 1.0
C      1  0.5729060000000  0.5210300000000  0.5855840000000 1.0
C      1  0.5096060000000  0.5501970000000  0.5429580000000 1.0
C      1  0.5084080000000  0.4904620000000  0.5471580000000 1.0
C      1  0.5136880000000  0.3980810000000  0.4761200000000 1.0
C      1  0.5021100000000  0.4473850000000  0.5966480000000 1.0
C      1  0.5539270000000  0.3932040000000  0.4976450000000 1.0
C      1  0.4632040000000  0.4608410000000  0.5147000000000 1.0
C      1  0.4634550000000  0.4011360000000  0.5337900000000 1.0
C      1  0.5835130000000  0.5848350000000  0.5223110000000 1.0
C      1  0.3925760000000  0.4738570000000  0.4583440000000 1.0
C      1  0.4476560000000  0.4816900000000  0.5270790000000 1.0
C      1  0.4697830000000  0.4825360000000  0.5702870000000 1.0
C      1  0.5191580000000  0.4964420000000  0.5026140000000 1.0
C      1  0.5999530000000  0.4434940000000  0.4713840000000 1.0
C      1  0.4244180000000  0.4690110000000  0.4907560000000 1.0
C      1  0.5357930000000  0.4826750000000  0.4309530000000 1.0
C      1  0.5950590000000  0.4929860000000  0.4503440000000 1.0
C      1  0.5131300000000  0.4556780000000  0.4353600000000 1.0
C      1  0.5205810000000  0.5748690000000  0.5314700000000 1.0
C      1  0.5779960000000  0.5696070000000  0.4370940000000 1.0
C      1  0.5485710000000  0.5187760000000  0.3971880000000 1.0
C      1  0.5038510000000  0.5365900000000  0.4495890000000 1.0
C      1  0.4388750000000  0.4164680000000  0.5264020000000 1.0
C      1  0.5328490000000  0.4741270000000  0.5519790000000 1.0
C      1  0.4787290000000  0.4579080000000  0.5581930000000 1.0
C      1  0.4812180000000  0.5955140000000  0.5346660000000 1.0
C      1  0.5574820000000  0.5862020000000  0.5088220000000 1.0
C      1  0.5638420000000  0.5320340000000  0.4686080000000 1.0
C      1  0.6046050000000  0.4347720000000  0.5211770000000 1.0
C      1  0.5113500000000  0.4280720000000  0.4794530000000 1.0
C      1  0.4906170000000  0.5278450000000  0.6202790000000 1.0
C      1  0.5560440000000  0.4723630000000  0.5147530000000 1.0
C      1  0.4450310000000  0.4649810000000  0.4728140000000 1.0
C      1  0.4574620000000  0.4704350000000  0.4047680000000 1.0
C      1  0.4740620000000  0.5535970000000  0.3944310000000 1.0
C      1  0.4827560000000  0.5431210000000  0.5984730000000 1.0
C      1  0.4599030000000  0.4542460000000  0.4285290000000 1.0
C      1  0.4851890000000  0.4555080000000  0.5308320000000 1.0
C      1  0.4124440000000  0.5664540000000  0.4511140000000 1.0
C      1  0.4832550000000  0.3929500000000  0.5135840000000 1.0
C      1  0.5192190000000  0.3908460000000  0.4464170000000 1.0
C      1  0.3989320000000  0.5403020000000  0.4485540000000 1.0
C      1  0.4004030000000  0.4463990000000  0.5244280000000 1.0
C      1  0.4279740000000  0.4904830000000  0.5089060000000 1.0
C      1  0.5468270000000  0.6054060000000  0.4897910000000 1.0
C      1  0.3964240000000  0.4461220000000  0.4683630000000 1.0
C      1  0.3914850000000  0.5239790000000  0.4725870000000 1.0
C      1  0.4572230000000  0.4892200000000  0.4624990000000 1.0
C      1  0.5274790000000  0.5360420000000  0.5597450000000 1.0
C      1  0.4307780000000  0.4544820000000  0.4329170000000 1.0
C      1  0.5625670000000  0.5473330000000  0.5855420000000 1.0
C      1  0.5627580000000  0.4718110000000  0.4235100000000 1.0
C      1  0.6078750000000  0.4352230000000  0.4936070000000 1.0
C      1  0.4881850000000  0.5216980000000  0.4158380000000 1.0
C      1  0.5016120000000  0.4459570000000  0.3913110000000 1.0
C      1  0.4244710000000  0.4160190000000  0.4707040000000 1.0
C      1  0.5079800000000  0.5997690000000  0.5225080000000 1.0
C      1  0.5810740000000  0.5515420000000  0.5463480000000 1.0
C      1  0.4821020000000  0.4965720000000  0.4776800000000 1.0
C      1  0.5463140000000  0.5198520000000  0.5497380000000 1.0
C      1  0.5552980000000  0.4926730000000  0.5934810000000 1.0
C      1  0.5891660000000  0.5259120000000  0.5613770000000 1.0
C      1  0.4628630000000  0.5841610000000  0.4531610000000 1.0
C      1  0.6053670000000  0.4997400000000  0.4759650000000 1.0
C      1  0.4111650000000  0.5824870000000  0.4759200000000 1.0
C      1  0.4137590000000  0.5251650000000  0.5643940000000 1.0
C      1  0.4427240000000  0.5605040000000  0.4524990000000 1.0
C      1  0.4483150000000  0.4371080000000  0.5849450000000 1.0
C      1  0.5178800000000  0.6085520000000  0.4956010000000 1.0
C      1  0.6081940000000  0.5292220000000  0.4828150000000 1.0
C      1  0.5898980000000  0.4536530000000  0.4492810000000 1.0
C      1  0.6114110000000  0.4863290000000  0.5025180000000 1.0
C      1  0.5598540000000  0.4120260000000  0.4755870000000 1.0
C      1  0.5403160000000  0.5207680000000  0.4758170000000 1.0
C      1  0.4846250000000  0.4521850000000  0.4446660000000 1.0
C      1  0.5503490000000  0.4391940000000  0.5785660000000 1.0
C      1  0.5336440000000  0.4893440000000  0.4604520000000 1.0
C      1  0.4308070000000  0.5157970000000  0.4961480000000 1.0
C      1  0.4778890000000  0.5058030000000  0.5050930000000 1.0
C      1  0.4643190000000  0.4520950000000  0.4877780000000 1.0
C      1  0.4994280000000  0.6072830000000  0.4733860000000 1.0
C      1  0.4929460000000  0.5277920000000  0.5778960000000 1.0
C      1  0.6254260000000  0.5332410000000  0.5061940000000 1.0
C      1  0.3929140000000  0.5134290000000  0.5478290000000 1.0
C      1  0.5179040000000  0.5412680000000  0.4705770000000 1.0
C      1  0.5297050000000  0.5552120000000  0.3953360000000 1.0
C      1  0.4726240000000  0.4453460000000  0.6012430000000 1.0
C      1  0.5559630000000  0.5247500000000  0.5224860000000 1.0
C      1  0.5827190000000  0.4941930000000  0.4244980000000 1.0
C      1  0.4858900000000  0.5670450000000  0.4949740000000 1.0
C      1  0.4310480000000  0.6010150000000  0.4853500000000 1.0
C      1  0.4675890000000  0.5101130000000  0.6171740000000 1.0
C      1  0.4891690000000  0.4980840000000  0.3830370000000 1.0
C      1  0.4927200000000  0.5001910000000  0.5694690000000 1.0
C      1  0.5179080000000  0.5197690000000  0.6124730000000 1.0
C      1  0.5755750000000  0.4315940000000  0.5623280000000 1.0
C      1  0.4767500000000  0.5696720000000  0.5227360000000 1.0
C      1  0.5845000000000  0.4186680000000  0.5369890000000 1.0
C      1  0.5090230000000  0.4895690000000  0.4763880000000 1.0
C      1  0.5481660000000  0.4295070000000  0.5212260000000 1.0
C      1  0.4595460000000  0.5271570000000  0.5467740000000 1.0
C      1  0.4610700000000  0.5156950000000  0.4245750000000 1.0
C      1  0.5490210000000  0.4948730000000  0.5640570000000 1.0
C      1  0.5630840000000  0.5676850000000  0.5676050000000 1.0
C      1  0.5106840000000  0.4533210000000  0.5187520000000 1.0
C      1  0.5153590000000  0.4343730000000  0.4138900000000 1.0
C      1  0.5054500000000  0.6014500000000  0.4454020000000 1.0
C      1  0.5644270000000  0.4632850000000  0.5877830000000 1.0
C      1  0.4270770000000  0.5059160000000  0.5818290000000 1.0
C      1  0.5074930000000  0.4729430000000  0.6102310000000 1.0
C      1  0.5141150000000  0.5598670000000  0.4903650000000 1.0
C      1  0.5745830000000  0.5462280000000  0.5184580000000 1.0
C      1  0.5283910000000  0.4931930000000  0.6092370000000 1.0
C      1  0.4076280000000  0.5274680000000  0.4235720000000 1.0
C      1  0.5366720000000  0.5765680000000  0.5735980000000 1.0
C      1  0.5358550000000  0.5657560000000  0.5084240000000 1.0
C      1  0.4349870000000  0.5808840000000  0.5215030000000 1.0
C      1  0.4815430000000  0.5892240000000  0.4326120000000 1.0
C      1  0.3876980000000  0.4723820000000  0.5280340000000 1.0
C      1  0.4696500000000  0.3931340000000  0.4571330000000 1.0
C      1  0.4938210000000  0.5271990000000  0.3852230000000 1.0
C      1  0.4225090000000  0.4364890000000  0.5413600000000 1.0
C      1  0.4176450000000  0.5640550000000  0.4994060000000 1.0
C      1  0.4409410000000  0.5549930000000  0.4819610000000 1.0
C      1  0.4831470000000  0.4701410000000  0.3882740000000 1.0
C      1  0.4489420000000  0.5519230000000  0.4050390000000 1.0
C      1  0.4509190000000  0.5992960000000  0.5054670000000 1.0
C      1  0.5560140000000  0.5907590000000  0.4384380000000 1.0
C      1  0.4249130000000  0.5484160000000  0.4165370000000 1.0
C      1  0.4445850000000  0.4967600000000  0.4101220000000 1.0
END
