TITL C-4164246-3563-313 25.3795030123832 125000 -24977.636309389 0 0 169 (C1) n - 1
REM
REM in /home/nfs/bkarasulu/CARBON/AIRSS/Generating-Clusters/ReaxFF-fromJPCA2015/Units_Real/with-SteepDescent/Only-C1/SD-CG/Try1-3A/FIRE-CG
REM
REM
REM
REM
REM
REM ./C.cell (11c1c37f851c82e70ff6c80c92926a4b)
REM
REM compiler GCC version 9.2.1 20190827 (Red Hat 9.2.1-1)
REM options -cpp -mtune=generic -march=x86-64 -g -O0 -fpre-include=/usr/include/finclude/math-vector-fortran.h
REM seed -954749104 1311512159 1947475971 -775742168 653759168 36199771 -249081109 256907924 11180912 1095877099 -176191789 893414537 1968072783 1027708513 -745781370 70971514 2092389416 2111990301 -91406431 -1009785515 -1677175685 -1268118306 -1063620977 1159028593 -998620337 267029825 663198522 -944103002 -200397574 1018949336 -177121430 230079976 -162223894
REM
CELL 1.54180   50.00000   50.00000   50.00000   90.00000   90.00000   90.00000
LATT -1
SFAC C  
C      1  0.5450860000000  0.5996490000000  0.4988400000000 1.0
C      1  0.5238280000000  0.5455850000000  0.5023970000000 1.0
C      1  0.4640590000000  0.5149320000000  0.4040180000000 1.0
C      1  0.5654950000000  0.4276540000000  0.4669500000000 1.0
C      1  0.4845440000000  0.5075290000000  0.6007460000000 1.0
C      1  0.5703850000000  0.5179400000000  0.4219620000000 1.0
C      1  0.4698470000000  0.4446010000000  0.5260090000000 1.0
C      1  0.5800520000000  0.5599840000000  0.4902910000000 1.0
C      1  0.5605630000000  0.5290110000000  0.5890410000000 1.0
C      1  0.5985730000000  0.5157720000000  0.5523860000000 1.0
C      1  0.4947220000000  0.4446140000000  0.5681010000000 1.0
C      1  0.5637290000000  0.4954300000000  0.5483530000000 1.0
C      1  0.5924440000000  0.4486830000000  0.5084250000000 1.0
C      1  0.4498880000000  0.5600010000000  0.4212990000000 1.0
C      1  0.5346260000000  0.5251060000000  0.5150880000000 1.0
C      1  0.5871870000000  0.5051920000000  0.4723220000000 1.0
C      1  0.5231730000000  0.4019590000000  0.4241420000000 1.0
C      1  0.4517890000000  0.4488490000000  0.4508810000000 1.0
C      1  0.5182750000000  0.4041320000000  0.4908890000000 1.0
C      1  0.5261780000000  0.5731730000000  0.5659250000000 1.0
C      1  0.5435960000000  0.5874170000000  0.5469530000000 1.0
C      1  0.6021110000000  0.5215100000000  0.4899930000000 1.0
C      1  0.4191810000000  0.5653230000000  0.5369190000000 1.0
C      1  0.4902320000000  0.5648930000000  0.4726950000000 1.0
C      1  0.5305490000000  0.6027330000000  0.5257250000000 1.0
C      1  0.5909750000000  0.4911420000000  0.5398220000000 1.0
C      1  0.5991680000000  0.4760240000000  0.5140350000000 1.0
C      1  0.4092890000000  0.5150400000000  0.4672220000000 1.0
C      1  0.4683830000000  0.6063060000000  0.4975280000000 1.0
C      1  0.4318480000000  0.5411210000000  0.4340560000000 1.0
C      1  0.5880650000000  0.4409720000000  0.4791410000000 1.0
C      1  0.4230700000000  0.4670870000000  0.4833760000000 1.0
C      1  0.5594490000000  0.4378550000000  0.4393040000000 1.0
C      1  0.5380620000000  0.5018910000000  0.5559650000000 1.0
C      1  0.4986420000000  0.5792170000000  0.5745820000000 1.0
C      1  0.4565390000000  0.3966330000000  0.4758180000000 1.0
C      1  0.5252740000000  0.4984220000000  0.5077360000000 1.0
C      1  0.5173440000000  0.5205460000000  0.4026640000000 1.0
C      1  0.6053160000000  0.4923050000000  0.4904790000000 1.0
C      1  0.4760150000000  0.3960440000000  0.4920640000000 1.0
C      1  0.4553750000000  0.5015480000000  0.5968450000000 1.0
C      1  0.4433200000000  0.4649050000000  0.4275070000000 1.0
C      1  0.4165760000000  0.5415910000000  0.4586820000000 1.0
C      1  0.5350840000000  0.6004890000000  0.4727570000000 1.0
C      1  0.5032400000000  0.6082110000000  0.5326760000000 1.0
C      1  0.5008610000000  0.4083480000000  0.4416070000000 1.0
C      1  0.5942580000000  0.4883900000000  0.4506780000000 1.0
C      1  0.5310420000000  0.4782220000000  0.5712220000000 1.0
C      1  0.4937590000000  0.6063990000000  0.4466220000000 1.0
C      1  0.5411300000000  0.5266980000000  0.4215350000000 1.0
C      1  0.4718250000000  0.5430860000000  0.4738200000000 1.0
C      1  0.5804040000000  0.4312790000000  0.5288600000000 1.0
C      1  0.4572210000000  0.4275250000000  0.5698480000000 1.0
C      1  0.5301880000000  0.4700940000000  0.4094740000000 1.0
C      1  0.4760810000000  0.5916180000000  0.5280020000000 1.0
C      1  0.5213260000000  0.5512670000000  0.5472680000000 1.0
C      1  0.4862610000000  0.5141100000000  0.5122400000000 1.0
C      1  0.4832630000000  0.4980400000000  0.4642620000000 1.0
C      1  0.4773090000000  0.4909230000000  0.5534790000000 1.0
C      1  0.4693450000000  0.5431030000000  0.4038140000000 1.0
C      1  0.4982930000000  0.5423410000000  0.4078180000000 1.0
C      1  0.4485830000000  0.5831380000000  0.4393330000000 1.0
C      1  0.5613270000000  0.5177790000000  0.5113240000000 1.0
C      1  0.4851810000000  0.4440650000000  0.4108350000000 1.0
C      1  0.4473150000000  0.5254220000000  0.5819830000000 1.0
C      1  0.4500610000000  0.5164800000000  0.4315380000000 1.0
C      1  0.5612930000000  0.4100210000000  0.5207740000000 1.0
C      1  0.4780990000000  0.4204520000000  0.4272870000000 1.0
C      1  0.5741710000000  0.4893740000000  0.4284910000000 1.0
C      1  0.4756760000000  0.4568420000000  0.4664750000000 1.0
C      1  0.3947270000000  0.4726060000000  0.4811880000000 1.0
C      1  0.3894280000000  0.4894810000000  0.5047320000000 1.0
C      1  0.5671260000000  0.5806750000000  0.5053890000000 1.0
C      1  0.4779580000000  0.5621310000000  0.5225570000000 1.0
C      1  0.5375990000000  0.4409260000000  0.5380290000000 1.0
C      1  0.5502730000000  0.4714910000000  0.5960010000000 1.0
C      1  0.4655990000000  0.4717490000000  0.5346360000000 1.0
C      1  0.4916380000000  0.4848970000000  0.5843470000000 1.0
C      1  0.4313100000000  0.5861970000000  0.4666190000000 1.0
C      1  0.5402820000000  0.4433400000000  0.5078000000000 1.0
C      1  0.4229570000000  0.5755160000000  0.5063980000000 1.0
C      1  0.5143260000000  0.5569520000000  0.4571440000000 1.0
C      1  0.4337520000000  0.4930890000000  0.4716000000000 1.0
C      1  0.4809600000000  0.4912400000000  0.4014340000000 1.0
C      1  0.5167680000000  0.3970790000000  0.5531520000000 1.0
C      1  0.4672330000000  0.4665800000000  0.4092690000000 1.0
C      1  0.5146690000000  0.4480760000000  0.4741240000000 1.0
C      1  0.5676220000000  0.4458700000000  0.5514700000000 1.0
C      1  0.4799770000000  0.4503310000000  0.4943470000000 1.0
C      1  0.5177640000000  0.4579700000000  0.5554230000000 1.0
C      1  0.4896590000000  0.4316360000000  0.5424380000000 1.0
C      1  0.5011200000000  0.5305620000000  0.5887990000000 1.0
C      1  0.4979950000000  0.4952640000000  0.4939860000000 1.0
C      1  0.4448050000000  0.5407590000000  0.5126290000000 1.0
C      1  0.5403760000000  0.4100970000000  0.5410040000000 1.0
C      1  0.4525790000000  0.4211330000000  0.4415440000000 1.0
C      1  0.3961700000000  0.4861570000000  0.5339200000000 1.0
C      1  0.4233550000000  0.4791250000000  0.5647930000000 1.0
C      1  0.4961510000000  0.4763780000000  0.4515100000000 1.0
C      1  0.5136020000000  0.5242340000000  0.5577260000000 1.0
C      1  0.4730460000000  0.5344500000000  0.4477250000000 1.0
C      1  0.4084200000000  0.4623640000000  0.5460320000000 1.0
C      1  0.5065230000000  0.5566570000000  0.5220660000000 1.0
C      1  0.5332220000000  0.5275020000000  0.5982290000000 1.0
C      1  0.5285220000000  0.4212010000000  0.4030640000000 1.0
C      1  0.5823730000000  0.5355020000000  0.5649360000000 1.0
C      1  0.5660520000000  0.4577080000000  0.5756710000000 1.0
C      1  0.4881500000000  0.5988390000000  0.5550390000000 1.0
C      1  0.4050230000000  0.5116490000000  0.5463780000000 1.0
C      1  0.4574900000000  0.5456110000000  0.5385370000000 1.0
C      1  0.5527570000000  0.4902040000000  0.5092760000000 1.0
C      1  0.5232020000000  0.4874090000000  0.4524730000000 1.0
C      1  0.5467420000000  0.4175720000000  0.4940570000000 1.0
C      1  0.4862710000000  0.6135570000000  0.4739190000000 1.0
C      1  0.5284630000000  0.5402160000000  0.4762060000000 1.0
C      1  0.5082450000000  0.4194520000000  0.4683570000000 1.0
C      1  0.4160750000000  0.4751340000000  0.4302380000000 1.0
C      1  0.5323460000000  0.4613920000000  0.4567480000000 1.0
C      1  0.4469320000000  0.4977310000000  0.4962540000000 1.0
C      1  0.5495080000000  0.4160950000000  0.4230750000000 1.0
C      1  0.5509340000000  0.5057040000000  0.6014750000000 1.0
C      1  0.5052920000000  0.4721450000000  0.6038180000000 1.0
C      1  0.4846060000000  0.5554810000000  0.5844750000000 1.0
C      1  0.4441400000000  0.4804840000000  0.5191760000000 1.0
C      1  0.4356520000000  0.3985370000000  0.4562160000000 1.0
C      1  0.4568440000000  0.4087660000000  0.5491880000000 1.0
C      1  0.4967980000000  0.3957650000000  0.5088220000000 1.0
C      1  0.5766450000000  0.5431070000000  0.4364130000000 1.0
C      1  0.4042550000000  0.5395010000000  0.5363410000000 1.0
C      1  0.4625660000000  0.5234040000000  0.4986340000000 1.0
C      1  0.5557690000000  0.4648450000000  0.4969010000000 1.0
C      1  0.5821220000000  0.5512590000000  0.5410870000000 1.0
C      1  0.5676350000000  0.5749740000000  0.5343750000000 1.0
C      1  0.4929460000000  0.5117430000000  0.5399590000000 1.0
C      1  0.5565510000000  0.4705570000000  0.4686790000000 1.0
C      1  0.5049460000000  0.4645280000000  0.4967200000000 1.0
C      1  0.4730190000000  0.5913460000000  0.4364350000000 1.0
C      1  0.5838530000000  0.4632200000000  0.4603120000000 1.0
C      1  0.4387780000000  0.5962350000000  0.4931380000000 1.0
C      1  0.5251960000000  0.6008320000000  0.4470320000000 1.0
C      1  0.4313670000000  0.5007280000000  0.5469630000000 1.0
C      1  0.4317180000000  0.4578280000000  0.5083890000000 1.0
C      1  0.5353460000000  0.5744180000000  0.4395110000000 1.0
C      1  0.4552770000000  0.5536320000000  0.5798400000000 1.0
C      1  0.4563750000000  0.4978750000000  0.4538920000000 1.0
C      1  0.4207260000000  0.4419390000000  0.5288230000000 1.0
C      1  0.5108420000000  0.4930560000000  0.4028200000000 1.0
C      1  0.4451400000000  0.4265990000000  0.5295960000000 1.0
C      1  0.5374310000000  0.5123560000000  0.4481760000000 1.0
C      1  0.3954110000000  0.4802210000000  0.4512870000000 1.0
C      1  0.5117660000000  0.4323070000000  0.5937220000000 1.0
C      1  0.5262310000000  0.4542830000000  0.6073750000000 1.0
C      1  0.4161620000000  0.5332180000000  0.5106220000000 1.0
C      1  0.4623670000000  0.4519480000000  0.5813630000000 1.0
C      1  0.5524440000000  0.5248370000000  0.4693530000000 1.0
C      1  0.4956630000000  0.5460210000000  0.4368570000000 1.0
C      1  0.4460270000000  0.4756450000000  0.5842490000000 1.0
C      1  0.4150680000000  0.5656970000000  0.4780670000000 1.0
C      1  0.5177180000000  0.4112780000000  0.5769740000000 1.0
C      1  0.4542870000000  0.5157160000000  0.5550590000000 1.0
C      1  0.4415320000000  0.5649100000000  0.5558780000000 1.0
C      1  0.3986460000000  0.5150220000000  0.4939870000000 1.0
C      1  0.5760190000000  0.5436510000000  0.4663850000000 1.0
C      1  0.5535070000000  0.5569000000000  0.4258700000000 1.0
C      1  0.5850890000000  0.5368320000000  0.5095940000000 1.0
C      1  0.5556770000000  0.4662670000000  0.4242460000000 1.0
C      1  0.4879180000000  0.5896840000000  0.4858050000000 1.0
C      1  0.5138260000000  0.4465640000000  0.4034440000000 1.0
C      1  0.4893190000000  0.4023180000000  0.5391700000000 1.0
END
