TITL C-4164236-1577-700 17.638242463486 125000 -24601.7873157276 0 0 164 (C1) n - 1
REM
REM in /home/nfs/bkarasulu/CARBON/AIRSS/Generating-Clusters/ReaxFF-fromJPCA2015/Units_Real/with-SteepDescent/Only-C1/SD-CG/Try1-3A/FIRE-CG
REM
REM
REM
REM
REM
REM ./C.cell (11c1c37f851c82e70ff6c80c92926a4b)
REM
REM compiler GCC version 9.2.1 20190827 (Red Hat 9.2.1-1)
REM options -cpp -mtune=generic -march=x86-64 -g -O0 -fpre-include=/usr/include/finclude/math-vector-fortran.h
REM seed -172926240 -793444382 -902883094 -968848236 1331549702 1254762314 -1002868354 1989307011 1805083962 1097748318 1832093499 -548517667 -551376423 513394902 -1179710914 1163384948 -1488339450 597647891 1955593503 -290123231 -2137316024 2017070453 -1844565702 -1570179499 -1216240104 1282706575 1095545537 -1619707905 -2049000853 1264735002 700628924 1810462533 960405310
REM
CELL 1.54180   50.00000   50.00000   50.00000   90.00000   90.00000   90.00000
LATT -1
SFAC C  
C      1  0.5374090000000  0.5895830000000  0.4276220000000 1.0
C      1  0.5101830000000  0.4070820000000  0.5429200000000 1.0
C      1  0.4883640000000  0.5124000000000  0.4049170000000 1.0
C      1  0.5116210000000  0.4111400000000  0.4368580000000 1.0
C      1  0.4688280000000  0.5558920000000  0.4719280000000 1.0
C      1  0.4803180000000  0.4614870000000  0.4058570000000 1.0
C      1  0.4702690000000  0.4898380000000  0.4018460000000 1.0
C      1  0.5513640000000  0.5180530000000  0.4885520000000 1.0
C      1  0.5094090000000  0.4255400000000  0.5664500000000 1.0
C      1  0.4248800000000  0.5154300000000  0.5795880000000 1.0
C      1  0.4428720000000  0.5929960000000  0.4812320000000 1.0
C      1  0.4959550000000  0.4311580000000  0.5920480000000 1.0
C      1  0.5578720000000  0.5810550000000  0.5550950000000 1.0
C      1  0.5627730000000  0.4204910000000  0.5330990000000 1.0
C      1  0.3987990000000  0.5236210000000  0.5421290000000 1.0
C      1  0.4899750000000  0.4285040000000  0.4775500000000 1.0
C      1  0.4209320000000  0.4906180000000  0.4324730000000 1.0
C      1  0.5350820000000  0.5509790000000  0.5783660000000 1.0
C      1  0.5233210000000  0.6057090000000  0.5013140000000 1.0
C      1  0.4375000000000  0.5579390000000  0.5485150000000 1.0
C      1  0.4786230000000  0.5991330000000  0.5160370000000 1.0
C      1  0.5194180000000  0.4349100000000  0.5057920000000 1.0
C      1  0.5365900000000  0.5241870000000  0.5907580000000 1.0
C      1  0.4854850000000  0.4204210000000  0.4496800000000 1.0
C      1  0.5039630000000  0.5127460000000  0.5067550000000 1.0
C      1  0.5891790000000  0.4631270000000  0.5198300000000 1.0
C      1  0.5107440000000  0.5680250000000  0.5762770000000 1.0
C      1  0.5045070000000  0.6073810000000  0.4638830000000 1.0
C      1  0.3881240000000  0.4973930000000  0.5469030000000 1.0
C      1  0.4180690000000  0.4209010000000  0.4417890000000 1.0
C      1  0.4752180000000  0.5061820000000  0.5989200000000 1.0
C      1  0.4340700000000  0.4280350000000  0.5424320000000 1.0
C      1  0.5613690000000  0.4813940000000  0.4249820000000 1.0
C      1  0.4595760000000  0.4729670000000  0.5628770000000 1.0
C      1  0.4597640000000  0.5284720000000  0.4730550000000 1.0
C      1  0.4117720000000  0.5656800000000  0.5050590000000 1.0
C      1  0.5805270000000  0.4364330000000  0.5139870000000 1.0
C      1  0.4591410000000  0.4105050000000  0.4413650000000 1.0
C      1  0.4846960000000  0.5926550000000  0.5435620000000 1.0
C      1  0.5437190000000  0.5541790000000  0.5500820000000 1.0
C      1  0.5458490000000  0.6000190000000  0.5148960000000 1.0
C      1  0.5083910000000  0.4501200000000  0.4845250000000 1.0
C      1  0.4951940000000  0.4743630000000  0.4963450000000 1.0
C      1  0.5889710000000  0.4854280000000  0.4980030000000 1.0
C      1  0.5656970000000  0.5356190000000  0.5321700000000 1.0
C      1  0.5772550000000  0.5591680000000  0.5127620000000 1.0
C      1  0.4815280000000  0.4782380000000  0.6048010000000 1.0
C      1  0.5289680000000  0.4333720000000  0.4295760000000 1.0
C      1  0.5199880000000  0.4591800000000  0.4171880000000 1.0
C      1  0.4372720000000  0.4850210000000  0.5526510000000 1.0
C      1  0.6098840000000  0.5307500000000  0.4848360000000 1.0
C      1  0.4684780000000  0.4273280000000  0.4953380000000 1.0
C      1  0.4510960000000  0.4090090000000  0.5282560000000 1.0
C      1  0.4759090000000  0.5138830000000  0.5466740000000 1.0
C      1  0.5168530000000  0.5121870000000  0.4168610000000 1.0
C      1  0.4894650000000  0.5232770000000  0.5748180000000 1.0
C      1  0.4162550000000  0.4866310000000  0.5732710000000 1.0
C      1  0.4417890000000  0.4272200000000  0.4236970000000 1.0
C      1  0.4497750000000  0.5117540000000  0.5909650000000 1.0
C      1  0.4336910000000  0.5710300000000  0.5236230000000 1.0
C      1  0.5105830000000  0.5904740000000  0.5562800000000 1.0
C      1  0.5835660000000  0.4801510000000  0.4680850000000 1.0
C      1  0.5909030000000  0.5242460000000  0.4333000000000 1.0
C      1  0.4768480000000  0.4852820000000  0.5436250000000 1.0
C      1  0.5182560000000  0.4711530000000  0.5415620000000 1.0
C      1  0.5119700000000  0.5223820000000  0.5282170000000 1.0
C      1  0.4938450000000  0.5753750000000  0.4249420000000 1.0
C      1  0.4715360000000  0.4441420000000  0.5188550000000 1.0
C      1  0.4960450000000  0.3913050000000  0.5072720000000 1.0
C      1  0.6018350000000  0.5384180000000  0.4551810000000 1.0
C      1  0.5296790000000  0.4665560000000  0.5965970000000 1.0
C      1  0.5548730000000  0.4746700000000  0.5893910000000 1.0
C      1  0.5715140000000  0.4535360000000  0.4383620000000 1.0
C      1  0.5757660000000  0.5101860000000  0.4151150000000 1.0
C      1  0.4660790000000  0.4868580000000  0.4481960000000 1.0
C      1  0.4204820000000  0.5366800000000  0.5584550000000 1.0
C      1  0.5045990000000  0.5228250000000  0.4430510000000 1.0
C      1  0.5310620000000  0.5397760000000  0.4109240000000 1.0
C      1  0.4119700000000  0.4507240000000  0.5352170000000 1.0
C      1  0.5662690000000  0.4618760000000  0.5640600000000 1.0
C      1  0.5862850000000  0.4736300000000  0.5468380000000 1.0
C      1  0.4984690000000  0.5571160000000  0.4771930000000 1.0
C      1  0.4438550000000  0.4802290000000  0.4123740000000 1.0
C      1  0.4557830000000  0.5657280000000  0.4467710000000 1.0
C      1  0.4807970000000  0.4703690000000  0.5192690000000 1.0
C      1  0.4171160000000  0.5791670000000  0.4807270000000 1.0
C      1  0.5562000000000  0.4185380000000  0.4773820000000 1.0
C      1  0.5149200000000  0.3866120000000  0.4864620000000 1.0
C      1  0.5936320000000  0.5235120000000  0.5312770000000 1.0
C      1  0.4513510000000  0.4527640000000  0.4103680000000 1.0
C      1  0.5337010000000  0.4561330000000  0.4726560000000 1.0
C      1  0.5869150000000  0.4525000000000  0.4620230000000 1.0
C      1  0.4138920000000  0.5131660000000  0.4461960000000 1.0
C      1  0.5571410000000  0.4946360000000  0.5056880000000 1.0
C      1  0.4702930000000  0.5584020000000  0.4219890000000 1.0
C      1  0.5567300000000  0.5301030000000  0.4123380000000 1.0
C      1  0.4989310000000  0.6092900000000  0.4939790000000 1.0
C      1  0.4470670000000  0.4651530000000  0.4872050000000 1.0
C      1  0.5396620000000  0.4993560000000  0.4679100000000 1.0
C      1  0.5611530000000  0.4909420000000  0.4508700000000 1.0
C      1  0.5489740000000  0.4376490000000  0.4516290000000 1.0
C      1  0.4012890000000  0.5048150000000  0.4910130000000 1.0
C      1  0.4834460000000  0.4000350000000  0.5289170000000 1.0
C      1  0.4280340000000  0.4429050000000  0.4915520000000 1.0
C      1  0.4069280000000  0.4552220000000  0.5072450000000 1.0
C      1  0.5177850000000  0.5124270000000  0.5728890000000 1.0
C      1  0.4527900000000  0.5895110000000  0.5082390000000 1.0
C      1  0.4065080000000  0.5533750000000  0.4801300000000 1.0
C      1  0.5285590000000  0.5004900000000  0.5464390000000 1.0
C      1  0.4821580000000  0.5526880000000  0.5316510000000 1.0
C      1  0.4853250000000  0.5961840000000  0.4454120000000 1.0
C      1  0.5433700000000  0.5500180000000  0.4643540000000 1.0
C      1  0.4667840000000  0.4338540000000  0.5902860000000 1.0
C      1  0.4417060000000  0.4161980000000  0.4899870000000 1.0
C      1  0.4690870000000  0.5165350000000  0.4466390000000 1.0
C      1  0.5208680000000  0.5672500000000  0.4185600000000 1.0
C      1  0.5126020000000  0.5520940000000  0.5297180000000 1.0
C      1  0.4687340000000  0.5664320000000  0.5555140000000 1.0
C      1  0.5367390000000  0.5989070000000  0.5447460000000 1.0
C      1  0.4864230000000  0.5536260000000  0.5760090000000 1.0
C      1  0.5998960000000  0.5569280000000  0.4932650000000 1.0
C      1  0.5014000000000  0.4527960000000  0.5569920000000 1.0
C      1  0.4045240000000  0.4771950000000  0.4847920000000 1.0
C      1  0.4926330000000  0.4775030000000  0.4488340000000 1.0
C      1  0.5539170000000  0.5938410000000  0.4495830000000 1.0
C      1  0.6020640000000  0.5122420000000  0.5055230000000 1.0
C      1  0.4572760000000  0.5935870000000  0.4552000000000 1.0
C      1  0.5318450000000  0.4504230000000  0.5272530000000 1.0
C      1  0.5340730000000  0.4846280000000  0.4218410000000 1.0
C      1  0.4677260000000  0.5284320000000  0.5239470000000 1.0
C      1  0.4167920000000  0.4740590000000  0.4571110000000 1.0
C      1  0.4952970000000  0.4596710000000  0.4287010000000 1.0
C      1  0.5619630000000  0.5736190000000  0.4682720000000 1.0
C      1  0.5791780000000  0.4316060000000  0.4848180000000 1.0
C      1  0.5630220000000  0.5805760000000  0.5009160000000 1.0
C      1  0.3989950000000  0.4716060000000  0.5533640000000 1.0
C      1  0.5398730000000  0.4790740000000  0.4880880000000 1.0
C      1  0.4596110000000  0.5155520000000  0.4986500000000 1.0
C      1  0.5148300000000  0.3940170000000  0.4595080000000 1.0
C      1  0.5597030000000  0.5051040000000  0.5938020000000 1.0
C      1  0.4491500000000  0.4891190000000  0.5028100000000 1.0
C      1  0.5375640000000  0.4060550000000  0.5290110000000 1.0
C      1  0.4456950000000  0.4697870000000  0.4592420000000 1.0
C      1  0.5046690000000  0.4584380000000  0.6036420000000 1.0
C      1  0.4693860000000  0.5294240000000  0.4183820000000 1.0
C      1  0.4766130000000  0.4405030000000  0.5463300000000 1.0
C      1  0.5914770000000  0.5634140000000  0.4662730000000 1.0
C      1  0.4122600000000  0.5133200000000  0.5175880000000 1.0
C      1  0.4056250000000  0.5257240000000  0.4696940000000 1.0
C      1  0.5355630000000  0.4093220000000  0.4977000000000 1.0
C      1  0.5948470000000  0.5028680000000  0.5525840000000 1.0
C      1  0.4620420000000  0.4626240000000  0.5905700000000 1.0
C      1  0.4563450000000  0.4303060000000  0.5632000000000 1.0
C      1  0.5300690000000  0.6076710000000  0.4491770000000 1.0
C      1  0.4961030000000  0.4998780000000  0.4849070000000 1.0
C      1  0.5153040000000  0.5552800000000  0.5006630000000 1.0
C      1  0.5511780000000  0.4413440000000  0.5494470000000 1.0
C      1  0.4336020000000  0.4956770000000  0.5261000000000 1.0
C      1  0.5512030000000  0.5097880000000  0.5284920000000 1.0
C      1  0.5404300000000  0.5445910000000  0.4921870000000 1.0
C      1  0.5157770000000  0.5470880000000  0.4563830000000 1.0
C      1  0.5786520000000  0.5065440000000  0.5744280000000 1.0
C      1  0.4375300000000  0.4074640000000  0.4613240000000 1.0
C      1  0.5100320000000  0.4992980000000  0.4586320000000 1.0
END
