TITL C-4164233-775-168 9.52165341034709 125000 -15022.0554303356 0 0 101 (C1) n - 1
REM
REM in /home/nfs/bkarasulu/CARBON/AIRSS/Generating-Clusters/ReaxFF-fromJPCA2015/Units_Real/with-SteepDescent/Only-C1/SD-CG/Try1-3A/FIRE-CG
REM
REM
REM
REM
REM
REM ./C.cell (11c1c37f851c82e70ff6c80c92926a4b)
REM
REM compiler GCC version 9.2.1 20190827 (Red Hat 9.2.1-1)
REM options -cpp -mtune=generic -march=x86-64 -g -O0 -fpre-include=/usr/include/finclude/math-vector-fortran.h
REM seed -1806261796 33238016 885285819 -1451125198 -1577715003 -1955318604 1098392958 467841309 -1434499313 -1327864953 1252416323 -999699141 289236955 -597900979 2031784062 1201976280 -1118389647 848449928 321799233 -2006455232 1825254184 81884516 -1429929353 -125713201 1100928136 -652462647 -657802560 2106093563 315875342 874796615 1231405816 -1355082841 -1184919290
REM
CELL 1.54180   50.00000   50.00000   50.00000   90.00000   90.00000   90.00000
LATT -1
SFAC C  
C      1  0.4382990000000  0.4399900000000  0.5201400000000 1.0
C      1  0.5592550000000  0.5135020000000  0.5583610000000 1.0
C      1  0.4667180000000  0.4972250000000  0.4948660000000 1.0
C      1  0.4760530000000  0.6002710000000  0.5430850000000 1.0
C      1  0.5411130000000  0.5585780000000  0.5062060000000 1.0
C      1  0.5182070000000  0.5062860000000  0.4043030000000 1.0
C      1  0.4931580000000  0.5850370000000  0.5599030000000 1.0
C      1  0.5165450000000  0.4741180000000  0.5790270000000 1.0
C      1  0.5805290000000  0.5194510000000  0.4785590000000 1.0
C      1  0.4769360000000  0.5337330000000  0.5572710000000 1.0
C      1  0.4543940000000  0.5576650000000  0.4590130000000 1.0
C      1  0.4960530000000  0.5250470000000  0.4017610000000 1.0
C      1  0.4367990000000  0.5411160000000  0.4780780000000 1.0
C      1  0.4334490000000  0.5496900000000  0.5284050000000 1.0
C      1  0.5457110000000  0.5458470000000  0.4234100000000 1.0
C      1  0.4531410000000  0.5262150000000  0.5411900000000 1.0
C      1  0.5803670000000  0.4411010000000  0.5109090000000 1.0
C      1  0.5794670000000  0.4731540000000  0.5379380000000 1.0
C      1  0.5635060000000  0.4846580000000  0.5595010000000 1.0
C      1  0.5248080000000  0.4743060000000  0.4843530000000 1.0
C      1  0.5076840000000  0.5297700000000  0.4535080000000 1.0
C      1  0.4894790000000  0.5365730000000  0.4752240000000 1.0
C      1  0.4804750000000  0.4818820000000  0.5306180000000 1.0
C      1  0.5435200000000  0.4349390000000  0.4776930000000 1.0
C      1  0.4279350000000  0.4877850000000  0.4663600000000 1.0
C      1  0.4557370000000  0.5124480000000  0.4136210000000 1.0
C      1  0.4982480000000  0.5521460000000  0.5476460000000 1.0
C      1  0.5289880000000  0.4252690000000  0.5019850000000 1.0
C      1  0.5241270000000  0.5151210000000  0.5277180000000 1.0
C      1  0.5729010000000  0.4720860000000  0.4839570000000 1.0
C      1  0.5489010000000  0.4846710000000  0.4715050000000 1.0
C      1  0.4915640000000  0.4579790000000  0.5820720000000 1.0
C      1  0.4966710000000  0.5027500000000  0.4492490000000 1.0
C      1  0.5363410000000  0.5334310000000  0.4615800000000 1.0
C      1  0.4309190000000  0.4598690000000  0.5399960000000 1.0
C      1  0.4180940000000  0.4630450000000  0.4767580000000 1.0
C      1  0.4581170000000  0.4213760000000  0.5314280000000 1.0
C      1  0.5219110000000  0.5349410000000  0.5481170000000 1.0
C      1  0.5018970000000  0.5817800000000  0.4775690000000 1.0
C      1  0.4667000000000  0.4596880000000  0.4281660000000 1.0
C      1  0.4234440000000  0.4883070000000  0.5350890000000 1.0
C      1  0.4872300000000  0.4392260000000  0.4280240000000 1.0
C      1  0.5725060000000  0.5168700000000  0.5081890000000 1.0
C      1  0.4451610000000  0.4518640000000  0.5645190000000 1.0
C      1  0.4908530000000  0.6006540000000  0.5799770000000 1.0
C      1  0.5602220000000  0.5530680000000  0.5254560000000 1.0
C      1  0.5332370000000  0.5203220000000  0.5701330000000 1.0
C      1  0.4617990000000  0.4352710000000  0.4784830000000 1.0
C      1  0.4177320000000  0.5622780000000  0.5431920000000 1.0
C      1  0.4637230000000  0.4686720000000  0.5798830000000 1.0
C      1  0.4836900000000  0.5127980000000  0.5750180000000 1.0
C      1  0.5677190000000  0.4837350000000  0.5113170000000 1.0
C      1  0.4913660000000  0.4638790000000  0.4126170000000 1.0
C      1  0.4690870000000  0.5012760000000  0.4384780000000 1.0
C      1  0.5372250000000  0.4771300000000  0.5096910000000 1.0
C      1  0.4380640000000  0.5048190000000  0.5555060000000 1.0
C      1  0.5057610000000  0.4334730000000  0.4503520000000 1.0
C      1  0.4561450000000  0.4771770000000  0.4520830000000 1.0
C      1  0.4707420000000  0.5389360000000  0.4082240000000 1.0
C      1  0.4552100000000  0.5831460000000  0.4941500000000 1.0
C      1  0.4590690000000  0.4965260000000  0.5747610000000 1.0
C      1  0.5550070000000  0.4962370000000  0.4329590000000 1.0
C      1  0.5001970000000  0.4817700000000  0.4695990000000 1.0
C      1  0.4373330000000  0.4426140000000  0.4905090000000 1.0
C      1  0.4884750000000  0.4329490000000  0.5685540000000 1.0
C      1  0.4624940000000  0.5489630000000  0.4340320000000 1.0
C      1  0.4625320000000  0.6008830000000  0.5189620000000 1.0
C      1  0.5487710000000  0.4421320000000  0.5497170000000 1.0
C      1  0.5379890000000  0.4718450000000  0.4352680000000 1.0
C      1  0.5715670000000  0.5295840000000  0.5363180000000 1.0
C      1  0.5026180000000  0.4347820000000  0.5413570000000 1.0
C      1  0.4217110000000  0.4998330000000  0.5078300000000 1.0
C      1  0.5095700000000  0.5748980000000  0.4525490000000 1.0
C      1  0.5430390000000  0.5164970000000  0.4162190000000 1.0
C      1  0.5010630000000  0.4172660000000  0.4982970000000 1.0
C      1  0.4843900000000  0.5177240000000  0.4939630000000 1.0
C      1  0.5404690000000  0.5114950000000  0.4787910000000 1.0
C      1  0.5223370000000  0.4868810000000  0.5315230000000 1.0
C      1  0.5748750000000  0.5136430000000  0.4508460000000 1.0
C      1  0.5168300000000  0.4784260000000  0.4160350000000 1.0
C      1  0.5420840000000  0.4653610000000  0.5666150000000 1.0
C      1  0.5773420000000  0.4440210000000  0.5388010000000 1.0
C      1  0.5722970000000  0.4427150000000  0.4838820000000 1.0
C      1  0.4611050000000  0.4278370000000  0.5601290000000 1.0
C      1  0.4970750000000  0.5596160000000  0.5192560000000 1.0
C      1  0.5389680000000  0.5252070000000  0.5042980000000 1.0
C      1  0.4730910000000  0.4744160000000  0.4779020000000 1.0
C      1  0.4832410000000  0.5426260000000  0.5021310000000 1.0
C      1  0.4876740000000  0.4248450000000  0.4730400000000 1.0
C      1  0.5251840000000  0.5630400000000  0.4344370000000 1.0
C      1  0.5114600000000  0.5026140000000  0.5793490000000 1.0
C      1  0.4257450000000  0.5128700000000  0.4825310000000 1.0
C      1  0.4853980000000  0.4182530000000  0.5223940000000 1.0
C      1  0.4615440000000  0.4983640000000  0.5228510000000 1.0
C      1  0.4730150000000  0.5797270000000  0.4721040000000 1.0
C      1  0.4999560000000  0.4681230000000  0.5366800000000 1.0
C      1  0.5617960000000  0.5399210000000  0.4473270000000 1.0
C      1  0.4380010000000  0.5594200000000  0.4989440000000 1.0
C      1  0.5163960000000  0.5734050000000  0.5032210000000 1.0
C      1  0.5315520000000  0.4455700000000  0.4535920000000 1.0
C      1  0.5311060000000  0.4296570000000  0.5309990000000 1.0
END
