TITL C-4164240-4114-460 0.032025955941878 125000 -2708.18271648316 0 0 20 (C1) n - 1
REM
REM in /home/nfs/bkarasulu/CARBON/AIRSS/Generating-Clusters/ReaxFF-fromJPCA2015/Units_Real/with-SteepDescent/Only-C1/SD-CG/Try1-3A/FIRE-CG
REM
REM
REM
REM
REM
REM ./C.cell (11c1c37f851c82e70ff6c80c92926a4b)
REM
REM compiler GCC version 9.2.1 20190827 (Red Hat 9.2.1-1)
REM options -cpp -mtune=generic -march=x86-64 -g -O0 -fpre-include=/usr/include/finclude/math-vector-fortran.h
REM seed -918477747 -905306375 849179502 -804017272 -1962343865 2013071241 -899694565 1966913720 -37086956 1838661409 -1264572646 -401974073 384059634 1230437701 571212290 -104009743 -2040085413 1410891160 -845695884 990380915 942339015 451521212 728006430 97712404 -172297680 -1689710319 -863999539 2106288035 -464216643 -243062688 -1933971385 1990826268 -1524939467
REM
CELL 1.54180   50.00000   50.00000   50.00000   90.00000   90.00000   90.00000
LATT -1
SFAC C  
C      1  0.4623370000000  0.5015630000000  0.4741500000000 1.0
C      1  0.4844530000000  0.5303750000000  0.5869450000000 1.0
C      1  0.4889460000000  0.5181600000000  0.5147420000000 1.0
C      1  0.4594560000000  0.4712530000000  0.4704090000000 1.0
C      1  0.4822980000000  0.5185650000000  0.4865230000000 1.0
C      1  0.4682670000000  0.5369890000000  0.5639140000000 1.0
C      1  0.5117510000000  0.4732300000000  0.4307110000000 1.0
C      1  0.5012460000000  0.5109050000000  0.4436580000000 1.0
C      1  0.5207410000000  0.5012750000000  0.5519250000000 1.0
C      1  0.5281180000000  0.4852300000000  0.5052350000000 1.0
C      1  0.5173140000000  0.5118890000000  0.6035810000000 1.0
C      1  0.4726710000000  0.5303500000000  0.5344640000000 1.0
C      1  0.5109420000000  0.5126040000000  0.5790600000000 1.0
C      1  0.5479950000000  0.4580290000000  0.4655160000000 1.0
C      1  0.4897020000000  0.4902450000000  0.4291510000000 1.0
C      1  0.5387660000000  0.4717630000000  0.4871270000000 1.0
C      1  0.5334510000000  0.4575880000000  0.4362500000000 1.0
C      1  0.4647580000000  0.4887610000000  0.4467690000000 1.0
C      1  0.5028100000000  0.5296330000000  0.4653190000000 1.0
C      1  0.5139780000000  0.5015940000000  0.5245520000000 1.0
END
