TITL C-4164235-1454-476 -3.08625138507142 125000 -6673.66107025822 0 0 46 (C1) n - 1
REM
REM in /home/nfs/bkarasulu/CARBON/AIRSS/Generating-Clusters/ReaxFF-fromJPCA2015/Units_Real/with-SteepDescent/Only-C1/SD-CG/Try1-3A/FIRE-CG
REM
REM
REM
REM
REM
REM ./C.cell (11c1c37f851c82e70ff6c80c92926a4b)
REM
REM compiler GCC version 9.2.1 20190827 (Red Hat 9.2.1-1)
REM options -cpp -mtune=generic -march=x86-64 -g -O0 -fpre-include=/usr/include/finclude/math-vector-fortran.h
REM seed 1808866166 989386570 1777678383 1303978141 1204353196 -1963797612 773258 -797566057 567888069 1309246669 715168793 -856840413 -1224229804 547007377 -263426980 -930723796 -1092987800 -429209663 832891645 1642507740 -1461325671 -1270478449 -1037715617 812716728 126240579 372223122 -2133462309 -876919066 1438179129 -425497315 2079404375 956581350 -1355860378
REM
CELL 1.54180   50.00000   50.00000   50.00000   90.00000   90.00000   90.00000
LATT -1
SFAC C  
C      1  0.5385880000000  0.5332150000000  0.5167820000000 1.0
C      1  0.5118740000000  0.5781060000000  0.4828890000000 1.0
C      1  0.4787780000000  0.5650620000000  0.5177420000000 1.0
C      1  0.5046340000000  0.4659150000000  0.4976350000000 1.0
C      1  0.5416140000000  0.5177780000000  0.4491710000000 1.0
C      1  0.4908750000000  0.5513070000000  0.5390440000000 1.0
C      1  0.5097100000000  0.4468530000000  0.4762070000000 1.0
C      1  0.4970910000000  0.5101190000000  0.5163740000000 1.0
C      1  0.5486500000000  0.5405760000000  0.4903580000000 1.0
C      1  0.5232220000000  0.4971930000000  0.4426250000000 1.0
C      1  0.5018270000000  0.4992660000000  0.5436190000000 1.0
C      1  0.4910430000000  0.4555760000000  0.4592080000000 1.0
C      1  0.5635860000000  0.4729020000000  0.4716780000000 1.0
C      1  0.4426180000000  0.4689540000000  0.5468580000000 1.0
C      1  0.5487000000000  0.5076820000000  0.5297930000000 1.0
C      1  0.5204760000000  0.5386610000000  0.4527740000000 1.0
C      1  0.5739030000000  0.4962160000000  0.4850750000000 1.0
C      1  0.4834300000000  0.5725280000000  0.4906940000000 1.0
C      1  0.4374060000000  0.5143540000000  0.4963980000000 1.0
C      1  0.4537320000000  0.5340710000000  0.4851370000000 1.0
C      1  0.4692770000000  0.4618690000000  0.5532620000000 1.0
C      1  0.5715780000000  0.4964660000000  0.5155960000000 1.0
C      1  0.4776820000000  0.4487530000000  0.5271690000000 1.0
C      1  0.4553030000000  0.5103380000000  0.5455140000000 1.0
C      1  0.5309870000000  0.5578940000000  0.4729580000000 1.0
C      1  0.4893420000000  0.5036720000000  0.4646720000000 1.0
C      1  0.4599170000000  0.4552620000000  0.5049750000000 1.0
C      1  0.4380650000000  0.4717530000000  0.5189250000000 1.0
C      1  0.4762610000000  0.4904150000000  0.5558130000000 1.0
C      1  0.4878360000000  0.4924820000000  0.4936390000000 1.0
C      1  0.5433160000000  0.4409170000000  0.5377580000000 1.0
C      1  0.4548340000000  0.4928690000000  0.4863610000000 1.0
C      1  0.4364430000000  0.5010760000000  0.5234060000000 1.0
C      1  0.4656510000000  0.4542020000000  0.4756020000000 1.0
C      1  0.4447790000000  0.4745240000000  0.4655950000000 1.0
C      1  0.4993720000000  0.4825970000000  0.4466720000000 1.0
C      1  0.5295300000000  0.4914270000000  0.5456290000000 1.0
C      1  0.5270440000000  0.4607000000000  0.5434520000000 1.0
C      1  0.5416030000000  0.4702440000000  0.4813070000000 1.0
C      1  0.4726150000000  0.5494500000000  0.4726870000000 1.0
C      1  0.4676510000000  0.5355430000000  0.5421870000000 1.0
C      1  0.5060070000000  0.4503350000000  0.5219920000000 1.0
C      1  0.4926190000000  0.5318690000000  0.4586160000000 1.0
C      1  0.5317890000000  0.4528710000000  0.4640470000000 1.0
C      1  0.5096790000000  0.5363370000000  0.5186670000000 1.0
C      1  0.5590620000000  0.5197990000000  0.4734410000000 1.0
END
