TITL C-4164234-2335-29 -3.26149382505764 125000 -12551.9325529702 0 0 84 (C1) n - 1
REM
REM in /home/nfs/bkarasulu/CARBON/AIRSS/Generating-Clusters/ReaxFF-fromJPCA2015/Units_Real/with-SteepDescent/Only-C1/SD-CG/Try1-3A/FIRE-CG
REM
REM
REM
REM
REM
REM ./C.cell (11c1c37f851c82e70ff6c80c92926a4b)
REM
REM compiler GCC version 9.2.1 20190827 (Red Hat 9.2.1-1)
REM options -cpp -mtune=generic -march=x86-64 -g -O0 -fpre-include=/usr/include/finclude/math-vector-fortran.h
REM seed 1400899352 -1539637090 1924337728 1170221612 925437865 1219462906 -1277862106 897384764 1348130157 233066770 -757276059 1675396416 703649054 94079385 -974566736 255909066 1556395265 -1831967748 -364516328 377350775 1759375832 -1997160949 2057342489 1457484531 -290579110 2069126277 -844438558 -434634286 927088052 -623750796 -529078746 -1799695980 -484392739
REM
CELL 1.54180   50.00000   50.00000   50.00000   90.00000   90.00000   90.00000
LATT -1
SFAC C  
C      1  0.5355290000000  0.4693180000000  0.4686990000000 1.0
C      1  0.5800140000000  0.5251480000000  0.4869460000000 1.0
C      1  0.4795590000000  0.5721600000000  0.4530050000000 1.0
C      1  0.4831380000000  0.5554060000000  0.4275080000000 1.0
C      1  0.4864120000000  0.5168950000000  0.5089730000000 1.0
C      1  0.4641140000000  0.5045010000000  0.4305190000000 1.0
C      1  0.5436840000000  0.4532830000000  0.5611500000000 1.0
C      1  0.5203240000000  0.5491820000000  0.4590490000000 1.0
C      1  0.4463590000000  0.4660900000000  0.4535490000000 1.0
C      1  0.5096380000000  0.5761430000000  0.4511070000000 1.0
C      1  0.4253150000000  0.5423990000000  0.4871650000000 1.0
C      1  0.4571930000000  0.5028880000000  0.5444430000000 1.0
C      1  0.4487960000000  0.5709360000000  0.5159610000000 1.0
C      1  0.4935430000000  0.4633700000000  0.4396520000000 1.0
C      1  0.5346030000000  0.4239890000000  0.4841190000000 1.0
C      1  0.5826140000000  0.4973030000000  0.4842630000000 1.0
C      1  0.4552180000000  0.4735280000000  0.5014610000000 1.0
C      1  0.5098740000000  0.4738050000000  0.4103080000000 1.0
C      1  0.4424610000000  0.5457510000000  0.5297720000000 1.0
C      1  0.5605450000000  0.4628800000000  0.5393400000000 1.0
C      1  0.5371000000000  0.4801680000000  0.5701550000000 1.0
C      1  0.4635670000000  0.4451850000000  0.5294430000000 1.0
C      1  0.5818590000000  0.4786730000000  0.5069940000000 1.0
C      1  0.4203080000000  0.4765560000000  0.5302370000000 1.0
C      1  0.5395820000000  0.5368390000000  0.5618100000000 1.0
C      1  0.4937790000000  0.5232980000000  0.5800500000000 1.0
C      1  0.4889800000000  0.5226350000000  0.4265930000000 1.0
C      1  0.5246590000000  0.4972490000000  0.5908290000000 1.0
C      1  0.5080290000000  0.5684010000000  0.4233490000000 1.0
C      1  0.4573220000000  0.5307030000000  0.5488890000000 1.0
C      1  0.5514210000000  0.5159570000000  0.4510310000000 1.0
C      1  0.4738660000000  0.5841180000000  0.5050060000000 1.0
C      1  0.5645730000000  0.5481190000000  0.4898980000000 1.0
C      1  0.4959450000000  0.4417930000000  0.5706200000000 1.0
C      1  0.5507870000000  0.5127740000000  0.5220900000000 1.0
C      1  0.5192460000000  0.4899480000000  0.5494180000000 1.0
C      1  0.5399120000000  0.5024970000000  0.4273350000000 1.0
C      1  0.5136010000000  0.5049700000000  0.4153260000000 1.0
C      1  0.4140760000000  0.5045610000000  0.5240170000000 1.0
C      1  0.4468360000000  0.5327370000000  0.4692760000000 1.0
C      1  0.4758280000000  0.4915790000000  0.5236450000000 1.0
C      1  0.4604190000000  0.5191180000000  0.4910970000000 1.0
C      1  0.4844820000000  0.4403860000000  0.5083530000000 1.0
C      1  0.4326100000000  0.4906580000000  0.4616420000000 1.0
C      1  0.5417580000000  0.4524880000000  0.4448090000000 1.0
C      1  0.4297430000000  0.4960230000000  0.5458410000000 1.0
C      1  0.5229480000000  0.5264670000000  0.5837580000000 1.0
C      1  0.4639510000000  0.5771830000000  0.4768320000000 1.0
C      1  0.4434940000000  0.4961230000000  0.4882230000000 1.0
C      1  0.5368390000000  0.5057410000000  0.4977260000000 1.0
C      1  0.4379820000000  0.5691930000000  0.4890150000000 1.0
C      1  0.4581070000000  0.4537130000000  0.4772480000000 1.0
C      1  0.4418390000000  0.5137780000000  0.4466420000000 1.0
C      1  0.5017990000000  0.5040590000000  0.4684000000000 1.0
C      1  0.5268230000000  0.4121790000000  0.5083180000000 1.0
C      1  0.4233530000000  0.5304380000000  0.5143260000000 1.0
C      1  0.4960480000000  0.4937030000000  0.5851630000000 1.0
C      1  0.5085810000000  0.4787890000000  0.4603780000000 1.0
C      1  0.4995810000000  0.5345740000000  0.5329610000000 1.0
C      1  0.5371400000000  0.4513800000000  0.4967950000000 1.0
C      1  0.5100920000000  0.5097990000000  0.4933450000000 1.0
C      1  0.5251310000000  0.4305900000000  0.4564680000000 1.0
C      1  0.5530320000000  0.4962810000000  0.4743040000000 1.0
C      1  0.4972520000000  0.4366580000000  0.4549470000000 1.0
C      1  0.5220340000000  0.4337980000000  0.5576730000000 1.0
C      1  0.5591230000000  0.5428820000000  0.5184820000000 1.0
C      1  0.5268020000000  0.5177460000000  0.5421840000000 1.0
C      1  0.4986930000000  0.5772890000000  0.5158200000000 1.0
C      1  0.5228870000000  0.4188700000000  0.5333500000000 1.0
C      1  0.4397210000000  0.4586860000000  0.5201000000000 1.0
C      1  0.4709170000000  0.4487030000000  0.5576250000000 1.0
C      1  0.4662160000000  0.4762710000000  0.4348510000000 1.0
C      1  0.5153070000000  0.5609830000000  0.5283480000000 1.0
C      1  0.5703630000000  0.4896150000000  0.5313500000000 1.0
C      1  0.5021020000000  0.5270190000000  0.4530780000000 1.0
C      1  0.5390070000000  0.4724280000000  0.4237850000000 1.0
C      1  0.5096730000000  0.4536670000000  0.5149140000000 1.0
C      1  0.4798830000000  0.4356100000000  0.4785370000000 1.0
C      1  0.5434200000000  0.5553670000000  0.5394290000000 1.0
C      1  0.4839700000000  0.4674160000000  0.5778690000000 1.0
C      1  0.4826040000000  0.5372940000000  0.5570150000000 1.0
C      1  0.5638570000000  0.4549290000000  0.5113690000000 1.0
C      1  0.5016160000000  0.4766770000000  0.5308100000000 1.0
C      1  0.5485940000000  0.5416860000000  0.4638200000000 1.0
END
