TITL C-4164241-3639-295 -15.6230505503822 125000 -24327.0383541774 0 0 161 (C1) n - 1
REM
REM in /home/nfs/bkarasulu/CARBON/AIRSS/Generating-Clusters/ReaxFF-fromJPCA2015/Units_Real/with-SteepDescent/Only-C1/SD-CG/Try1-3A/FIRE-CG
REM
REM
REM
REM
REM
REM ./C.cell (11c1c37f851c82e70ff6c80c92926a4b)
REM
REM compiler GCC version 9.2.1 20190827 (Red Hat 9.2.1-1)
REM options -cpp -mtune=generic -march=x86-64 -g -O0 -fpre-include=/usr/include/finclude/math-vector-fortran.h
REM seed 1540080200 140524057 -520482920 -652779281 827279197 569647808 1014619138 -129159361 1546161752 -1045793765 -344590062 -930885026 1218253414 -1077877984 736024319 642877273 -505908315 537654413 241239671 120689811 -1108119436 -1025013474 825028610 -1882605103 -947336060 1035021288 400189210 425666889 1938457642 119951934 103435363 508004892 -2006361312
REM
CELL 1.54180   50.00000   50.00000   50.00000   90.00000   90.00000   90.00000
LATT -1
SFAC C  
C      1  0.5683750000000  0.4211820000000  0.5358650000000 1.0
C      1  0.5866050000000  0.4939940000000  0.5450490000000 1.0
C      1  0.6120760000000  0.4821030000000  0.4734480000000 1.0
C      1  0.4465210000000  0.4259960000000  0.4394450000000 1.0
C      1  0.5489250000000  0.4762260000000  0.4200300000000 1.0
C      1  0.5877790000000  0.5437700000000  0.5048790000000 1.0
C      1  0.4917380000000  0.4488940000000  0.5033200000000 1.0
C      1  0.4667100000000  0.4856870000000  0.5253730000000 1.0
C      1  0.4251870000000  0.5215260000000  0.4392140000000 1.0
C      1  0.4333210000000  0.5452000000000  0.4555540000000 1.0
C      1  0.4878300000000  0.5694360000000  0.4341690000000 1.0
C      1  0.4784690000000  0.6085970000000  0.5104510000000 1.0
C      1  0.4178460000000  0.4407800000000  0.5266250000000 1.0
C      1  0.4613320000000  0.4867930000000  0.3947490000000 1.0
C      1  0.5468790000000  0.4021910000000  0.5326110000000 1.0
C      1  0.5342040000000  0.6033250000000  0.4769950000000 1.0
C      1  0.4795090000000  0.5336920000000  0.5261250000000 1.0
C      1  0.4415580000000  0.4881110000000  0.4764210000000 1.0
C      1  0.4079800000000  0.5239770000000  0.5535730000000 1.0
C      1  0.5510860000000  0.4033300000000  0.4524290000000 1.0
C      1  0.4096070000000  0.4352930000000  0.4758010000000 1.0
C      1  0.5331760000000  0.5821320000000  0.5183790000000 1.0
C      1  0.4667620000000  0.3909280000000  0.4941510000000 1.0
C      1  0.4572210000000  0.4572950000000  0.3996400000000 1.0
C      1  0.4599260000000  0.4199950000000  0.5443420000000 1.0
C      1  0.5122550000000  0.6049710000000  0.4607970000000 1.0
C      1  0.5079180000000  0.5324850000000  0.3702720000000 1.0
C      1  0.4862090000000  0.4640560000000  0.4470840000000 1.0
C      1  0.5927720000000  0.4626860000000  0.5470600000000 1.0
C      1  0.4042230000000  0.5073740000000  0.4510900000000 1.0
C      1  0.4489780000000  0.4159570000000  0.4949920000000 1.0
C      1  0.4629360000000  0.5134970000000  0.5161940000000 1.0
C      1  0.4945390000000  0.5189970000000  0.5651510000000 1.0
C      1  0.4167540000000  0.5122820000000  0.5765170000000 1.0
C      1  0.5400650000000  0.4971610000000  0.5982530000000 1.0
C      1  0.4845120000000  0.3846720000000  0.5173650000000 1.0
C      1  0.4671780000000  0.5112780000000  0.5692340000000 1.0
C      1  0.4551220000000  0.5745450000000  0.5194030000000 1.0
C      1  0.5922770000000  0.4968690000000  0.4250940000000 1.0
C      1  0.5760080000000  0.4713040000000  0.4251350000000 1.0
C      1  0.4986650000000  0.4345990000000  0.5739370000000 1.0
C      1  0.4625700000000  0.5137780000000  0.4063160000000 1.0
C      1  0.5355500000000  0.5508200000000  0.4095740000000 1.0
C      1  0.5229650000000  0.4945460000000  0.4774250000000 1.0
C      1  0.5808600000000  0.5258400000000  0.4252020000000 1.0
C      1  0.4646360000000  0.5848130000000  0.4458230000000 1.0
C      1  0.5364520000000  0.5306860000000  0.5100300000000 1.0
C      1  0.5880590000000  0.5265360000000  0.4775060000000 1.0
C      1  0.4010320000000  0.5084470000000  0.5274300000000 1.0
C      1  0.4898480000000  0.3911860000000  0.4765640000000 1.0
C      1  0.4707760000000  0.5642950000000  0.5822890000000 1.0
C      1  0.5228130000000  0.4829260000000  0.4170450000000 1.0
C      1  0.4063780000000  0.4810200000000  0.5281590000000 1.0
C      1  0.5026640000000  0.4429930000000  0.4589820000000 1.0
C      1  0.5066100000000  0.5712780000000  0.5128750000000 1.0
C      1  0.4668790000000  0.6007770000000  0.4702730000000 1.0
C      1  0.4415430000000  0.4448000000000  0.4196960000000 1.0
C      1  0.4252360000000  0.5494920000000  0.5549250000000 1.0
C      1  0.5602580000000  0.5626140000000  0.4509280000000 1.0
C      1  0.4960410000000  0.4948450000000  0.4817250000000 1.0
C      1  0.4649280000000  0.4434270000000  0.4950870000000 1.0
C      1  0.5547060000000  0.4348480000000  0.4512910000000 1.0
C      1  0.4870310000000  0.6013860000000  0.5419270000000 1.0
C      1  0.5731080000000  0.4764660000000  0.5106130000000 1.0
C      1  0.5802000000000  0.5414250000000  0.4498350000000 1.0
C      1  0.4434820000000  0.4626540000000  0.4932250000000 1.0
C      1  0.4803810000000  0.3996830000000  0.5427440000000 1.0
C      1  0.6065910000000  0.4900620000000  0.4474560000000 1.0
C      1  0.4746200000000  0.5849360000000  0.5619990000000 1.0
C      1  0.5989860000000  0.5333710000000  0.5314840000000 1.0
C      1  0.5501580000000  0.5830960000000  0.5421200000000 1.0
C      1  0.5525710000000  0.5652240000000  0.4788740000000 1.0
C      1  0.5627650000000  0.4823400000000  0.4842120000000 1.0
C      1  0.5831730000000  0.5226200000000  0.5540810000000 1.0
C      1  0.4982290000000  0.4628190000000  0.4207320000000 1.0
C      1  0.5312600000000  0.4489640000000  0.4622770000000 1.0
C      1  0.4824850000000  0.5024830000000  0.4584130000000 1.0
C      1  0.4163080000000  0.4626630000000  0.5470590000000 1.0
C      1  0.4551400000000  0.5392050000000  0.4777160000000 1.0
C      1  0.4812800000000  0.4413680000000  0.4093910000000 1.0
C      1  0.5365960000000  0.4712020000000  0.4801600000000 1.0
C      1  0.5202370000000  0.4562880000000  0.5786120000000 1.0
C      1  0.5162140000000  0.4335130000000  0.5123960000000 1.0
C      1  0.4222440000000  0.5926950000000  0.4928150000000 1.0
C      1  0.5559130000000  0.3873130000000  0.4769770000000 1.0
C      1  0.4734070000000  0.4211230000000  0.4291530000000 1.0
C      1  0.3930990000000  0.5057090000000  0.4776820000000 1.0
C      1  0.4897980000000  0.5442550000000  0.5983550000000 1.0
C      1  0.4174770000000  0.5842530000000  0.4652400000000 1.0
C      1  0.4894900000000  0.6101390000000  0.4834260000000 1.0
C      1  0.5559160000000  0.4756350000000  0.5885730000000 1.0
C      1  0.4159930000000  0.4545410000000  0.5001410000000 1.0
C      1  0.5074730000000  0.5404220000000  0.3949710000000 1.0
C      1  0.4876960000000  0.4657220000000  0.5449140000000 1.0
C      1  0.4095320000000  0.5733180000000  0.5099010000000 1.0
C      1  0.5538630000000  0.4522110000000  0.5760730000000 1.0
C      1  0.4839160000000  0.5339250000000  0.4129120000000 1.0
C      1  0.4472650000000  0.5554110000000  0.5707970000000 1.0
C      1  0.4066580000000  0.5574180000000  0.4677750000000 1.0
C      1  0.5606400000000  0.4850220000000  0.5340020000000 1.0
C      1  0.4927970000000  0.5466120000000  0.4498970000000 1.0
C      1  0.4331740000000  0.4213240000000  0.4677550000000 1.0
C      1  0.5604460000000  0.5358360000000  0.5682250000000 1.0
C      1  0.4390580000000  0.4211520000000  0.5246800000000 1.0
C      1  0.4497520000000  0.5157120000000  0.4919880000000 1.0
C      1  0.5347180000000  0.5867590000000  0.5673810000000 1.0
C      1  0.4805220000000  0.5623010000000  0.5240650000000 1.0
C      1  0.5002680000000  0.5221400000000  0.5391620000000 1.0
C      1  0.4958960000000  0.5202070000000  0.4388610000000 1.0
C      1  0.4134360000000  0.4888190000000  0.4680100000000 1.0
C      1  0.5620470000000  0.5376890000000  0.5116770000000 1.0
C      1  0.5649110000000  0.5072980000000  0.4704060000000 1.0
C      1  0.5734660000000  0.4429450000000  0.5561500000000 1.0
C      1  0.4537020000000  0.5187700000000  0.5942940000000 1.0
C      1  0.4517060000000  0.5994710000000  0.4993700000000 1.0
C      1  0.4299340000000  0.5011810000000  0.5990990000000 1.0
C      1  0.5126790000000  0.5840610000000  0.4396310000000 1.0
C      1  0.5122890000000  0.5347730000000  0.5826330000000 1.0
C      1  0.5030520000000  0.4102250000000  0.5584760000000 1.0
C      1  0.4464590000000  0.5045750000000  0.4298640000000 1.0
C      1  0.5684260000000  0.4280450000000  0.5070530000000 1.0
C      1  0.4755310000000  0.4429860000000  0.5585400000000 1.0
C      1  0.5547530000000  0.5645330000000  0.5642270000000 1.0
C      1  0.5235570000000  0.4072850000000  0.4469700000000 1.0
C      1  0.4908400000000  0.4908090000000  0.6097150000000 1.0
C      1  0.4552520000000  0.4914890000000  0.5524120000000 1.0
C      1  0.5162620000000  0.4800860000000  0.5995380000000 1.0
C      1  0.5369670000000  0.5689580000000  0.4320780000000 1.0
C      1  0.5972720000000  0.4613730000000  0.5184520000000 1.0
C      1  0.5502790000000  0.5900330000000  0.4954290000000 1.0
C      1  0.5386780000000  0.3936080000000  0.5012220000000 1.0
C      1  0.5328240000000  0.4900040000000  0.5391370000000 1.0
C      1  0.5379920000000  0.5096400000000  0.4588260000000 1.0
C      1  0.5074250000000  0.3843930000000  0.4981460000000 1.0
C      1  0.4405300000000  0.4730730000000  0.5943240000000 1.0
C      1  0.5222820000000  0.4174990000000  0.5366010000000 1.0
C      1  0.4604400000000  0.4879130000000  0.4510510000000 1.0
C      1  0.5399270000000  0.4248430000000  0.4979370000000 1.0
C      1  0.5142190000000  0.4712340000000  0.5519130000000 1.0
C      1  0.5963560000000  0.4558670000000  0.4709120000000 1.0
C      1  0.6055700000000  0.5075930000000  0.5200940000000 1.0
C      1  0.4952430000000  0.4123850000000  0.4509070000000 1.0
C      1  0.5245630000000  0.5072710000000  0.4333100000000 1.0
C      1  0.6065480000000  0.5056200000000  0.4912320000000 1.0
C      1  0.4659350000000  0.4795000000000  0.6044910000000 1.0
C      1  0.4881680000000  0.4779820000000  0.5048480000000 1.0
C      1  0.4387630000000  0.4718110000000  0.5647460000000 1.0
C      1  0.5578100000000  0.5362950000000  0.4138280000000 1.0
C      1  0.5054680000000  0.5552120000000  0.4904950000000 1.0
C      1  0.3981780000000  0.5502300000000  0.4945320000000 1.0
C      1  0.4786200000000  0.5201470000000  0.6096830000000 1.0
C      1  0.5918670000000  0.4425520000000  0.4965930000000 1.0
C      1  0.5311740000000  0.5459180000000  0.4859790000000 1.0
C      1  0.4295270000000  0.5665560000000  0.5303510000000 1.0
C      1  0.5125040000000  0.5984240000000  0.5537720000000 1.0
C      1  0.5788650000000  0.4508680000000  0.4480860000000 1.0
C      1  0.3952710000000  0.5221480000000  0.5016890000000 1.0
C      1  0.5222910000000  0.5124520000000  0.5277850000000 1.0
C      1  0.5398900000000  0.5244360000000  0.5857850000000 1.0
C      1  0.4376880000000  0.5747810000000  0.4458300000000 1.0
C      1  0.4829020000000  0.5482600000000  0.4754670000000 1.0
END
