TITL C-4164232-771-711 36.6629994573903 125000 -21650.8827790949 0 0 147 (C1) n - 1
REM
REM in /home/nfs/bkarasulu/CARBON/AIRSS/Generating-Clusters/ReaxFF-fromJPCA2015/Units_Real/with-SteepDescent/Only-C1/SD-CG/Try1-3A/FIRE-CG
REM
REM
REM
REM
REM
REM ./C.cell (11c1c37f851c82e70ff6c80c92926a4b)
REM
REM compiler GCC version 9.2.1 20190827 (Red Hat 9.2.1-1)
REM options -cpp -mtune=generic -march=x86-64 -g -O0 -fpre-include=/usr/include/finclude/math-vector-fortran.h
REM seed -700483420 -930474560 1705172507 -1470719855 -725109550 429954296 1871057323 288745356 -1599459284 -1723133356 2032777313 2096511744 -976785839 1993238179 1644275658 1287007185 1519210516 -1201900880 -545788074 -417315895 614236859 -115534741 -245521374 499826060 -689065581 -2133014688 -1645249954 -352637633 -841987626 -564429057 313128780 847687166 1550348797
REM
CELL 1.54180   50.00000   50.00000   50.00000   90.00000   90.00000   90.00000
LATT -1
SFAC C  
C      1  0.4152320000000  0.5430650000000  0.4576510000000 1.0
C      1  0.5644070000000  0.4418020000000  0.4693000000000 1.0
C      1  0.5510410000000  0.4982030000000  0.4168670000000 1.0
C      1  0.4752790000000  0.4450760000000  0.5083560000000 1.0
C      1  0.4871970000000  0.4695860000000  0.4372060000000 1.0
C      1  0.5067390000000  0.4514750000000  0.4480590000000 1.0
C      1  0.4033230000000  0.4800680000000  0.4860450000000 1.0
C      1  0.4353380000000  0.5326430000000  0.5700030000000 1.0
C      1  0.5229310000000  0.5607580000000  0.4063630000000 1.0
C      1  0.5345600000000  0.4550190000000  0.5891970000000 1.0
C      1  0.5441180000000  0.5576970000000  0.4225750000000 1.0
C      1  0.4051560000000  0.5039980000000  0.5480060000000 1.0
C      1  0.5474940000000  0.4296840000000  0.5691740000000 1.0
C      1  0.5639810000000  0.4091200000000  0.5196330000000 1.0
C      1  0.5458250000000  0.4226760000000  0.4577780000000 1.0
C      1  0.4774920000000  0.5554200000000  0.4175520000000 1.0
C      1  0.5737930000000  0.5622280000000  0.4865390000000 1.0
C      1  0.4926250000000  0.5494310000000  0.4663540000000 1.0
C      1  0.5354790000000  0.4070490000000  0.5549700000000 1.0
C      1  0.4238110000000  0.4814770000000  0.5466680000000 1.0
C      1  0.4900950000000  0.4405490000000  0.5754920000000 1.0
C      1  0.4741830000000  0.5251440000000  0.5028310000000 1.0
C      1  0.4002150000000  0.5475740000000  0.4836970000000 1.0
C      1  0.4848080000000  0.5522620000000  0.5736440000000 1.0
C      1  0.5165500000000  0.5259430000000  0.5938430000000 1.0
C      1  0.5486600000000  0.5603030000000  0.4707280000000 1.0
C      1  0.5570480000000  0.5492860000000  0.5785640000000 1.0
C      1  0.4939530000000  0.5103970000000  0.5999010000000 1.0
C      1  0.5043260000000  0.5257450000000  0.4557480000000 1.0
C      1  0.4368330000000  0.4405710000000  0.4423610000000 1.0
C      1  0.5654760000000  0.4361250000000  0.5502390000000 1.0
C      1  0.5311130000000  0.4020900000000  0.4739470000000 1.0
C      1  0.5635620000000  0.5805830000000  0.5070510000000 1.0
C      1  0.4691950000000  0.4455070000000  0.5557600000000 1.0
C      1  0.6044030000000  0.5062780000000  0.5179170000000 1.0
C      1  0.5099170000000  0.3913760000000  0.5638540000000 1.0
C      1  0.4548780000000  0.5507460000000  0.4342370000000 1.0
C      1  0.4946550000000  0.5976990000000  0.4805290000000 1.0
C      1  0.4049880000000  0.5027460000000  0.4733070000000 1.0
C      1  0.4656580000000  0.5871140000000  0.5082860000000 1.0
C      1  0.4810860000000  0.4053270000000  0.4689390000000 1.0
C      1  0.5158290000000  0.5129060000000  0.4783220000000 1.0
C      1  0.4407170000000  0.5309640000000  0.4685940000000 1.0
C      1  0.5827430000000  0.5006310000000  0.5354980000000 1.0
C      1  0.5121770000000  0.5528700000000  0.5830000000000 1.0
C      1  0.4518110000000  0.5723810000000  0.4533120000000 1.0
C      1  0.5204420000000  0.4652120000000  0.4848870000000 1.0
C      1  0.4300270000000  0.4355830000000  0.5245480000000 1.0
C      1  0.4902460000000  0.3951030000000  0.5429960000000 1.0
C      1  0.5241800000000  0.5067770000000  0.4012630000000 1.0
C      1  0.5629900000000  0.5559290000000  0.4412980000000 1.0
C      1  0.5394750000000  0.4483350000000  0.4138470000000 1.0
C      1  0.5148810000000  0.5334820000000  0.3954990000000 1.0
C      1  0.5585800000000  0.4872930000000  0.4672170000000 1.0
C      1  0.4588460000000  0.4249930000000  0.4573410000000 1.0
C      1  0.4218570000000  0.5673080000000  0.4900020000000 1.0
C      1  0.5116180000000  0.5943710000000  0.4564130000000 1.0
C      1  0.4128360000000  0.4571130000000  0.5345140000000 1.0
C      1  0.4157800000000  0.5115940000000  0.5744010000000 1.0
C      1  0.5114010000000  0.5870060000000  0.5031050000000 1.0
C      1  0.4007470000000  0.4593770000000  0.5058320000000 1.0
C      1  0.5624360000000  0.5786620000000  0.5357400000000 1.0
C      1  0.4892170000000  0.5295680000000  0.4082180000000 1.0
C      1  0.5565860000000  0.4968870000000  0.5176650000000 1.0
C      1  0.4576410000000  0.5057250000000  0.4668710000000 1.0
C      1  0.4673010000000  0.5885750000000  0.4784380000000 1.0
C      1  0.5840170000000  0.5409120000000  0.5687310000000 1.0
C      1  0.5344750000000  0.4514570000000  0.5059380000000 1.0
C      1  0.5273250000000  0.4337380000000  0.4371920000000 1.0
C      1  0.4233730000000  0.4428060000000  0.4975030000000 1.0
C      1  0.5071650000000  0.4058580000000  0.4596200000000 1.0
C      1  0.5259870000000  0.4877610000000  0.5266050000000 1.0
C      1  0.4532620000000  0.4915450000000  0.4916090000000 1.0
C      1  0.5565240000000  0.4700320000000  0.4245010000000 1.0
C      1  0.4264870000000  0.4617450000000  0.4570680000000 1.0
C      1  0.5814530000000  0.5333040000000  0.4470790000000 1.0
C      1  0.5348000000000  0.5682130000000  0.5723670000000 1.0
C      1  0.4900890000000  0.3995330000000  0.4975330000000 1.0
C      1  0.5490880000000  0.4817930000000  0.5903510000000 1.0
C      1  0.5003690000000  0.5339210000000  0.5317250000000 1.0
C      1  0.4412510000000  0.5203020000000  0.4281740000000 1.0
C      1  0.5116190000000  0.5896250000000  0.5303890000000 1.0
C      1  0.5323870000000  0.4886470000000  0.4734660000000 1.0
C      1  0.4683280000000  0.4467350000000  0.4803150000000 1.0
C      1  0.4201380000000  0.5050110000000  0.4429330000000 1.0
C      1  0.5686530000000  0.4881170000000  0.4920440000000 1.0
C      1  0.5322270000000  0.5070550000000  0.5760620000000 1.0
C      1  0.4070160000000  0.5222010000000  0.5244320000000 1.0
C      1  0.5665560000000  0.5151780000000  0.4319640000000 1.0
C      1  0.4818850000000  0.5825670000000  0.5330130000000 1.0
C      1  0.5008600000000  0.5725160000000  0.4236680000000 1.0
C      1  0.4733050000000  0.4714620000000  0.5433380000000 1.0
C      1  0.5892060000000  0.5396510000000  0.4761280000000 1.0
C      1  0.5976630000000  0.4937920000000  0.4924940000000 1.0
C      1  0.5847180000000  0.5621900000000  0.5486250000000 1.0
C      1  0.4333360000000  0.5340530000000  0.5255510000000 1.0
C      1  0.5200280000000  0.5505050000000  0.5163220000000 1.0
C      1  0.5213790000000  0.4887320000000  0.5547740000000 1.0
C      1  0.5131760000000  0.4466450000000  0.5245220000000 1.0
C      1  0.4752600000000  0.5499710000000  0.4895060000000 1.0
C      1  0.3975920000000  0.5209910000000  0.4955560000000 1.0
C      1  0.5360850000000  0.5872610000000  0.4703230000000 1.0
C      1  0.5211910000000  0.4650100000000  0.4008030000000 1.0
C      1  0.4770680000000  0.5263230000000  0.5840620000000 1.0
C      1  0.5379330000000  0.5938170000000  0.4988820000000 1.0
C      1  0.4775350000000  0.4956260000000  0.4474310000000 1.0
C      1  0.5348670000000  0.5819840000000  0.5469010000000 1.0
C      1  0.4725140000000  0.4819260000000  0.4008090000000 1.0
C      1  0.4557720000000  0.5127220000000  0.5717300000000 1.0
C      1  0.5095970000000  0.4398510000000  0.5522390000000 1.0
C      1  0.4694670000000  0.5639810000000  0.5518150000000 1.0
C      1  0.6059810000000  0.5214900000000  0.4913260000000 1.0
C      1  0.5856290000000  0.5095600000000  0.5628610000000 1.0
C      1  0.4945170000000  0.5129110000000  0.4324330000000 1.0
C      1  0.5034110000000  0.5054900000000  0.5217040000000 1.0
C      1  0.4457100000000  0.5493330000000  0.4896380000000 1.0
C      1  0.5517890000000  0.5248290000000  0.5112370000000 1.0
C      1  0.5663090000000  0.4651920000000  0.4518910000000 1.0
C      1  0.4360790000000  0.4945330000000  0.5903390000000 1.0
C      1  0.5194230000000  0.3993160000000  0.5008410000000 1.0
C      1  0.4525520000000  0.4921650000000  0.5437630000000 1.0
C      1  0.5252790000000  0.4622090000000  0.5620560000000 1.0
C      1  0.4965170000000  0.4536970000000  0.4745220000000 1.0
C      1  0.4591110000000  0.4841410000000  0.5992080000000 1.0
C      1  0.4431320000000  0.5498930000000  0.5481550000000 1.0
C      1  0.4239550000000  0.5723520000000  0.4605670000000 1.0
C      1  0.4743230000000  0.4015100000000  0.5225120000000 1.0
C      1  0.5420650000000  0.5379190000000  0.5334540000000 1.0
C      1  0.4511850000000  0.5103790000000  0.5161760000000 1.0
C      1  0.4874710000000  0.4810610000000  0.6033280000000 1.0
C      1  0.4304350000000  0.4803530000000  0.4364540000000 1.0
C      1  0.5337110000000  0.5373370000000  0.4917550000000 1.0
C      1  0.5768370000000  0.4339110000000  0.5235400000000 1.0
C      1  0.4551200000000  0.5016610000000  0.4122650000000 1.0
C      1  0.4593470000000  0.4349130000000  0.4286460000000 1.0
C      1  0.5070310000000  0.5683500000000  0.4504300000000 1.0
C      1  0.4920770000000  0.5047580000000  0.4949800000000 1.0
C      1  0.5452930000000  0.5293260000000  0.5607640000000 1.0
C      1  0.4605310000000  0.4294810000000  0.5293990000000 1.0
C      1  0.5377750000000  0.4000440000000  0.5250380000000 1.0
C      1  0.4734720000000  0.4561590000000  0.4149900000000 1.0
C      1  0.5041030000000  0.4857760000000  0.3950550000000 1.0
C      1  0.4918930000000  0.4659700000000  0.5201330000000 1.0
C      1  0.4419440000000  0.4642190000000  0.4838950000000 1.0
C      1  0.5704470000000  0.4922130000000  0.5785450000000 1.0
C      1  0.5028520000000  0.4576920000000  0.5949730000000 1.0
C      1  0.5618850000000  0.4443120000000  0.4990400000000 1.0
END
