TITL C-4164240-4114-653 -1.88724665551053 125000 -7672.28999762757 0 0 53 (C1) n - 1
REM
REM in /home/nfs/bkarasulu/CARBON/AIRSS/Generating-Clusters/ReaxFF-fromJPCA2015/Units_Real/with-SteepDescent/Only-C1/SD-CG/Try1-3A/FIRE-CG
REM
REM
REM
REM
REM
REM ./C.cell (11c1c37f851c82e70ff6c80c92926a4b)
REM
REM compiler GCC version 9.2.1 20190827 (Red Hat 9.2.1-1)
REM options -cpp -mtune=generic -march=x86-64 -g -O0 -fpre-include=/usr/include/finclude/math-vector-fortran.h
REM seed 768352197 1864503151 1352782637 1503556257 -1442416224 31809513 1683161089 -704283303 707524978 131654307 -2058093056 1683710942 -711197448 756086767 296281571 1759798471 964809938 953092786 753465635 -636271894 1165679648 -1129563625 -2028482242 -1401204733 -651041011 753794806 946365531 90554682 -42289290 753426185 1718951959 1923280730 -781108251
REM
CELL 1.54180   50.00000   50.00000   50.00000   90.00000   90.00000   90.00000
LATT -1
SFAC C  
C      1  0.4307010000000  0.4495930000000  0.4735860000000 1.0
C      1  0.4601150000000  0.5206080000000  0.5540630000000 1.0
C      1  0.5277410000000  0.5677680000000  0.5339360000000 1.0
C      1  0.4736630000000  0.4821490000000  0.5225550000000 1.0
C      1  0.4682950000000  0.4991500000000  0.4559720000000 1.0
C      1  0.4333500000000  0.5255110000000  0.4907680000000 1.0
C      1  0.5104130000000  0.4390220000000  0.5202550000000 1.0
C      1  0.5272000000000  0.4623510000000  0.4629040000000 1.0
C      1  0.4638540000000  0.5545840000000  0.5140680000000 1.0
C      1  0.4726300000000  0.5245610000000  0.4419190000000 1.0
C      1  0.5258730000000  0.4793410000000  0.5684900000000 1.0
C      1  0.4660010000000  0.5488550000000  0.4603380000000 1.0
C      1  0.5511660000000  0.5449650000000  0.4973040000000 1.0
C      1  0.4951430000000  0.5136880000000  0.4272640000000 1.0
C      1  0.5262060000000  0.5446750000000  0.5509870000000 1.0
C      1  0.4363070000000  0.4683020000000  0.4949070000000 1.0
C      1  0.4926130000000  0.4937920000000  0.4744970000000 1.0
C      1  0.4434560000000  0.5373980000000  0.4708200000000 1.0
C      1  0.4811500000000  0.5586630000000  0.5329180000000 1.0
C      1  0.5436940000000  0.4951690000000  0.5013700000000 1.0
C      1  0.4760440000000  0.5590060000000  0.4861600000000 1.0
C      1  0.5449560000000  0.5004200000000  0.4346940000000 1.0
C      1  0.5147010000000  0.5172480000000  0.4638800000000 1.0
C      1  0.5748140000000  0.4659750000000  0.5094990000000 1.0
C      1  0.4797750000000  0.4373840000000  0.5497230000000 1.0
C      1  0.5472740000000  0.4559120000000  0.5372970000000 1.0
C      1  0.4754300000000  0.4949550000000  0.5527650000000 1.0
C      1  0.4434050000000  0.4848690000000  0.5141030000000 1.0
C      1  0.5183400000000  0.5059460000000  0.5145960000000 1.0
C      1  0.5051540000000  0.5653820000000  0.4861810000000 1.0
C      1  0.4790420000000  0.4529320000000  0.4488470000000 1.0
C      1  0.5556820000000  0.5186930000000  0.4854370000000 1.0
C      1  0.4498470000000  0.4503740000000  0.4493930000000 1.0
C      1  0.5107510000000  0.4330400000000  0.5490390000000 1.0
C      1  0.5324730000000  0.4749200000000  0.4368490000000 1.0
C      1  0.5369770000000  0.4488810000000  0.5115980000000 1.0
C      1  0.4985270000000  0.4645950000000  0.4665600000000 1.0
C      1  0.4831000000000  0.4511540000000  0.5234880000000 1.0
C      1  0.5126590000000  0.5438330000000  0.4709110000000 1.0
C      1  0.5417680000000  0.4670570000000  0.4886510000000 1.0
C      1  0.5436280000000  0.5179900000000  0.4580930000000 1.0
C      1  0.4928770000000  0.4974410000000  0.5051680000000 1.0
C      1  0.4614040000000  0.4754250000000  0.4405870000000 1.0
C      1  0.4992890000000  0.4885250000000  0.5640730000000 1.0
C      1  0.4475050000000  0.5325830000000  0.5298820000000 1.0
C      1  0.4316340000000  0.5123710000000  0.5146680000000 1.0
C      1  0.5593030000000  0.4821730000000  0.5304490000000 1.0
C      1  0.5285730000000  0.5173920000000  0.5407570000000 1.0
C      1  0.5180570000000  0.4975590000000  0.4214630000000 1.0
C      1  0.5298950000000  0.5644800000000  0.5048040000000 1.0
C      1  0.5307770000000  0.4516820000000  0.5591790000000 1.0
C      1  0.5441890000000  0.4961620000000  0.5527190000000 1.0
C      1  0.5025810000000  0.5635010000000  0.5495660000000 1.0
END
