TITL C-4164235-1454-7 -0.0787884705833734 125000 -10112.8789612897 0 0 68 (C1) n - 1
REM
REM in /home/nfs/bkarasulu/CARBON/AIRSS/Generating-Clusters/ReaxFF-fromJPCA2015/Units_Real/with-SteepDescent/Only-C1/SD-CG/Try1-3A/FIRE-CG
REM
REM
REM
REM
REM
REM ./C.cell (11c1c37f851c82e70ff6c80c92926a4b)
REM
REM compiler GCC version 9.2.1 20190827 (Red Hat 9.2.1-1)
REM options -cpp -mtune=generic -march=x86-64 -g -O0 -fpre-include=/usr/include/finclude/math-vector-fortran.h
REM seed 170435751 2027285306 -248732256 1676284410 -2087787979 192305476 -1815617452 2113590974 -2094422802 289825393 -939218209 1635905709 -1739766956 518991947 1914406721 1132922249 1131358995 1261293354 -1214555684 782889248 29050760 1634674072 1848969689 -1081478540 -658669782 -598728113 -363537221 -752238506 -902777207 -550580076 422647527 912267155 -26876136
REM
CELL 1.54180   50.00000   50.00000   50.00000   90.00000   90.00000   90.00000
LATT -1
SFAC C  
C      1  0.4313750000000  0.5397350000000  0.4927910000000 1.0
C      1  0.5077680000000  0.5795500000000  0.5430600000000 1.0
C      1  0.5257890000000  0.4692450000000  0.4333190000000 1.0
C      1  0.5572310000000  0.5253220000000  0.5533870000000 1.0
C      1  0.5113580000000  0.5293560000000  0.4960500000000 1.0
C      1  0.5284280000000  0.5466490000000  0.5106610000000 1.0
C      1  0.4646820000000  0.5291790000000  0.5535890000000 1.0
C      1  0.5059270000000  0.4843870000000  0.5069750000000 1.0
C      1  0.5418430000000  0.4541090000000  0.5461400000000 1.0
C      1  0.4740320000000  0.5763420000000  0.4733220000000 1.0
C      1  0.5027010000000  0.4573920000000  0.4426740000000 1.0
C      1  0.4660770000000  0.5085830000000  0.4966110000000 1.0
C      1  0.5355290000000  0.5124220000000  0.5696940000000 1.0
C      1  0.5113510000000  0.4940170000000  0.4228920000000 1.0
C      1  0.5428230000000  0.4303540000000  0.5321140000000 1.0
C      1  0.4709020000000  0.4668930000000  0.5625930000000 1.0
C      1  0.4295420000000  0.4822630000000  0.4999850000000 1.0
C      1  0.5454520000000  0.4723770000000  0.4548240000000 1.0
C      1  0.4878810000000  0.5695140000000  0.5379100000000 1.0
C      1  0.5193480000000  0.4226090000000  0.5328560000000 1.0
C      1  0.4720780000000  0.4559830000000  0.5029650000000 1.0
C      1  0.5577610000000  0.5542950000000  0.4845050000000 1.0
C      1  0.5207200000000  0.5638690000000  0.4471150000000 1.0
C      1  0.4555710000000  0.4541710000000  0.4582350000000 1.0
C      1  0.5615190000000  0.4810010000000  0.5010700000000 1.0
C      1  0.4546270000000  0.4468980000000  0.5254760000000 1.0
C      1  0.5002070000000  0.4502790000000  0.5023660000000 1.0
C      1  0.4782310000000  0.4840110000000  0.4960760000000 1.0
C      1  0.5263450000000  0.5188420000000  0.4320680000000 1.0
C      1  0.4962250000000  0.5059790000000  0.5260320000000 1.0
C      1  0.5106980000000  0.5441360000000  0.4286890000000 1.0
C      1  0.4358550000000  0.4691920000000  0.5258440000000 1.0
C      1  0.5584200000000  0.5474880000000  0.5113770000000 1.0
C      1  0.5487280000000  0.4300840000000  0.5046570000000 1.0
C      1  0.4924450000000  0.5737280000000  0.4524850000000 1.0
C      1  0.4349810000000  0.4686720000000  0.4741980000000 1.0
C      1  0.4715040000000  0.4415880000000  0.5491760000000 1.0
C      1  0.5085630000000  0.5023350000000  0.5742660000000 1.0
C      1  0.4845750000000  0.4441020000000  0.4571020000000 1.0
C      1  0.4426290000000  0.5103950000000  0.5570220000000 1.0
C      1  0.5556000000000  0.5527470000000  0.5403720000000 1.0
C      1  0.4472320000000  0.4809320000000  0.5504550000000 1.0
C      1  0.4376980000000  0.5104570000000  0.4995930000000 1.0
C      1  0.4983670000000  0.4746130000000  0.5704220000000 1.0
C      1  0.5046510000000  0.4342170000000  0.4792090000000 1.0
C      1  0.4826780000000  0.5507180000000  0.4364930000000 1.0
C      1  0.5274110000000  0.5590750000000  0.5364750000000 1.0
C      1  0.4996440000000  0.4317150000000  0.5499240000000 1.0
C      1  0.5335960000000  0.4285240000000  0.4792210000000 1.0
C      1  0.4850060000000  0.5272530000000  0.5088570000000 1.0
C      1  0.4456440000000  0.5390660000000  0.4683310000000 1.0
C      1  0.4602470000000  0.5026550000000  0.4372080000000 1.0
C      1  0.4900410000000  0.5132800000000  0.5529430000000 1.0
C      1  0.4447020000000  0.4787270000000  0.4483420000000 1.0
C      1  0.5584240000000  0.5037630000000  0.5353830000000 1.0
C      1  0.4599740000000  0.5332860000000  0.4453480000000 1.0
C      1  0.5205840000000  0.5031010000000  0.4888650000000 1.0
C      1  0.4849660000000  0.4982310000000  0.4302080000000 1.0
C      1  0.5456850000000  0.4960460000000  0.4741700000000 1.0
C      1  0.5165060000000  0.4536220000000  0.5606630000000 1.0
C      1  0.5447460000000  0.5494670000000  0.4597010000000 1.0
C      1  0.4561030000000  0.5733780000000  0.4908980000000 1.0
C      1  0.5649950000000  0.4534520000000  0.4933410000000 1.0
C      1  0.4672520000000  0.5494000000000  0.5299390000000 1.0
C      1  0.5442460000000  0.5203580000000  0.4538800000000 1.0
C      1  0.5544570000000  0.4785040000000  0.5290700000000 1.0
C      1  0.4446840000000  0.5586840000000  0.5116820000000 1.0
C      1  0.5531370000000  0.4473800000000  0.4668380000000 1.0
END
