TITL C-4164239-2837-215 0.126720527256814 125000 -5413.3367715457 0 0 38 (C1) n - 1
REM
REM in /home/nfs/bkarasulu/CARBON/AIRSS/Generating-Clusters/ReaxFF-fromJPCA2015/Units_Real/with-SteepDescent/Only-C1/SD-CG/Try1-3A/FIRE-CG
REM
REM
REM
REM
REM
REM ./C.cell (11c1c37f851c82e70ff6c80c92926a4b)
REM
REM compiler GCC version 9.2.1 20190827 (Red Hat 9.2.1-1)
REM options -cpp -mtune=generic -march=x86-64 -g -O0 -fpre-include=/usr/include/finclude/math-vector-fortran.h
REM seed 23976184 -5858969 -733486094 -824308948 -1957533537 1252168614 -52944374 -1836717491 404443387 1247956481 -1177709893 -892857908 202063005 -174392612 1373867047 -912199418 -1449219332 405305663 1641755437 109758819 -1072099850 1584517443 1122804359 -1488212544 -379778780 92253906 1050001093 -788881927 1495659999 -1153527428 -848880003 955513720 -1127363801
REM
CELL 1.54180   50.00000   50.00000   50.00000   90.00000   90.00000   90.00000
LATT -1
SFAC C  
C      1  0.5308330000000  0.4399880000000  0.5109010000000 1.0
C      1  0.4521490000000  0.5201140000000  0.5155280000000 1.0
C      1  0.5311890000000  0.5141110000000  0.4599350000000 1.0
C      1  0.4441150000000  0.4888050000000  0.5174100000000 1.0
C      1  0.5090260000000  0.4590560000000  0.5478750000000 1.0
C      1  0.4868710000000  0.4779310000000  0.5406550000000 1.0
C      1  0.5031030000000  0.4300380000000  0.5539560000000 1.0
C      1  0.5506940000000  0.4978300000000  0.5004900000000 1.0
C      1  0.4970970000000  0.5361600000000  0.4880900000000 1.0
C      1  0.4666730000000  0.4548040000000  0.4881950000000 1.0
C      1  0.5344620000000  0.4866780000000  0.4489960000000 1.0
C      1  0.4873680000000  0.5477840000000  0.5422950000000 1.0
C      1  0.5504350000000  0.5180260000000  0.4821740000000 1.0
C      1  0.5183960000000  0.4200140000000  0.5298280000000 1.0
C      1  0.5186260000000  0.4670470000000  0.4377730000000 1.0
C      1  0.5326660000000  0.4607210000000  0.5309710000000 1.0
C      1  0.4364080000000  0.5379190000000  0.4958880000000 1.0
C      1  0.5423930000000  0.5136310000000  0.5366450000000 1.0
C      1  0.4554960000000  0.4750920000000  0.5404540000000 1.0
C      1  0.5644720000000  0.5640140000000  0.4949150000000 1.0
C      1  0.5543130000000  0.5422160000000  0.5030300000000 1.0
C      1  0.4599480000000  0.5450010000000  0.4454230000000 1.0
C      1  0.5086020000000  0.5524700000000  0.5074710000000 1.0
C      1  0.5176570000000  0.4446790000000  0.4843410000000 1.0
C      1  0.5399900000000  0.5409190000000  0.5321370000000 1.0
C      1  0.5476690000000  0.4876450000000  0.5264880000000 1.0
C      1  0.5062810000000  0.5285440000000  0.4606710000000 1.0
C      1  0.4652600000000  0.5045370000000  0.4542170000000 1.0
C      1  0.4820850000000  0.5241400000000  0.4442440000000 1.0
C      1  0.5307880000000  0.4576930000000  0.4606630000000 1.0
C      1  0.4416840000000  0.5474900000000  0.4694030000000 1.0
C      1  0.4527610000000  0.4867190000000  0.4681310000000 1.0
C      1  0.4801190000000  0.5152250000000  0.5036830000000 1.0
C      1  0.4631860000000  0.5370410000000  0.5431310000000 1.0
C      1  0.4452200000000  0.4729210000000  0.4914560000000 1.0
C      1  0.4910390000000  0.4496320000000  0.4864520000000 1.0
C      1  0.4874870000000  0.4967190000000  0.5213260000000 1.0
C      1  0.5134400000000  0.5566450000000  0.5347590000000 1.0
END
