TITL C-4164235-1454-317 12.5826187642924 125000 -15623.9001638007 0 0 106 (C1) n - 1
REM
REM in /home/nfs/bkarasulu/CARBON/AIRSS/Generating-Clusters/ReaxFF-fromJPCA2015/Units_Real/with-SteepDescent/Only-C1/SD-CG/Try1-3A/FIRE-CG
REM
REM
REM
REM
REM
REM ./C.cell (11c1c37f851c82e70ff6c80c92926a4b)
REM
REM compiler GCC version 9.2.1 20190827 (Red Hat 9.2.1-1)
REM options -cpp -mtune=generic -march=x86-64 -g -O0 -fpre-include=/usr/include/finclude/math-vector-fortran.h
REM seed -897519458 1936982574 -2021977345 1274597436 -716842084 242869632 1592823911 1275228664 1848904028 -145670828 378737552 -321704341 432823314 -1425490437 896611653 -97470430 1604041395 608083795 -2048667280 1248767361 2095132003 -273109680 -1129453362 1524859458 -1611653562 243837723 499680996 269556111 1603567607 2057205492 1934680326 -372042243 368724033
REM
CELL 1.54180   50.00000   50.00000   50.00000   90.00000   90.00000   90.00000
LATT -1
SFAC C  
C      1  0.4269370000000  0.4564050000000  0.4599750000000 1.0
C      1  0.5193090000000  0.5060600000000  0.4479940000000 1.0
C      1  0.5752810000000  0.4770750000000  0.4606710000000 1.0
C      1  0.5802250000000  0.5326750000000  0.5281710000000 1.0
C      1  0.4767860000000  0.4970430000000  0.5141690000000 1.0
C      1  0.4781660000000  0.5578420000000  0.5253830000000 1.0
C      1  0.4973150000000  0.5716620000000  0.5582650000000 1.0
C      1  0.5170620000000  0.5729560000000  0.4423310000000 1.0
C      1  0.5340120000000  0.5052130000000  0.4943690000000 1.0
C      1  0.4692540000000  0.5044550000000  0.5806180000000 1.0
C      1  0.5415300000000  0.5222590000000  0.4344160000000 1.0
C      1  0.4643460000000  0.4539280000000  0.4410910000000 1.0
C      1  0.5205810000000  0.4276530000000  0.5456610000000 1.0
C      1  0.4233090000000  0.4887980000000  0.4561220000000 1.0
C      1  0.4858530000000  0.5185150000000  0.4755120000000 1.0
C      1  0.4236460000000  0.5087180000000  0.4774540000000 1.0
C      1  0.5381980000000  0.5258610000000  0.5126720000000 1.0
C      1  0.4693950000000  0.4703100000000  0.5101420000000 1.0
C      1  0.5321170000000  0.4251910000000  0.4600260000000 1.0
C      1  0.5662830000000  0.5265070000000  0.4793720000000 1.0
C      1  0.4392700000000  0.4426150000000  0.4386300000000 1.0
C      1  0.5456270000000  0.5684860000000  0.5405060000000 1.0
C      1  0.4660440000000  0.4767700000000  0.4595460000000 1.0
C      1  0.5294670000000  0.4896650000000  0.4019710000000 1.0
C      1  0.4988390000000  0.4961480000000  0.4323440000000 1.0
C      1  0.4691350000000  0.5715300000000  0.4839780000000 1.0
C      1  0.5867310000000  0.4849730000000  0.5073720000000 1.0
C      1  0.4378600000000  0.4465410000000  0.4856790000000 1.0
C      1  0.5052910000000  0.4754850000000  0.4111710000000 1.0
C      1  0.5724540000000  0.4518350000000  0.4719170000000 1.0
C      1  0.5174520000000  0.4439110000000  0.4948730000000 1.0
C      1  0.5558600000000  0.4705660000000  0.4383900000000 1.0
C      1  0.5698320000000  0.4379850000000  0.4957470000000 1.0
C      1  0.4215690000000  0.4927200000000  0.5026920000000 1.0
C      1  0.4685330000000  0.5645250000000  0.4558030000000 1.0
C      1  0.5127600000000  0.5084180000000  0.4750640000000 1.0
C      1  0.5040720000000  0.5502370000000  0.5152100000000 1.0
C      1  0.5010870000000  0.4554450000000  0.4741250000000 1.0
C      1  0.4425160000000  0.4679170000000  0.5748920000000 1.0
C      1  0.5648900000000  0.5470990000000  0.5489570000000 1.0
C      1  0.4887410000000  0.5843580000000  0.5284580000000 1.0
C      1  0.4924900000000  0.4558730000000  0.5731540000000 1.0
C      1  0.4284600000000  0.5066710000000  0.5275130000000 1.0
C      1  0.5744240000000  0.4973170000000  0.4829410000000 1.0
C      1  0.4197720000000  0.4830730000000  0.5434000000000 1.0
C      1  0.4567990000000  0.5123330000000  0.5237450000000 1.0
C      1  0.4377570000000  0.4680790000000  0.5031990000000 1.0
C      1  0.5629180000000  0.5405210000000  0.5055510000000 1.0
C      1  0.5373970000000  0.4460950000000  0.4394170000000 1.0
C      1  0.4329830000000  0.5042460000000  0.4359360000000 1.0
C      1  0.5638910000000  0.4582340000000  0.5424990000000 1.0
C      1  0.5129930000000  0.4506890000000  0.4256200000000 1.0
C      1  0.5313980000000  0.5659630000000  0.5145960000000 1.0
C      1  0.5297890000000  0.5424920000000  0.5722400000000 1.0
C      1  0.4412630000000  0.5386340000000  0.5506560000000 1.0
C      1  0.4887630000000  0.5252190000000  0.5885260000000 1.0
C      1  0.5418860000000  0.4286260000000  0.4870040000000 1.0
C      1  0.4600600000000  0.4253400000000  0.4951390000000 1.0
C      1  0.4468150000000  0.5554810000000  0.4952830000000 1.0
C      1  0.4707840000000  0.5212210000000  0.5001060000000 1.0
C      1  0.4924810000000  0.5843530000000  0.4984520000000 1.0
C      1  0.4852130000000  0.5502960000000  0.5713440000000 1.0
C      1  0.5775370000000  0.4570990000000  0.5173170000000 1.0
C      1  0.5130950000000  0.5138680000000  0.3960050000000 1.0
C      1  0.5490710000000  0.4935150000000  0.4225830000000 1.0
C      1  0.4445200000000  0.5145970000000  0.5687320000000 1.0
C      1  0.4793650000000  0.5010670000000  0.4524050000000 1.0
C      1  0.4419950000000  0.5284020000000  0.4257830000000 1.0
C      1  0.5091210000000  0.5060780000000  0.5924160000000 1.0
C      1  0.5249280000000  0.4647730000000  0.5144520000000 1.0
C      1  0.5489420000000  0.5395140000000  0.4605270000000 1.0
C      1  0.4843420000000  0.5089550000000  0.3966490000000 1.0
C      1  0.5457210000000  0.4838630000000  0.5095890000000 1.0
C      1  0.4466920000000  0.5457510000000  0.4508390000000 1.0
C      1  0.5207070000000  0.4606860000000  0.5770180000000 1.0
C      1  0.5260310000000  0.5699340000000  0.5620270000000 1.0
C      1  0.5205910000000  0.5765260000000  0.4898090000000 1.0
C      1  0.4900680000000  0.5706860000000  0.4369580000000 1.0
C      1  0.5102060000000  0.4781630000000  0.5343180000000 1.0
C      1  0.5234780000000  0.5348290000000  0.4136170000000 1.0
C      1  0.4710160000000  0.4744690000000  0.5797700000000 1.0
C      1  0.5549560000000  0.5292310000000  0.5698960000000 1.0
C      1  0.4815510000000  0.4722920000000  0.4834930000000 1.0
C      1  0.5845940000000  0.5038830000000  0.5295840000000 1.0
C      1  0.5395160000000  0.4462710000000  0.5571030000000 1.0
C      1  0.5142230000000  0.5291520000000  0.5267790000000 1.0
C      1  0.4278010000000  0.4913300000000  0.5690890000000 1.0
C      1  0.5316240000000  0.5626540000000  0.4655520000000 1.0
C      1  0.4863770000000  0.4623540000000  0.5334420000000 1.0
C      1  0.4858720000000  0.4189550000000  0.4861570000000 1.0
C      1  0.5093020000000  0.5588700000000  0.4192050000000 1.0
C      1  0.5290530000000  0.4863450000000  0.5896140000000 1.0
C      1  0.4617590000000  0.5518850000000  0.5632780000000 1.0
C      1  0.4614160000000  0.5162250000000  0.4088260000000 1.0
C      1  0.4666310000000  0.4233810000000  0.5233620000000 1.0
C      1  0.4492620000000  0.5522020000000  0.5239770000000 1.0
C      1  0.5114210000000  0.5253480000000  0.5546040000000 1.0
C      1  0.5035070000000  0.4160940000000  0.4634380000000 1.0
C      1  0.5614020000000  0.4876600000000  0.5398420000000 1.0
C      1  0.4349670000000  0.5366850000000  0.4752730000000 1.0
C      1  0.5472280000000  0.5000510000000  0.5662180000000 1.0
C      1  0.4478580000000  0.4378700000000  0.5363760000000 1.0
C      1  0.4906460000000  0.4361290000000  0.5456510000000 1.0
C      1  0.4308680000000  0.4552030000000  0.5507530000000 1.0
C      1  0.5205330000000  0.4988560000000  0.5521500000000 1.0
C      1  0.4942330000000  0.4411880000000  0.4474580000000 1.0
END
