TITL C-4164232-771-752 155.130182960383 125000 -25546.1585867466 0 0 175 (C1) n - 1
REM
REM in /home/nfs/bkarasulu/CARBON/AIRSS/Generating-Clusters/ReaxFF-fromJPCA2015/Units_Real/with-SteepDescent/Only-C1/SD-CG/Try1-3A/FIRE-CG
REM
REM
REM
REM
REM
REM ./C.cell (11c1c37f851c82e70ff6c80c92926a4b)
REM
REM compiler GCC version 9.2.1 20190827 (Red Hat 9.2.1-1)
REM options -cpp -mtune=generic -march=x86-64 -g -O0 -fpre-include=/usr/include/finclude/math-vector-fortran.h
REM seed 561678405 -1686362198 436740914 1787020385 1382144473 1785835335 1917216544 -1682922400 586928040 -260679147 -1754440198 1801314694 -1546988426 -2039214340 -2130371407 -139076317 75824693 642640188 -2084286336 1487474627 818314896 1738764494 236533098 -765980788 78746228 -1973833832 -2143899088 -1317671202 378075384 -1681161162 -1399706083 -1373939375 1910634373
REM
CELL 1.54180   50.00000   50.00000   50.00000   90.00000   90.00000   90.00000
LATT -1
SFAC C  
C      1  0.4455740000000  0.4386060000000  0.4228260000000 1.0
C      1  0.5361220000000  0.3926120000000  0.5025750000000 1.0
C      1  0.5363620000000  0.5023940000000  0.4825810000000 1.0
C      1  0.4371750000000  0.4927620000000  0.5869400000000 1.0
C      1  0.4781130000000  0.5216210000000  0.4593440000000 1.0
C      1  0.4186610000000  0.4795740000000  0.4520330000000 1.0
C      1  0.5491810000000  0.5571430000000  0.5672410000000 1.0
C      1  0.5386620000000  0.4563060000000  0.4235240000000 1.0
C      1  0.5234580000000  0.5001580000000  0.5083640000000 1.0
C      1  0.5426610000000  0.5095040000000  0.4367050000000 1.0
C      1  0.4354330000000  0.4224630000000  0.5158310000000 1.0
C      1  0.6069090000000  0.4452960000000  0.5086220000000 1.0
C      1  0.4584010000000  0.5458780000000  0.5178870000000 1.0
C      1  0.4276930000000  0.5357060000000  0.5617580000000 1.0
C      1  0.3991040000000  0.4896290000000  0.5302470000000 1.0
C      1  0.4512340000000  0.4828290000000  0.4807580000000 1.0
C      1  0.4474830000000  0.5120990000000  0.5638570000000 1.0
C      1  0.5501710000000  0.5055230000000  0.5381650000000 1.0
C      1  0.4885660000000  0.4268620000000  0.5141380000000 1.0
C      1  0.5002800000000  0.6017660000000  0.4604840000000 1.0
C      1  0.4192970000000  0.5803930000000  0.4961340000000 1.0
C      1  0.4738750000000  0.4881560000000  0.5285610000000 1.0
C      1  0.4117330000000  0.5396750000000  0.5375770000000 1.0
C      1  0.4465640000000  0.4186610000000  0.5440070000000 1.0
C      1  0.5226000000000  0.5035520000000  0.5486280000000 1.0
C      1  0.5348730000000  0.5794980000000  0.5539390000000 1.0
C      1  0.5294400000000  0.4283460000000  0.4576810000000 1.0
C      1  0.4928980000000  0.4767570000000  0.4715820000000 1.0
C      1  0.4360640000000  0.5902420000000  0.5185960000000 1.0
C      1  0.5107260000000  0.3785150000000  0.5013760000000 1.0
C      1  0.4782450000000  0.4008620000000  0.5103010000000 1.0
C      1  0.5246980000000  0.4802710000000  0.4354910000000 1.0
C      1  0.4410170000000  0.4472850000000  0.5026490000000 1.0
C      1  0.4490340000000  0.5521670000000  0.5772430000000 1.0
C      1  0.5482110000000  0.4449890000000  0.4777310000000 1.0
C      1  0.5552730000000  0.5617800000000  0.4262480000000 1.0
C      1  0.5398380000000  0.4288870000000  0.4319470000000 1.0
C      1  0.4345260000000  0.4612500000000  0.4699350000000 1.0
C      1  0.4961850000000  0.4286020000000  0.4573480000000 1.0
C      1  0.5184190000000  0.4570400000000  0.5392050000000 1.0
C      1  0.4822720000000  0.4523000000000  0.4568310000000 1.0
C      1  0.5934280000000  0.5194390000000  0.4516130000000 1.0
C      1  0.5990650000000  0.5593620000000  0.5115220000000 1.0
C      1  0.4877030000000  0.5493140000000  0.5591980000000 1.0
C      1  0.4802460000000  0.5499450000000  0.4663020000000 1.0
C      1  0.5795320000000  0.5059950000000  0.4991070000000 1.0
C      1  0.5707450000000  0.4786630000000  0.4919100000000 1.0
C      1  0.5612210000000  0.5237770000000  0.5131330000000 1.0
C      1  0.5122600000000  0.5970870000000  0.4870210000000 1.0
C      1  0.5375210000000  0.4126350000000  0.5274170000000 1.0
C      1  0.4425970000000  0.4418700000000  0.5615100000000 1.0
C      1  0.5737480000000  0.5662850000000  0.4510890000000 1.0
C      1  0.5384490000000  0.5910920000000  0.5265280000000 1.0
C      1  0.5386240000000  0.4570770000000  0.5635040000000 1.0
C      1  0.4484030000000  0.5697830000000  0.5353970000000 1.0
C      1  0.5487170000000  0.3966040000000  0.4762020000000 1.0
C      1  0.5375790000000  0.5109030000000  0.5927210000000 1.0
C      1  0.4734690000000  0.6114310000000  0.4905550000000 1.0
C      1  0.4187970000000  0.4724630000000  0.5758370000000 1.0
C      1  0.5240850000000  0.4011200000000  0.5544020000000 1.0
C      1  0.4346290000000  0.5566050000000  0.4389560000000 1.0
C      1  0.5626560000000  0.4724310000000  0.5645310000000 1.0
C      1  0.4535730000000  0.5070690000000  0.4595260000000 1.0
C      1  0.4624490000000  0.4552880000000  0.4044280000000 1.0
C      1  0.4507920000000  0.5909630000000  0.4557730000000 1.0
C      1  0.5559000000000  0.5832980000000  0.5019090000000 1.0
C      1  0.5307440000000  0.4711680000000  0.5159760000000 1.0
C      1  0.4520470000000  0.4425230000000  0.4546440000000 1.0
C      1  0.4674210000000  0.5368580000000  0.5939400000000 1.0
C      1  0.4902210000000  0.5464310000000  0.4095540000000 1.0
C      1  0.5235740000000  0.4548320000000  0.6107520000000 1.0
C      1  0.5384690000000  0.4114380000000  0.5773000000000 1.0
C      1  0.4728100000000  0.5005440000000  0.4257400000000 1.0
C      1  0.5592830000000  0.4632380000000  0.5134830000000 1.0
C      1  0.4851990000000  0.5715010000000  0.4234350000000 1.0
C      1  0.5163080000000  0.5376470000000  0.3976970000000 1.0
C      1  0.4003740000000  0.4745180000000  0.5539470000000 1.0
C      1  0.4412260000000  0.5357790000000  0.4197220000000 1.0
C      1  0.3877730000000  0.4817420000000  0.5049840000000 1.0
C      1  0.4983070000000  0.5132020000000  0.5034640000000 1.0
C      1  0.4475050000000  0.4898040000000  0.5415910000000 1.0
C      1  0.6047040000000  0.5032100000000  0.5144910000000 1.0
C      1  0.5056490000000  0.5124170000000  0.3898050000000 1.0
C      1  0.4067650000000  0.4304800000000  0.4866040000000 1.0
C      1  0.4885690000000  0.5949060000000  0.5310570000000 1.0
C      1  0.4549380000000  0.4281400000000  0.4000370000000 1.0
C      1  0.4714130000000  0.4414430000000  0.5695950000000 1.0
C      1  0.4289850000000  0.4113730000000  0.4875550000000 1.0
C      1  0.4720490000000  0.6106780000000  0.4626660000000 1.0
C      1  0.4622800000000  0.6049400000000  0.5149800000000 1.0
C      1  0.5702240000000  0.4612330000000  0.4692270000000 1.0
C      1  0.5323500000000  0.5767710000000  0.4865800000000 1.0
C      1  0.5131770000000  0.5484420000000  0.5211970000000 1.0
C      1  0.5158710000000  0.5286040000000  0.5390830000000 1.0
C      1  0.5937080000000  0.5472870000000  0.4605520000000 1.0
C      1  0.5154970000000  0.4329810000000  0.5222670000000 1.0
C      1  0.4294990000000  0.4874430000000  0.4257660000000 1.0
C      1  0.4312690000000  0.4648880000000  0.5489800000000 1.0
C      1  0.6184560000000  0.5176840000000  0.4917510000000 1.0
C      1  0.5572700000000  0.4636630000000  0.4021770000000 1.0
C      1  0.5061240000000  0.5849250000000  0.4371310000000 1.0
C      1  0.5609300000000  0.4967620000000  0.5802080000000 1.0
C      1  0.4777110000000  0.5187370000000  0.5256760000000 1.0
C      1  0.4782570000000  0.4074240000000  0.4660000000000 1.0
C      1  0.5687080000000  0.4202700000000  0.5367340000000 1.0
C      1  0.5092300000000  0.5448250000000  0.4677880000000 1.0
C      1  0.5701020000000  0.5137330000000  0.5581080000000 1.0
C      1  0.5794540000000  0.4662110000000  0.5362680000000 1.0
C      1  0.4423350000000  0.5246840000000  0.4794090000000 1.0
C      1  0.4980810000000  0.5629790000000  0.5833080000000 1.0
C      1  0.4928470000000  0.5255360000000  0.6049470000000 1.0
C      1  0.4692520000000  0.4473670000000  0.5083900000000 1.0
C      1  0.5469780000000  0.5284240000000  0.4882590000000 1.0
C      1  0.3936960000000  0.4540900000000  0.4936420000000 1.0
C      1  0.4288420000000  0.5015970000000  0.5224630000000 1.0
C      1  0.4041700000000  0.5239760000000  0.4462200000000 1.0
C      1  0.5816410000000  0.4730680000000  0.4137800000000 1.0
C      1  0.4540550000000  0.4808820000000  0.6036800000000 1.0
C      1  0.4742130000000  0.4750430000000  0.5010910000000 1.0
C      1  0.4067320000000  0.5547570000000  0.4866380000000 1.0
C      1  0.5142770000000  0.6016560000000  0.5157160000000 1.0
C      1  0.4891400000000  0.4648420000000  0.5721030000000 1.0
C      1  0.5769410000000  0.5476900000000  0.5269440000000 1.0
C      1  0.4208400000000  0.5149790000000  0.4234500000000 1.0
C      1  0.5255500000000  0.4571210000000  0.4905130000000 1.0
C      1  0.4877720000000  0.3907790000000  0.4864900000000 1.0
C      1  0.4127150000000  0.5494700000000  0.4571680000000 1.0
C      1  0.4982370000000  0.4851130000000  0.4208060000000 1.0
C      1  0.5492150000000  0.4065800000000  0.4488680000000 1.0
C      1  0.4735350000000  0.4149620000000  0.5557000000000 1.0
C      1  0.5700850000000  0.5037900000000  0.4473710000000 1.0
C      1  0.3935170000000  0.5075070000000  0.4919030000000 1.0
C      1  0.4556970000000  0.4831370000000  0.4112280000000 1.0
C      1  0.5525080000000  0.5145610000000  0.4088240000000 1.0
C      1  0.6105150000000  0.4584620000000  0.4861250000000 1.0
C      1  0.6082990000000  0.5450280000000  0.4864690000000 1.0
C      1  0.4984910000000  0.4794690000000  0.5485420000000 1.0
C      1  0.4426790000000  0.5767130000000  0.4798500000000 1.0
C      1  0.5317640000000  0.4404280000000  0.5872840000000 1.0
C      1  0.6014250000000  0.4788890000000  0.5269910000000 1.0
C      1  0.4581990000000  0.5767300000000  0.5621260000000 1.0
C      1  0.4622810000000  0.5686860000000  0.4426290000000 1.0
C      1  0.5096820000000  0.5849470000000  0.5684850000000 1.0
C      1  0.5263610000000  0.5496710000000  0.4907670000000 1.0
C      1  0.5668450000000  0.4918100000000  0.3973460000000 1.0
C      1  0.4575360000000  0.5509230000000  0.4876550000000 1.0
C      1  0.6096990000000  0.4752110000000  0.4636530000000 1.0
C      1  0.5107570000000  0.5026470000000  0.5999300000000 1.0
C      1  0.5284000000000  0.5642420000000  0.4370720000000 1.0
C      1  0.5229950000000  0.4793180000000  0.4683220000000 1.0
C      1  0.5384710000000  0.5400980000000  0.5894370000000 1.0
C      1  0.4685230000000  0.5274730000000  0.4147400000000 1.0
C      1  0.6140530000000  0.5037550000000  0.4664330000000 1.0
C      1  0.5252730000000  0.5364860000000  0.4453640000000 1.0
C      1  0.4018270000000  0.5006910000000  0.4635680000000 1.0
C      1  0.4508970000000  0.4156900000000  0.4681950000000 1.0
C      1  0.5131320000000  0.5463720000000  0.6015500000000 1.0
C      1  0.4934170000000  0.3819670000000  0.5260030000000 1.0
C      1  0.4829610000000  0.5933950000000  0.5604880000000 1.0
C      1  0.5003570000000  0.4737840000000  0.5996780000000 1.0
C      1  0.4759490000000  0.5235300000000  0.5551750000000 1.0
C      1  0.4726840000000  0.4692660000000  0.6193330000000 1.0
C      1  0.5908740000000  0.4397910000000  0.5317470000000 1.0
C      1  0.5828660000000  0.4762970000000  0.4446690000000 1.0
C      1  0.4342260000000  0.5306410000000  0.5225610000000 1.0
C      1  0.3986210000000  0.5339610000000  0.5052420000000 1.0
C      1  0.4938840000000  0.5628870000000  0.5342420000000 1.0
C      1  0.5718930000000  0.5436970000000  0.5554730000000 1.0
C      1  0.5618100000000  0.4153850000000  0.5617720000000 1.0
C      1  0.4926710000000  0.4883490000000  0.3931470000000 1.0
C      1  0.5455460000000  0.5426050000000  0.4055500000000 1.0
C      1  0.4355410000000  0.5018650000000  0.4947570000000 1.0
C      1  0.4920560000000  0.5056560000000  0.4764010000000 1.0
C      1  0.5702100000000  0.5838620000000  0.4752940000000 1.0
C      1  0.4957840000000  0.3955830000000  0.5515350000000 1.0
END
