TITL C-4164235-1454-166 23.6684961923676 125000 -22907.1421435492 0 0 152 (C1) n - 1
REM
REM in /home/nfs/bkarasulu/CARBON/AIRSS/Generating-Clusters/ReaxFF-fromJPCA2015/Units_Real/with-SteepDescent/Only-C1/SD-CG/Try1-3A/FIRE-CG
REM
REM
REM
REM
REM
REM ./C.cell (11c1c37f851c82e70ff6c80c92926a4b)
REM
REM compiler GCC version 9.2.1 20190827 (Red Hat 9.2.1-1)
REM options -cpp -mtune=generic -march=x86-64 -g -O0 -fpre-include=/usr/include/finclude/math-vector-fortran.h
REM seed 1980738722 -1607510678 520213176 -793930564 -1563240098 690217726 1574272246 -1041949886 -1789540886 1941389942 -1809409145 1462141055 -741176136 -1380694131 -1077285685 1777301066 -1832274377 1084931755 1659261939 1241331108 -1111246599 246964005 -1963716410 -874899316 -1867612717 -1588035399 -1056815767 232163877 -1159680900 173158124 333961123 886681122 90433761
REM
CELL 1.54180   50.00000   50.00000   50.00000   90.00000   90.00000   90.00000
LATT -1
SFAC C  
C      1  0.4457620000000  0.4432010000000  0.4461200000000 1.0
C      1  0.3996650000000  0.5014930000000  0.5442770000000 1.0
C      1  0.5099430000000  0.3983470000000  0.4890620000000 1.0
C      1  0.4285520000000  0.4613180000000  0.3858970000000 1.0
C      1  0.4447960000000  0.5737870000000  0.4381740000000 1.0
C      1  0.5642150000000  0.4272370000000  0.5188960000000 1.0
C      1  0.4324740000000  0.4226640000000  0.4570870000000 1.0
C      1  0.5678580000000  0.5216770000000  0.5602990000000 1.0
C      1  0.4224670000000  0.4775950000000  0.4030330000000 1.0
C      1  0.5905840000000  0.4884320000000  0.5471370000000 1.0
C      1  0.4813770000000  0.5830440000000  0.5404890000000 1.0
C      1  0.5317680000000  0.4568210000000  0.4578590000000 1.0
C      1  0.5549980000000  0.4986200000000  0.4591140000000 1.0
C      1  0.5762760000000  0.4743530000000  0.5690210000000 1.0
C      1  0.4495610000000  0.5314200000000  0.4460660000000 1.0
C      1  0.4731580000000  0.5460870000000  0.5985770000000 1.0
C      1  0.5204090000000  0.4523210000000  0.5102800000000 1.0
C      1  0.4495130000000  0.5716180000000  0.5105320000000 1.0
C      1  0.4937170000000  0.5628420000000  0.4216890000000 1.0
C      1  0.4846130000000  0.4048910000000  0.4761730000000 1.0
C      1  0.5211140000000  0.5721510000000  0.5926140000000 1.0
C      1  0.4175560000000  0.5245580000000  0.5575380000000 1.0
C      1  0.4865200000000  0.4563250000000  0.4775970000000 1.0
C      1  0.4463580000000  0.5026870000000  0.4396970000000 1.0
C      1  0.4088490000000  0.5319360000000  0.4500660000000 1.0
C      1  0.5184500000000  0.5902390000000  0.5690490000000 1.0
C      1  0.4895210000000  0.5962740000000  0.5657940000000 1.0
C      1  0.4991210000000  0.4531280000000  0.4188880000000 1.0
C      1  0.5514400000000  0.5051810000000  0.5416480000000 1.0
C      1  0.5079500000000  0.5510950000000  0.5159440000000 1.0
C      1  0.4331290000000  0.5865440000000  0.4609280000000 1.0
C      1  0.5843420000000  0.4446160000000  0.5323240000000 1.0
C      1  0.4885530000000  0.5973620000000  0.4928920000000 1.0
C      1  0.4405760000000  0.4999240000000  0.5818110000000 1.0
C      1  0.5394390000000  0.4980730000000  0.6045150000000 1.0
C      1  0.4941460000000  0.4805240000000  0.5708320000000 1.0
C      1  0.4782000000000  0.4686780000000  0.4304060000000 1.0
C      1  0.4349010000000  0.4226020000000  0.4860680000000 1.0
C      1  0.5084560000000  0.4684660000000  0.4663470000000 1.0
C      1  0.5065010000000  0.4955600000000  0.4613710000000 1.0
C      1  0.4462230000000  0.4739480000000  0.5912800000000 1.0
C      1  0.4833480000000  0.4128160000000  0.4480280000000 1.0
C      1  0.5357420000000  0.4309700000000  0.5220510000000 1.0
C      1  0.3900020000000  0.5147980000000  0.4925120000000 1.0
C      1  0.5237810000000  0.5319460000000  0.5276390000000 1.0
C      1  0.5748860000000  0.4582020000000  0.4391990000000 1.0
C      1  0.5421140000000  0.5507590000000  0.5937620000000 1.0
C      1  0.5070840000000  0.4579380000000  0.5833100000000 1.0
C      1  0.5042770000000  0.4270500000000  0.4330480000000 1.0
C      1  0.4896040000000  0.5112900000000  0.4744170000000 1.0
C      1  0.5366570000000  0.4543830000000  0.5850270000000 1.0
C      1  0.4825030000000  0.5752170000000  0.4719100000000 1.0
C      1  0.5386570000000  0.5877440000000  0.5485280000000 1.0
C      1  0.5932020000000  0.4767350000000  0.4946110000000 1.0
C      1  0.5134330000000  0.5091850000000  0.6119940000000 1.0
C      1  0.4677910000000  0.5830080000000  0.5798130000000 1.0
C      1  0.5435720000000  0.5785740000000  0.4305000000000 1.0
C      1  0.5528660000000  0.4781820000000  0.5867570000000 1.0
C      1  0.3928530000000  0.5111100000000  0.5195660000000 1.0
C      1  0.4193600000000  0.4956170000000  0.4219240000000 1.0
C      1  0.6074290000000  0.5283940000000  0.5040750000000 1.0
C      1  0.5909630000000  0.5095330000000  0.4858940000000 1.0
C      1  0.5604190000000  0.5125380000000  0.4902370000000 1.0
C      1  0.5529860000000  0.5461330000000  0.4867660000000 1.0
C      1  0.5223960000000  0.5240540000000  0.3938680000000 1.0
C      1  0.5607830000000  0.4109460000000  0.4967850000000 1.0
C      1  0.4978810000000  0.5360530000000  0.4048500000000 1.0
C      1  0.4501160000000  0.4713530000000  0.5104440000000 1.0
C      1  0.5174790000000  0.4705390000000  0.4029790000000 1.0
C      1  0.4860300000000  0.5290150000000  0.5543350000000 1.0
C      1  0.4564400000000  0.4139820000000  0.5221060000000 1.0
C      1  0.4692470000000  0.5924520000000  0.5152700000000 1.0
C      1  0.4923120000000  0.5551890000000  0.5408470000000 1.0
C      1  0.5362240000000  0.5272080000000  0.6105660000000 1.0
C      1  0.5254710000000  0.4808690000000  0.5126030000000 1.0
C      1  0.5274390000000  0.5358050000000  0.4482900000000 1.0
C      1  0.5643340000000  0.5726440000000  0.4489200000000 1.0
C      1  0.5970470000000  0.5395220000000  0.5284930000000 1.0
C      1  0.5088560000000  0.4968850000000  0.3938060000000 1.0
C      1  0.4620910000000  0.4633080000000  0.4594380000000 1.0
C      1  0.4334800000000  0.5008880000000  0.4852650000000 1.0
C      1  0.4745610000000  0.4626640000000  0.5228520000000 1.0
C      1  0.4925010000000  0.4515480000000  0.5042410000000 1.0
C      1  0.5372150000000  0.5882780000000  0.5182450000000 1.0
C      1  0.4598710000000  0.4963140000000  0.6022890000000 1.0
C      1  0.4950600000000  0.5092770000000  0.5747370000000 1.0
C      1  0.4742430000000  0.4600800000000  0.5543400000000 1.0
C      1  0.4470260000000  0.5482640000000  0.5276470000000 1.0
C      1  0.5889490000000  0.5273930000000  0.4592550000000 1.0
C      1  0.5692620000000  0.5100730000000  0.4115760000000 1.0
C      1  0.5419960000000  0.5472340000000  0.4269920000000 1.0
C      1  0.5008160000000  0.5530270000000  0.4854850000000 1.0
C      1  0.5939330000000  0.5174200000000  0.5488200000000 1.0
C      1  0.5527720000000  0.4160720000000  0.4573000000000 1.0
C      1  0.4594670000000  0.4100350000000  0.4936360000000 1.0
C      1  0.4409170000000  0.4983680000000  0.5146540000000 1.0
C      1  0.5266030000000  0.5483230000000  0.4727720000000 1.0
C      1  0.4556860000000  0.4183300000000  0.4398100000000 1.0
C      1  0.4706990000000  0.4933900000000  0.4222820000000 1.0
C      1  0.5934460000000  0.4705100000000  0.5230050000000 1.0
C      1  0.4067690000000  0.4724340000000  0.5354300000000 1.0
C      1  0.5757970000000  0.5530260000000  0.4657430000000 1.0
C      1  0.5149120000000  0.5783380000000  0.4302370000000 1.0
C      1  0.5601680000000  0.5483390000000  0.5717110000000 1.0
C      1  0.5757380000000  0.5620810000000  0.5285210000000 1.0
C      1  0.3877980000000  0.4833180000000  0.4880300000000 1.0
C      1  0.5766660000000  0.4368400000000  0.4593960000000 1.0
C      1  0.4826580000000  0.4041640000000  0.5345620000000 1.0
C      1  0.4968370000000  0.5592400000000  0.5975670000000 1.0
C      1  0.5227510000000  0.5091290000000  0.5444810000000 1.0
C      1  0.5307880000000  0.4303500000000  0.4444140000000 1.0
C      1  0.5696320000000  0.4587940000000  0.4115390000000 1.0
C      1  0.3910440000000  0.4887810000000  0.4610860000000 1.0
C      1  0.5493510000000  0.5298820000000  0.4042250000000 1.0
C      1  0.4022060000000  0.4656940000000  0.5082290000000 1.0
C      1  0.5020550000000  0.4162880000000  0.5537670000000 1.0
C      1  0.4274530000000  0.4486240000000  0.5036400000000 1.0
C      1  0.5480940000000  0.4349330000000  0.5670300000000 1.0
C      1  0.5135370000000  0.5951780000000  0.5045560000000 1.0
C      1  0.4826180000000  0.5144750000000  0.6016790000000 1.0
C      1  0.4470290000000  0.4880210000000  0.4642790000000 1.0
C      1  0.4606970000000  0.5221820000000  0.5168610000000 1.0
C      1  0.4510000000000  0.5673070000000  0.4805530000000 1.0
C      1  0.5042510000000  0.4904590000000  0.5303890000000 1.0
C      1  0.4534280000000  0.5585780000000  0.5795220000000 1.0
C      1  0.4757500000000  0.5742370000000  0.4419520000000 1.0
C      1  0.5673770000000  0.4837070000000  0.3986550000000 1.0
C      1  0.5010180000000  0.4001290000000  0.5147260000000 1.0
C      1  0.5455650000000  0.4649790000000  0.3975010000000 1.0
C      1  0.4337510000000  0.4319280000000  0.5281200000000 1.0
C      1  0.4257790000000  0.4522120000000  0.5478130000000 1.0
C      1  0.4741500000000  0.5294870000000  0.4865650000000 1.0
C      1  0.4288320000000  0.5476990000000  0.4349830000000 1.0
C      1  0.5769030000000  0.5104560000000  0.4399890000000 1.0
C      1  0.4909030000000  0.4385640000000  0.5689000000000 1.0
C      1  0.4835870000000  0.5109570000000  0.5322820000000 1.0
C      1  0.5302430000000  0.4221970000000  0.5481400000000 1.0
C      1  0.5736960000000  0.4472520000000  0.5590770000000 1.0
C      1  0.4516460000000  0.5398600000000  0.4727100000000 1.0
C      1  0.4153350000000  0.5239190000000  0.4779200000000 1.0
C      1  0.4835500000000  0.5103650000000  0.4018950000000 1.0
C      1  0.4366730000000  0.5473110000000  0.5549240000000 1.0
C      1  0.5561560000000  0.5668310000000  0.5088360000000 1.0
C      1  0.5854450000000  0.4560260000000  0.4786720000000 1.0
C      1  0.5501930000000  0.4970550000000  0.5130460000000 1.0
C      1  0.4386960000000  0.5062760000000  0.5535230000000 1.0
C      1  0.5410110000000  0.4013830000000  0.4797990000000 1.0
C      1  0.5290310000000  0.5087000000000  0.4499540000000 1.0
C      1  0.5620280000000  0.5707860000000  0.5529440000000 1.0
C      1  0.5557260000000  0.4706270000000  0.4555280000000 1.0
C      1  0.4466410000000  0.4582710000000  0.5669480000000 1.0
C      1  0.3978070000000  0.5052590000000  0.4393950000000 1.0
END
