TITL C-4164236-1577-33 37.3726809417638 125000 -18472.6499235291 0 0 126 (C1) n - 1
REM
REM in /home/nfs/bkarasulu/CARBON/AIRSS/Generating-Clusters/ReaxFF-fromJPCA2015/Units_Real/with-SteepDescent/Only-C1/SD-CG/Try1-3A/FIRE-CG
REM
REM
REM
REM
REM
REM ./C.cell (11c1c37f851c82e70ff6c80c92926a4b)
REM
REM compiler GCC version 9.2.1 20190827 (Red Hat 9.2.1-1)
REM options -cpp -mtune=generic -march=x86-64 -g -O0 -fpre-include=/usr/include/finclude/math-vector-fortran.h
REM seed 90904846 -607104433 -1177293363 -2097248460 837033011 -921515800 -1935231003 414284394 -1591643163 107150144 797423480 -365978549 1571807109 -1793877843 -339427452 1889361765 -278390026 -402736551 260417399 1459954397 1025146662 2052852347 -189071593 -1247205518 -303567025 1785242321 -433355156 -377213053 1852080881 -42252426 373145168 1425591152 1013684741
REM
CELL 1.54180   50.00000   50.00000   50.00000   90.00000   90.00000   90.00000
LATT -1
SFAC C  
C      1  0.4989270000000  0.5835300000000  0.4503720000000 1.0
C      1  0.5406220000000  0.5748540000000  0.5497570000000 1.0
C      1  0.5936540000000  0.5141340000000  0.5208020000000 1.0
C      1  0.5387950000000  0.4824930000000  0.4710030000000 1.0
C      1  0.5250180000000  0.5034270000000  0.5309270000000 1.0
C      1  0.4328230000000  0.5037710000000  0.5036590000000 1.0
C      1  0.5185830000000  0.4663020000000  0.4703100000000 1.0
C      1  0.5049370000000  0.4431700000000  0.4842200000000 1.0
C      1  0.4525520000000  0.5517200000000  0.4534940000000 1.0
C      1  0.4757600000000  0.4870010000000  0.5537180000000 1.0
C      1  0.4783950000000  0.4951950000000  0.4915580000000 1.0
C      1  0.4408740000000  0.5835930000000  0.4844190000000 1.0
C      1  0.4850330000000  0.5508260000000  0.4932170000000 1.0
C      1  0.5810680000000  0.5434470000000  0.5484100000000 1.0
C      1  0.4083350000000  0.4952260000000  0.5434540000000 1.0
C      1  0.4227160000000  0.5152420000000  0.5597560000000 1.0
C      1  0.4776230000000  0.4377220000000  0.5472370000000 1.0
C      1  0.5585590000000  0.5556190000000  0.5623710000000 1.0
C      1  0.5947200000000  0.4777620000000  0.4778700000000 1.0
C      1  0.5664560000000  0.5486520000000  0.4552530000000 1.0
C      1  0.4526530000000  0.5277880000000  0.4330450000000 1.0
C      1  0.5871380000000  0.4385860000000  0.5047250000000 1.0
C      1  0.4930000000000  0.5077720000000  0.5577270000000 1.0
C      1  0.5246640000000  0.5326670000000  0.5407440000000 1.0
C      1  0.5900310000000  0.4893180000000  0.5047850000000 1.0
C      1  0.5105970000000  0.4226700000000  0.4622520000000 1.0
C      1  0.5173740000000  0.4638510000000  0.4409170000000 1.0
C      1  0.5591480000000  0.5520680000000  0.5036720000000 1.0
C      1  0.4947380000000  0.5311070000000  0.5386170000000 1.0
C      1  0.5218550000000  0.5191990000000  0.4469040000000 1.0
C      1  0.4761260000000  0.4491690000000  0.4297220000000 1.0
C      1  0.4568720000000  0.5649050000000  0.5307130000000 1.0
C      1  0.5520950000000  0.5028050000000  0.4153850000000 1.0
C      1  0.5333440000000  0.4312470000000  0.5643300000000 1.0
C      1  0.4338240000000  0.4647660000000  0.5623020000000 1.0
C      1  0.4620290000000  0.5990440000000  0.4737000000000 1.0
C      1  0.4868610000000  0.4070930000000  0.4740400000000 1.0
C      1  0.4507570000000  0.5143240000000  0.5643410000000 1.0
C      1  0.4706350000000  0.4272550000000  0.5211500000000 1.0
C      1  0.5031130000000  0.4833700000000  0.4062690000000 1.0
C      1  0.5024220000000  0.4698350000000  0.5860830000000 1.0
C      1  0.5040520000000  0.5048480000000  0.4631320000000 1.0
C      1  0.5828320000000  0.4925010000000  0.4552590000000 1.0
C      1  0.4241440000000  0.5498820000000  0.4661760000000 1.0
C      1  0.5200360000000  0.4314450000000  0.5078580000000 1.0
C      1  0.4812790000000  0.5722170000000  0.5139970000000 1.0
C      1  0.4962280000000  0.5112050000000  0.5867710000000 1.0
C      1  0.4644890000000  0.5377180000000  0.4775370000000 1.0
C      1  0.5640410000000  0.4398530000000  0.4573410000000 1.0
C      1  0.5436160000000  0.4191880000000  0.4628430000000 1.0
C      1  0.4092600000000  0.5217240000000  0.5016490000000 1.0
C      1  0.4847050000000  0.4077830000000  0.5041400000000 1.0
C      1  0.5479530000000  0.4220680000000  0.5071860000000 1.0
C      1  0.5633130000000  0.4721150000000  0.5458850000000 1.0
C      1  0.5441220000000  0.5067210000000  0.5794510000000 1.0
C      1  0.5178050000000  0.4110210000000  0.5488450000000 1.0
C      1  0.4217400000000  0.4556350000000  0.4835630000000 1.0
C      1  0.5065210000000  0.4364030000000  0.4347620000000 1.0
C      1  0.5493800000000  0.5326090000000  0.4129590000000 1.0
C      1  0.5256960000000  0.5506020000000  0.4174820000000 1.0
C      1  0.4321670000000  0.4524140000000  0.4525580000000 1.0
C      1  0.4951520000000  0.4641410000000  0.5522830000000 1.0
C      1  0.5498460000000  0.5249000000000  0.4908660000000 1.0
C      1  0.5182200000000  0.4443220000000  0.5860210000000 1.0
C      1  0.5325000000000  0.5604220000000  0.5246460000000 1.0
C      1  0.5455180000000  0.5012410000000  0.5106840000000 1.0
C      1  0.4151560000000  0.5370640000000  0.5399730000000 1.0
C      1  0.4333690000000  0.5080090000000  0.4407490000000 1.0
C      1  0.4715320000000  0.4788990000000  0.5911980000000 1.0
C      1  0.5089040000000  0.6023550000000  0.5002580000000 1.0
C      1  0.4413790000000  0.4789990000000  0.4452390000000 1.0
C      1  0.4522760000000  0.4466100000000  0.5533700000000 1.0
C      1  0.4734990000000  0.5531840000000  0.5509630000000 1.0
C      1  0.5620010000000  0.5686780000000  0.4769870000000 1.0
C      1  0.5205830000000  0.4952790000000  0.5906190000000 1.0
C      1  0.5688500000000  0.4834240000000  0.4313670000000 1.0
C      1  0.5661580000000  0.4958860000000  0.5633270000000 1.0
C      1  0.4832490000000  0.6131090000000  0.4916670000000 1.0
C      1  0.4562670000000  0.5117570000000  0.4874690000000 1.0
C      1  0.5685550000000  0.4300230000000  0.5268490000000 1.0
C      1  0.5402700000000  0.5352520000000  0.4636220000000 1.0
C      1  0.5022380000000  0.5076270000000  0.4902520000000 1.0
C      1  0.4475100000000  0.4884200000000  0.5799280000000 1.0
C      1  0.5144930000000  0.5538190000000  0.5845180000000 1.0
C      1  0.5189310000000  0.5795130000000  0.5712130000000 1.0
C      1  0.4308740000000  0.4550990000000  0.5116620000000 1.0
C      1  0.3999760000000  0.5076840000000  0.4775550000000 1.0
C      1  0.4653130000000  0.5395300000000  0.5745610000000 1.0
C      1  0.5846870000000  0.4499070000000  0.4774820000000 1.0
C      1  0.5395010000000  0.5812420000000  0.4617040000000 1.0
C      1  0.5094840000000  0.4074100000000  0.5208310000000 1.0
C      1  0.5238040000000  0.5721690000000  0.4380220000000 1.0
C      1  0.4521020000000  0.4292810000000  0.4788750000000 1.0
C      1  0.4720550000000  0.4508290000000  0.4812270000000 1.0
C      1  0.4833860000000  0.4962310000000  0.4470640000000 1.0
C      1  0.5093100000000  0.5791130000000  0.5199070000000 1.0
C      1  0.4239930000000  0.5629910000000  0.4931820000000 1.0
C      1  0.5041900000000  0.5326260000000  0.4271240000000 1.0
C      1  0.4580980000000  0.4974310000000  0.5337840000000 1.0
C      1  0.5540780000000  0.4019620000000  0.4837490000000 1.0
C      1  0.4618300000000  0.4549520000000  0.5096880000000 1.0
C      1  0.3965240000000  0.5177670000000  0.5276170000000 1.0
C      1  0.4987060000000  0.5304200000000  0.5074930000000 1.0
C      1  0.5233930000000  0.4993300000000  0.4109810000000 1.0
C      1  0.5371030000000  0.5360760000000  0.5708450000000 1.0
C      1  0.5171230000000  0.5962340000000  0.4716600000000 1.0
C      1  0.5061220000000  0.4811770000000  0.5307120000000 1.0
C      1  0.5331620000000  0.4480970000000  0.4233370000000 1.0
C      1  0.4307820000000  0.5546220000000  0.5221780000000 1.0
C      1  0.5854060000000  0.5140070000000  0.5496860000000 1.0
C      1  0.4145560000000  0.5238700000000  0.4574950000000 1.0
C      1  0.4767470000000  0.4827140000000  0.5154410000000 1.0
C      1  0.5578520000000  0.4441240000000  0.5501750000000 1.0
C      1  0.4197830000000  0.4683700000000  0.5368130000000 1.0
C      1  0.5598140000000  0.4553110000000  0.4330670000000 1.0
C      1  0.4620710000000  0.4120720000000  0.4584850000000 1.0
C      1  0.5648370000000  0.4810160000000  0.5173390000000 1.0
C      1  0.5831610000000  0.5419790000000  0.5186910000000 1.0
C      1  0.4151560000000  0.4838140000000  0.4863030000000 1.0
C      1  0.4893950000000  0.5396910000000  0.5909230000000 1.0
C      1  0.4787990000000  0.5172030000000  0.4272160000000 1.0
C      1  0.5593340000000  0.4989450000000  0.4717070000000 1.0
C      1  0.4706620000000  0.5794600000000  0.4539200000000 1.0
C      1  0.4808260000000  0.4661600000000  0.4030750000000 1.0
C      1  0.4520780000000  0.4340210000000  0.4389970000000 1.0
C      1  0.4693670000000  0.4716550000000  0.4527390000000 1.0
END
