TITL C-4164236-1577-698 -3.36596474675968 125000 -13832.6731982296 0 0 92 (C1) n - 1
REM
REM in /home/nfs/bkarasulu/CARBON/AIRSS/Generating-Clusters/ReaxFF-fromJPCA2015/Units_Real/with-SteepDescent/Only-C1/SD-CG/Try1-3A/FIRE-CG
REM
REM
REM
REM
REM
REM ./C.cell (11c1c37f851c82e70ff6c80c92926a4b)
REM
REM compiler GCC version 9.2.1 20190827 (Red Hat 9.2.1-1)
REM options -cpp -mtune=generic -march=x86-64 -g -O0 -fpre-include=/usr/include/finclude/math-vector-fortran.h
REM seed 417265315 -1949020532 -1961684448 1976645274 842771125 1699350180 1719036791 166958319 -1475060805 -2043336796 -382882142 -1702770536 -277656398 1886396387 635810385 1786893675 -2071160183 -1891809286 1312298046 -130521402 993298951 1765458061 -1023444847 -888399371 753525006 -1893796855 710680487 -1707523672 436951824 -402052460 888030183 49591484 1389871849
REM
CELL 1.54180   50.00000   50.00000   50.00000   90.00000   90.00000   90.00000
LATT -1
SFAC C  
C      1  0.5047560000000  0.5263830000000  0.5047070000000 1.0
C      1  0.5794840000000  0.5111840000000  0.4505130000000 1.0
C      1  0.4761300000000  0.5764660000000  0.5097480000000 1.0
C      1  0.5667090000000  0.4826920000000  0.4887640000000 1.0
C      1  0.4472620000000  0.5709440000000  0.5097340000000 1.0
C      1  0.4079730000000  0.4949030000000  0.4957460000000 1.0
C      1  0.4638650000000  0.4579980000000  0.4318390000000 1.0
C      1  0.5184880000000  0.5338080000000  0.4807060000000 1.0
C      1  0.5474880000000  0.4415730000000  0.5345710000000 1.0
C      1  0.4960670000000  0.4174760000000  0.5200220000000 1.0
C      1  0.4956190000000  0.5360060000000  0.5724690000000 1.0
C      1  0.4759540000000  0.4844900000000  0.5300030000000 1.0
C      1  0.5003600000000  0.4717040000000  0.5189180000000 1.0
C      1  0.5154840000000  0.4296880000000  0.4957390000000 1.0
C      1  0.5769650000000  0.5264940000000  0.5332980000000 1.0
C      1  0.5260440000000  0.5805410000000  0.4875070000000 1.0
C      1  0.5590100000000  0.5036580000000  0.5708090000000 1.0
C      1  0.4836330000000  0.5498860000000  0.4296120000000 1.0
C      1  0.4417870000000  0.5274970000000  0.5612270000000 1.0
C      1  0.5449260000000  0.4358520000000  0.5066650000000 1.0
C      1  0.4479060000000  0.4378440000000  0.5158190000000 1.0
C      1  0.5495540000000  0.4708690000000  0.5376390000000 1.0
C      1  0.4723680000000  0.4261620000000  0.4711540000000 1.0
C      1  0.5297020000000  0.4297440000000  0.5568730000000 1.0
C      1  0.5074110000000  0.5629570000000  0.4705910000000 1.0
C      1  0.4711630000000  0.4278610000000  0.5263980000000 1.0
C      1  0.5407600000000  0.4885650000000  0.4401510000000 1.0
C      1  0.4740010000000  0.5217910000000  0.5867920000000 1.0
C      1  0.5372720000000  0.5103440000000  0.4836070000000 1.0
C      1  0.4294250000000  0.4608050000000  0.5205500000000 1.0
C      1  0.5370300000000  0.4262270000000  0.4501180000000 1.0
C      1  0.5510100000000  0.5641450000000  0.5201340000000 1.0
C      1  0.5282480000000  0.5091670000000  0.5124720000000 1.0
C      1  0.4778490000000  0.5166720000000  0.4947250000000 1.0
C      1  0.5358380000000  0.4492810000000  0.4322970000000 1.0
C      1  0.4676150000000  0.4752600000000  0.5578630000000 1.0
C      1  0.5879460000000  0.5019080000000  0.5280680000000 1.0
C      1  0.5685150000000  0.5655850000000  0.4966010000000 1.0
C      1  0.5255050000000  0.4846960000000  0.5276800000000 1.0
C      1  0.5530720000000  0.5805330000000  0.4766630000000 1.0
C      1  0.5262980000000  0.4886540000000  0.4661110000000 1.0
C      1  0.4598840000000  0.5346240000000  0.5390020000000 1.0
C      1  0.5076450000000  0.5387900000000  0.4238750000000 1.0
C      1  0.4495950000000  0.4338320000000  0.4845950000000 1.0
C      1  0.4360690000000  0.5521320000000  0.5292180000000 1.0
C      1  0.4698960000000  0.5198820000000  0.4661410000000 1.0
C      1  0.5016380000000  0.4575360000000  0.4933730000000 1.0
C      1  0.5327860000000  0.4982160000000  0.5836300000000 1.0
C      1  0.5170060000000  0.4718600000000  0.5865970000000 1.0
C      1  0.4987830000000  0.5121300000000  0.4255310000000 1.0
C      1  0.5619030000000  0.5472370000000  0.5430730000000 1.0
C      1  0.4753240000000  0.5045040000000  0.4422680000000 1.0
C      1  0.5068480000000  0.5614180000000  0.4409120000000 1.0
C      1  0.5550250000000  0.5127690000000  0.4350900000000 1.0
C      1  0.5679170000000  0.5360150000000  0.4487620000000 1.0
C      1  0.4460220000000  0.4958350000000  0.4374570000000 1.0
C      1  0.5558880000000  0.4399980000000  0.4658150000000 1.0
C      1  0.5691290000000  0.5573740000000  0.4681410000000 1.0
C      1  0.4973500000000  0.5686320000000  0.5290930000000 1.0
C      1  0.4127830000000  0.5049590000000  0.5220810000000 1.0
C      1  0.4873800000000  0.5500470000000  0.5482240000000 1.0
C      1  0.5212620000000  0.4933750000000  0.4204610000000 1.0
C      1  0.4407900000000  0.4859470000000  0.5637150000000 1.0
C      1  0.5295350000000  0.4454120000000  0.5825460000000 1.0
C      1  0.4909790000000  0.4253940000000  0.4517840000000 1.0
C      1  0.4282650000000  0.5062750000000  0.4550150000000 1.0
C      1  0.4933010000000  0.4561970000000  0.4414620000000 1.0
C      1  0.5043240000000  0.4709540000000  0.4680670000000 1.0
C      1  0.4157600000000  0.5412430000000  0.4893610000000 1.0
C      1  0.5132620000000  0.4179870000000  0.4680970000000 1.0
C      1  0.4889100000000  0.4723640000000  0.5772200000000 1.0
C      1  0.5150910000000  0.4642670000000  0.4200850000000 1.0
C      1  0.4658450000000  0.5087240000000  0.5194780000000 1.0
C      1  0.5630370000000  0.4520960000000  0.4898230000000 1.0
C      1  0.4342770000000  0.5630720000000  0.4845190000000 1.0
C      1  0.4332820000000  0.4548360000000  0.4722360000000 1.0
C      1  0.4259620000000  0.4837640000000  0.5384720000000 1.0
C      1  0.4107400000000  0.5159640000000  0.4742510000000 1.0
C      1  0.4391900000000  0.4657970000000  0.4449490000000 1.0
C      1  0.5708330000000  0.4877220000000  0.5490000000000 1.0
C      1  0.5906050000000  0.4917230000000  0.5001720000000 1.0
C      1  0.5240980000000  0.5739570000000  0.5157880000000 1.0
C      1  0.5240190000000  0.5256540000000  0.5781110000000 1.0
C      1  0.4562680000000  0.5648870000000  0.4673790000000 1.0
C      1  0.4789990000000  0.5716860000000  0.4822850000000 1.0
C      1  0.5851860000000  0.4941480000000  0.4723760000000 1.0
C      1  0.4193180000000  0.4679880000000  0.4941570000000 1.0
C      1  0.4629310000000  0.5435070000000  0.4499400000000 1.0
C      1  0.4163160000000  0.5342480000000  0.5173730000000 1.0
C      1  0.5055340000000  0.4223990000000  0.5448930000000 1.0
C      1  0.5504120000000  0.5323220000000  0.5667370000000 1.0
C      1  0.4463100000000  0.5099890000000  0.5824620000000 1.0
END
