TITL C-4164232-771-97 4.44949952857863 125000 -11696.6687975075 0 0 80 (C1) n - 1
REM
REM in /home/nfs/bkarasulu/CARBON/AIRSS/Generating-Clusters/ReaxFF-fromJPCA2015/Units_Real/with-SteepDescent/Only-C1/SD-CG/Try1-3A/FIRE-CG
REM
REM
REM
REM
REM
REM ./C.cell (11c1c37f851c82e70ff6c80c92926a4b)
REM
REM compiler GCC version 9.2.1 20190827 (Red Hat 9.2.1-1)
REM options -cpp -mtune=generic -march=x86-64 -g -O0 -fpre-include=/usr/include/finclude/math-vector-fortran.h
REM seed -1455517331 1904730668 -779734958 1105155343 -227401302 345247796 75350348 -1360984550 -2123847110 -2124209320 1943128965 -650647166 1995105806 1737188921 -2126379787 -1928852049 734526156 1207719780 1551160833 51633039 143786558 362038722 -485299444 1389691132 -230040733 -1102314977 -1202938476 -1055986522 -1667941384 -1264013104 -531252251 -1467593233 1362303901
REM
CELL 1.54180   50.00000   50.00000   50.00000   90.00000   90.00000   90.00000
LATT -1
SFAC C  
C      1  0.4924420000000  0.5466510000000  0.5667420000000 1.0
C      1  0.5179990000000  0.4650880000000  0.4325950000000 1.0
C      1  0.4293600000000  0.4832670000000  0.5219700000000 1.0
C      1  0.5005700000000  0.4411550000000  0.4844320000000 1.0
C      1  0.5060680000000  0.5551220000000  0.4454210000000 1.0
C      1  0.4933930000000  0.5605890000000  0.5183030000000 1.0
C      1  0.5247270000000  0.4838560000000  0.5085890000000 1.0
C      1  0.4515350000000  0.4450030000000  0.5454200000000 1.0
C      1  0.4669370000000  0.4302940000000  0.5241420000000 1.0
C      1  0.5291910000000  0.4408850000000  0.4757050000000 1.0
C      1  0.4276060000000  0.5046520000000  0.4429970000000 1.0
C      1  0.4723220000000  0.4798080000000  0.4989980000000 1.0
C      1  0.4886980000000  0.4747210000000  0.5520850000000 1.0
C      1  0.4616030000000  0.4709520000000  0.5548460000000 1.0
C      1  0.4995570000000  0.4705100000000  0.5018270000000 1.0
C      1  0.5196710000000  0.5415410000000  0.5746020000000 1.0
C      1  0.4698820000000  0.5702550000000  0.4833260000000 1.0
C      1  0.5272070000000  0.4917550000000  0.4239140000000 1.0
C      1  0.4793370000000  0.5133550000000  0.4628220000000 1.0
C      1  0.5704690000000  0.5432140000000  0.4642810000000 1.0
C      1  0.4288050000000  0.5016470000000  0.4963940000000 1.0
C      1  0.5077280000000  0.5350340000000  0.4273330000000 1.0
C      1  0.4334810000000  0.5327620000000  0.5010180000000 1.0
C      1  0.5497480000000  0.4409180000000  0.4957820000000 1.0
C      1  0.5581500000000  0.4771280000000  0.4542280000000 1.0
C      1  0.5565950000000  0.5470290000000  0.5348400000000 1.0
C      1  0.5582150000000  0.5543430000000  0.5070960000000 1.0
C      1  0.4819000000000  0.4475810000000  0.4608570000000 1.0
C      1  0.4568750000000  0.4641680000000  0.4648330000000 1.0
C      1  0.5300010000000  0.5492560000000  0.4617780000000 1.0
C      1  0.4302880000000  0.4541190000000  0.5264190000000 1.0
C      1  0.5411580000000  0.5020430000000  0.5191210000000 1.0
C      1  0.4432220000000  0.4358210000000  0.5065080000000 1.0
C      1  0.4918670000000  0.5317370000000  0.5111480000000 1.0
C      1  0.4790030000000  0.5025000000000  0.4134290000000 1.0
C      1  0.5111270000000  0.4909730000000  0.5957370000000 1.0
C      1  0.5185950000000  0.5186910000000  0.5939860000000 1.0
C      1  0.4423420000000  0.5316550000000  0.4363560000000 1.0
C      1  0.4693730000000  0.5198770000000  0.4353620000000 1.0
C      1  0.5075820000000  0.5114380000000  0.4124780000000 1.0
C      1  0.4517850000000  0.5536700000000  0.4507350000000 1.0
C      1  0.5430140000000  0.4411240000000  0.5238170000000 1.0
C      1  0.4961290000000  0.5787290000000  0.4968550000000 1.0
C      1  0.4979250000000  0.5015950000000  0.5502960000000 1.0
C      1  0.4797500000000  0.5163930000000  0.5325320000000 1.0
C      1  0.5183550000000  0.5768900000000  0.4903520000000 1.0
C      1  0.4674050000000  0.5493800000000  0.5547410000000 1.0
C      1  0.4962990000000  0.5089770000000  0.5812650000000 1.0
C      1  0.5410960000000  0.5628660000000  0.4845680000000 1.0
C      1  0.5151010000000  0.4391560000000  0.5341320000000 1.0
C      1  0.5077130000000  0.4550540000000  0.5582060000000 1.0
C      1  0.4942510000000  0.4325640000000  0.5151520000000 1.0
C      1  0.4687340000000  0.4902330000000  0.4727860000000 1.0
C      1  0.4692040000000  0.4756870000000  0.4208230000000 1.0
C      1  0.4288260000000  0.4930630000000  0.4690740000000 1.0
C      1  0.4536050000000  0.5202080000000  0.5442180000000 1.0
C      1  0.4340640000000  0.5277710000000  0.5278790000000 1.0
C      1  0.5451250000000  0.4629950000000  0.5744190000000 1.0
C      1  0.5200220000000  0.4653480000000  0.5830260000000 1.0
C      1  0.5815950000000  0.4809990000000  0.5037010000000 1.0
C      1  0.5265940000000  0.5093950000000  0.5402270000000 1.0
C      1  0.5370840000000  0.4562780000000  0.4524660000000 1.0
C      1  0.4449310000000  0.4856070000000  0.4318020000000 1.0
C      1  0.5721020000000  0.4603000000000  0.5637360000000 1.0
C      1  0.5518650000000  0.5295300000000  0.4511440000000 1.0
C      1  0.5363040000000  0.5335270000000  0.5504870000000 1.0
C      1  0.4516810000000  0.4599430000000  0.4925130000000 1.0
C      1  0.4768180000000  0.5639490000000  0.4563750000000 1.0
C      1  0.4976110000000  0.5203670000000  0.4847510000000 1.0
C      1  0.5741010000000  0.4557100000000  0.4928870000000 1.0
C      1  0.4427550000000  0.4918510000000  0.5459840000000 1.0
C      1  0.4897520000000  0.4578290000000  0.4356180000000 1.0
C      1  0.4525050000000  0.5557430000000  0.5029210000000 1.0
C      1  0.5681340000000  0.5053600000000  0.5131460000000 1.0
C      1  0.5670420000000  0.4563060000000  0.5335470000000 1.0
C      1  0.4658740000000  0.5626030000000  0.5285730000000 1.0
C      1  0.5788900000000  0.4753670000000  0.4746780000000 1.0
C      1  0.5732230000000  0.5326310000000  0.5165850000000 1.0
C      1  0.5085570000000  0.4934400000000  0.4867530000000 1.0
C      1  0.5495520000000  0.5001660000000  0.4395100000000 1.0
END
