TITL C-4164242-3624-238 43.3597019304787 125000 -19552.2149293149 0 0 131 (C1) n - 1
REM
REM in /home/nfs/bkarasulu/CARBON/AIRSS/Generating-Clusters/ReaxFF-fromJPCA2015/Units_Real/with-SteepDescent/Only-C1/SD-CG/Try1-3A/FIRE-CG
REM
REM
REM
REM
REM
REM ./C.cell (11c1c37f851c82e70ff6c80c92926a4b)
REM
REM compiler GCC version 9.2.1 20190827 (Red Hat 9.2.1-1)
REM options -cpp -mtune=generic -march=x86-64 -g -O0 -fpre-include=/usr/include/finclude/math-vector-fortran.h
REM seed 2061412190 764715678 -464375514 -429640875 1372246702 -819255163 266741279 2082175333 -960096817 1713024240 -343578596 590127744 1921620252 -875198761 -584384188 1198538259 915770290 -1504682363 1223857902 -899206829 -1372275946 -457886314 -96289712 931927866 871131397 1985451046 -753338575 -1693685706 947073494 367335705 -272640820 632505689 423566211
REM
CELL 1.54180   50.00000   50.00000   50.00000   90.00000   90.00000   90.00000
LATT -1
SFAC C  
C      1  0.5532320000000  0.4602650000000  0.4092240000000 1.0
C      1  0.5426930000000  0.5150050000000  0.5170870000000 1.0
C      1  0.5221080000000  0.5791530000000  0.4698820000000 1.0
C      1  0.4548250000000  0.5102520000000  0.4753550000000 1.0
C      1  0.5068650000000  0.5616810000000  0.5919700000000 1.0
C      1  0.5260550000000  0.4528110000000  0.5235340000000 1.0
C      1  0.5017600000000  0.4054300000000  0.5458040000000 1.0
C      1  0.5335730000000  0.5971380000000  0.4911510000000 1.0
C      1  0.4319150000000  0.5101040000000  0.4504130000000 1.0
C      1  0.4531750000000  0.5398440000000  0.5750130000000 1.0
C      1  0.4614250000000  0.4282950000000  0.5224040000000 1.0
C      1  0.4996140000000  0.6185460000000  0.4815790000000 1.0
C      1  0.5021630000000  0.5154960000000  0.5830570000000 1.0
C      1  0.4415890000000  0.5353200000000  0.5221040000000 1.0
C      1  0.4980280000000  0.4032620000000  0.5046930000000 1.0
C      1  0.4999190000000  0.5456130000000  0.4292780000000 1.0
C      1  0.4677310000000  0.5130300000000  0.4095710000000 1.0
C      1  0.5315540000000  0.4320170000000  0.5730530000000 1.0
C      1  0.5337670000000  0.5537570000000  0.4744050000000 1.0
C      1  0.5231480000000  0.6235530000000  0.4883950000000 1.0
C      1  0.4495070000000  0.4295650000000  0.4914970000000 1.0
C      1  0.4648220000000  0.5653110000000  0.5658090000000 1.0
C      1  0.5311230000000  0.5026620000000  0.4218760000000 1.0
C      1  0.4579100000000  0.4501400000000  0.5685360000000 1.0
C      1  0.5792560000000  0.4501610000000  0.4542570000000 1.0
C      1  0.4799070000000  0.5260110000000  0.5113170000000 1.0
C      1  0.4491440000000  0.5756590000000  0.5114010000000 1.0
C      1  0.5882910000000  0.4398900000000  0.5063570000000 1.0
C      1  0.5090390000000  0.5069370000000  0.4018890000000 1.0
C      1  0.4045170000000  0.5098870000000  0.4941820000000 1.0
C      1  0.4484980000000  0.5247150000000  0.4283440000000 1.0
C      1  0.5959960000000  0.4422570000000  0.4787040000000 1.0
C      1  0.4794550000000  0.4490420000000  0.5124370000000 1.0
C      1  0.5324270000000  0.4546550000000  0.4454180000000 1.0
C      1  0.5858820000000  0.5348850000000  0.4571290000000 1.0
C      1  0.5046240000000  0.4235440000000  0.5700590000000 1.0
C      1  0.4483100000000  0.4844260000000  0.5241050000000 1.0
C      1  0.5428740000000  0.4993220000000  0.4676190000000 1.0
C      1  0.4633030000000  0.4888150000000  0.5466260000000 1.0
C      1  0.4713910000000  0.4658480000000  0.4912530000000 1.0
C      1  0.5381460000000  0.5761320000000  0.5459420000000 1.0
C      1  0.5593230000000  0.5115340000000  0.4168850000000 1.0
C      1  0.5577060000000  0.4443390000000  0.4341540000000 1.0
C      1  0.4539280000000  0.4972410000000  0.5960950000000 1.0
C      1  0.5824920000000  0.5467240000000  0.4956160000000 1.0
C      1  0.5735300000000  0.5268560000000  0.4359430000000 1.0
C      1  0.4793660000000  0.5430620000000  0.5354270000000 1.0
C      1  0.4122420000000  0.4589560000000  0.5076260000000 1.0
C      1  0.5007350000000  0.4665610000000  0.5224970000000 1.0
C      1  0.4922780000000  0.4857370000000  0.5481900000000 1.0
C      1  0.4950770000000  0.5835020000000  0.4573080000000 1.0
C      1  0.5855060000000  0.4640740000000  0.5254480000000 1.0
C      1  0.4824780000000  0.5671640000000  0.4368150000000 1.0
C      1  0.4858240000000  0.4894660000000  0.4012440000000 1.0
C      1  0.5727280000000  0.4941340000000  0.4685410000000 1.0
C      1  0.4796140000000  0.4812590000000  0.4460570000000 1.0
C      1  0.4792400000000  0.5991590000000  0.4770540000000 1.0
C      1  0.5469460000000  0.4168780000000  0.5252060000000 1.0
C      1  0.5975030000000  0.5280990000000  0.4816320000000 1.0
C      1  0.5637460000000  0.4230260000000  0.5019720000000 1.0
C      1  0.4671060000000  0.4241010000000  0.4695970000000 1.0
C      1  0.4206800000000  0.4845160000000  0.5549740000000 1.0
C      1  0.5814800000000  0.4787360000000  0.4449960000000 1.0
C      1  0.4545550000000  0.5537360000000  0.4340190000000 1.0
C      1  0.5010890000000  0.4714170000000  0.5743190000000 1.0
C      1  0.5445970000000  0.5313030000000  0.5787190000000 1.0
C      1  0.5065130000000  0.5495730000000  0.5319460000000 1.0
C      1  0.4302360000000  0.4781120000000  0.4453980000000 1.0
C      1  0.4259290000000  0.4628340000000  0.5352720000000 1.0
C      1  0.4157920000000  0.4829360000000  0.4925740000000 1.0
C      1  0.4756430000000  0.5816310000000  0.5004870000000 1.0
C      1  0.5597960000000  0.5366190000000  0.5106780000000 1.0
C      1  0.4036360000000  0.5514080000000  0.5186070000000 1.0
C      1  0.4785370000000  0.5081430000000  0.4570780000000 1.0
C      1  0.5380630000000  0.4896370000000  0.4978040000000 1.0
C      1  0.4804570000000  0.4063630000000  0.5263890000000 1.0
C      1  0.5300680000000  0.4845770000000  0.4451150000000 1.0
C      1  0.5647650000000  0.4889120000000  0.5598390000000 1.0
C      1  0.4224660000000  0.5664050000000  0.5010990000000 1.0
C      1  0.4497970000000  0.4861670000000  0.4944050000000 1.0
C      1  0.5062780000000  0.5102240000000  0.5538190000000 1.0
C      1  0.5765610000000  0.5357410000000  0.5490380000000 1.0
C      1  0.5276830000000  0.5846030000000  0.5188220000000 1.0
C      1  0.5697740000000  0.4839920000000  0.4183960000000 1.0
C      1  0.5146740000000  0.5828880000000  0.5585990000000 1.0
C      1  0.5523120000000  0.4406820000000  0.4821120000000 1.0
C      1  0.5906280000000  0.4921020000000  0.5188100000000 1.0
C      1  0.5204970000000  0.5377790000000  0.5947710000000 1.0
C      1  0.4171880000000  0.4569290000000  0.4601690000000 1.0
C      1  0.4967540000000  0.4618410000000  0.4055060000000 1.0
C      1  0.4857760000000  0.4470380000000  0.5771270000000 1.0
C      1  0.4914240000000  0.4660300000000  0.4693750000000 1.0
C      1  0.4920690000000  0.4114110000000  0.4783240000000 1.0
C      1  0.5122070000000  0.4335130000000  0.4401210000000 1.0
C      1  0.5540380000000  0.5512940000000  0.5587050000000 1.0
C      1  0.4999190000000  0.5272610000000  0.4526890000000 1.0
C      1  0.4135280000000  0.5242260000000  0.4698520000000 1.0
C      1  0.4555470000000  0.4652040000000  0.4374940000000 1.0
C      1  0.4364720000000  0.5567320000000  0.4539360000000 1.0
C      1  0.4252870000000  0.5522050000000  0.5389840000000 1.0
C      1  0.5910120000000  0.5007570000000  0.4905390000000 1.0
C      1  0.5443430000000  0.5017190000000  0.5771220000000 1.0
C      1  0.4916060000000  0.5782790000000  0.5758830000000 1.0
C      1  0.5214000000000  0.4030540000000  0.5236020000000 1.0
C      1  0.4878100000000  0.4402900000000  0.4254570000000 1.0
C      1  0.5399320000000  0.4603820000000  0.4998320000000 1.0
C      1  0.4139230000000  0.5111410000000  0.5462110000000 1.0
C      1  0.5020730000000  0.5723190000000  0.5142500000000 1.0
C      1  0.4177950000000  0.5535660000000  0.4737760000000 1.0
C      1  0.4647000000000  0.4377410000000  0.4425390000000 1.0
C      1  0.5565950000000  0.5570650000000  0.4914940000000 1.0
C      1  0.4695030000000  0.5195750000000  0.5892620000000 1.0
C      1  0.4277040000000  0.5328780000000  0.5610280000000 1.0
C      1  0.5201720000000  0.5262470000000  0.4742160000000 1.0
C      1  0.5146640000000  0.4156820000000  0.4617180000000 1.0
C      1  0.5191960000000  0.4897470000000  0.5874440000000 1.0
C      1  0.4231600000000  0.4414220000000  0.4868650000000 1.0
C      1  0.5676150000000  0.4629920000000  0.5475510000000 1.0
C      1  0.4914600000000  0.5305110000000  0.4053300000000 1.0
C      1  0.5251310000000  0.4607670000000  0.4040790000000 1.0
C      1  0.4633370000000  0.5672570000000  0.5367330000000 1.0
C      1  0.4453730000000  0.4414150000000  0.5455310000000 1.0
C      1  0.5374160000000  0.4228210000000  0.4709570000000 1.0
C      1  0.4462620000000  0.4805410000000  0.5689300000000 1.0
C      1  0.5030590000000  0.5140960000000  0.4975680000000 1.0
C      1  0.5219860000000  0.5246630000000  0.5344010000000 1.0
C      1  0.5818120000000  0.5063110000000  0.5432630000000 1.0
C      1  0.5444130000000  0.4413380000000  0.5450730000000 1.0
C      1  0.4017110000000  0.5217960000000  0.5211460000000 1.0
C      1  0.4552650000000  0.5287070000000  0.4984830000000 1.0
C      1  0.5099240000000  0.4878910000000  0.5033180000000 1.0
END
