TITL C-4164236-1577-295 7.94227348752555 125000 -17588.1591501635 0 0 120 (C1) n - 1
REM
REM in /home/nfs/bkarasulu/CARBON/AIRSS/Generating-Clusters/ReaxFF-fromJPCA2015/Units_Real/with-SteepDescent/Only-C1/SD-CG/Try1-3A/FIRE-CG
REM
REM
REM
REM
REM
REM ./C.cell (11c1c37f851c82e70ff6c80c92926a4b)
REM
REM compiler GCC version 9.2.1 20190827 (Red Hat 9.2.1-1)
REM options -cpp -mtune=generic -march=x86-64 -g -O0 -fpre-include=/usr/include/finclude/math-vector-fortran.h
REM seed 1907940026 -1982049029 -569113531 1841574854 610481038 228897006 -1252010248 -516363815 351308022 -1629677322 1544804379 -1984332978 160921485 152662655 217179212 872389108 700587307 466190111 -177019276 1723059634 351364315 1146313087 558466760 1883986595 -1613289390 560861847 709243325 -824064073 -343953951 -1818274199 -231823221 498669456 -2127189551
REM
CELL 1.54180   50.00000   50.00000   50.00000   90.00000   90.00000   90.00000
LATT -1
SFAC C  
C      1  0.5480970000000  0.4548990000000  0.5746350000000 1.0
C      1  0.4388640000000  0.4892140000000  0.4200960000000 1.0
C      1  0.4617290000000  0.5111800000000  0.5116350000000 1.0
C      1  0.4194770000000  0.4753700000000  0.4373450000000 1.0
C      1  0.5188860000000  0.5906610000000  0.4539660000000 1.0
C      1  0.4247170000000  0.4567800000000  0.5377950000000 1.0
C      1  0.5112980000000  0.5801760000000  0.5469620000000 1.0
C      1  0.4300710000000  0.4473550000000  0.4422060000000 1.0
C      1  0.5002280000000  0.4609080000000  0.5733990000000 1.0
C      1  0.4702310000000  0.4855020000000  0.5245800000000 1.0
C      1  0.5960190000000  0.4741780000000  0.5397060000000 1.0
C      1  0.4560230000000  0.5567750000000  0.5346880000000 1.0
C      1  0.5441400000000  0.4357970000000  0.4381530000000 1.0
C      1  0.4419540000000  0.5654640000000  0.4456470000000 1.0
C      1  0.5981510000000  0.4985860000000  0.5234570000000 1.0
C      1  0.4512970000000  0.4443020000000  0.4214670000000 1.0
C      1  0.4116650000000  0.4805140000000  0.5328130000000 1.0
C      1  0.4706730000000  0.5377950000000  0.5162920000000 1.0
C      1  0.5508670000000  0.4224490000000  0.4992470000000 1.0
C      1  0.5229570000000  0.4135300000000  0.4990150000000 1.0
C      1  0.5423160000000  0.5768130000000  0.4501100000000 1.0
C      1  0.4553850000000  0.4227130000000  0.4817950000000 1.0
C      1  0.5373050000000  0.5334410000000  0.4138490000000 1.0
C      1  0.4952340000000  0.5162450000000  0.4571700000000 1.0
C      1  0.5243720000000  0.4414830000000  0.5708430000000 1.0
C      1  0.4299610000000  0.5411950000000  0.4853360000000 1.0
C      1  0.4519680000000  0.4649590000000  0.5477630000000 1.0
C      1  0.5014360000000  0.4328400000000  0.4955530000000 1.0
C      1  0.5586710000000  0.5658240000000  0.5422570000000 1.0
C      1  0.5613810000000  0.4478760000000  0.4565240000000 1.0
C      1  0.4447720000000  0.5074530000000  0.5707210000000 1.0
C      1  0.5698180000000  0.5410770000000  0.4604100000000 1.0
C      1  0.4933130000000  0.4973690000000  0.5398510000000 1.0
C      1  0.5383610000000  0.4596910000000  0.4242500000000 1.0
C      1  0.5236440000000  0.5176480000000  0.5895750000000 1.0
C      1  0.5364550000000  0.5125310000000  0.4787050000000 1.0
C      1  0.5449650000000  0.4927890000000  0.4637650000000 1.0
C      1  0.4538040000000  0.5408410000000  0.4307440000000 1.0
C      1  0.5333710000000  0.5405830000000  0.5749170000000 1.0
C      1  0.5599830000000  0.5177320000000  0.5436850000000 1.0
C      1  0.5193130000000  0.4969090000000  0.4964780000000 1.0
C      1  0.5434560000000  0.4959330000000  0.5380620000000 1.0
C      1  0.4476160000000  0.5048710000000  0.4617350000000 1.0
C      1  0.5089030000000  0.5364130000000  0.4107050000000 1.0
C      1  0.4568550000000  0.4832720000000  0.5734210000000 1.0
C      1  0.5893970000000  0.4942120000000  0.4957460000000 1.0
C      1  0.5559380000000  0.5283410000000  0.5006360000000 1.0
C      1  0.4762990000000  0.4686530000000  0.4745080000000 1.0
C      1  0.5036170000000  0.5118910000000  0.5176920000000 1.0
C      1  0.4988030000000  0.4116330000000  0.5336820000000 1.0
C      1  0.4243330000000  0.4758620000000  0.4889750000000 1.0
C      1  0.4943610000000  0.5764960000000  0.4543010000000 1.0
C      1  0.5857990000000  0.5131790000000  0.4714980000000 1.0
C      1  0.5184060000000  0.5323270000000  0.4664080000000 1.0
C      1  0.4562090000000  0.5859720000000  0.4952940000000 1.0
C      1  0.4828170000000  0.4335740000000  0.4732630000000 1.0
C      1  0.4358080000000  0.5337770000000  0.5664250000000 1.0
C      1  0.5146040000000  0.5517040000000  0.4937230000000 1.0
C      1  0.5594560000000  0.5668640000000  0.4694090000000 1.0
C      1  0.5495910000000  0.4710400000000  0.5241120000000 1.0
C      1  0.4625250000000  0.4718410000000  0.4160450000000 1.0
C      1  0.4706260000000  0.4160100000000  0.5319680000000 1.0
C      1  0.4016150000000  0.4907750000000  0.4565570000000 1.0
C      1  0.5579210000000  0.4760750000000  0.4458850000000 1.0
C      1  0.5817330000000  0.5435690000000  0.5016320000000 1.0
C      1  0.4944990000000  0.5127460000000  0.5870930000000 1.0
C      1  0.4850270000000  0.4850080000000  0.5828390000000 1.0
C      1  0.4483600000000  0.4787110000000  0.4736280000000 1.0
C      1  0.5189670000000  0.5613020000000  0.4462720000000 1.0
C      1  0.4925800000000  0.4517360000000  0.5476350000000 1.0
C      1  0.4021200000000  0.5031730000000  0.5271800000000 1.0
C      1  0.4775040000000  0.5591340000000  0.4688620000000 1.0
C      1  0.4389580000000  0.5686300000000  0.4740430000000 1.0
C      1  0.5215800000000  0.4176910000000  0.4401060000000 1.0
C      1  0.5607200000000  0.4791610000000  0.5777440000000 1.0
C      1  0.4852170000000  0.5501490000000  0.4947440000000 1.0
C      1  0.4703760000000  0.5823870000000  0.5181860000000 1.0
C      1  0.4614170000000  0.5490090000000  0.5648850000000 1.0
C      1  0.5022560000000  0.4313880000000  0.4251050000000 1.0
C      1  0.4279850000000  0.5454310000000  0.5401140000000 1.0
C      1  0.5360490000000  0.5430060000000  0.5163610000000 1.0
C      1  0.4913630000000  0.4874170000000  0.4541530000000 1.0
C      1  0.5766430000000  0.4585250000000  0.5230200000000 1.0
C      1  0.4179780000000  0.4469350000000  0.4907560000000 1.0
C      1  0.5389810000000  0.4121160000000  0.5245870000000 1.0
C      1  0.5855400000000  0.4880940000000  0.5629200000000 1.0
C      1  0.4484320000000  0.5183690000000  0.4872240000000 1.0
C      1  0.5692460000000  0.5690870000000  0.5150210000000 1.0
C      1  0.4392030000000  0.5134970000000  0.4355610000000 1.0
C      1  0.4748680000000  0.5366220000000  0.4520330000000 1.0
C      1  0.4669070000000  0.4391090000000  0.5501770000000 1.0
C      1  0.4502750000000  0.4199930000000  0.5099630000000 1.0
C      1  0.5028590000000  0.4544620000000  0.5146230000000 1.0
C      1  0.4037060000000  0.4980650000000  0.4850760000000 1.0
C      1  0.4267130000000  0.4363290000000  0.5161580000000 1.0
C      1  0.5592340000000  0.5356140000000  0.4346550000000 1.0
C      1  0.5866120000000  0.5136040000000  0.5473470000000 1.0
C      1  0.5187470000000  0.4919920000000  0.5521960000000 1.0
C      1  0.4319210000000  0.4335100000000  0.4686760000000 1.0
C      1  0.5153770000000  0.5326400000000  0.5324180000000 1.0
C      1  0.5004710000000  0.5864920000000  0.5205030000000 1.0
C      1  0.5096530000000  0.5496090000000  0.5584290000000 1.0
C      1  0.5838490000000  0.4650260000000  0.4957810000000 1.0
C      1  0.4828500000000  0.5394150000000  0.4119890000000 1.0
C      1  0.4061590000000  0.5277830000000  0.4949310000000 1.0
C      1  0.4857840000000  0.5377160000000  0.5743010000000 1.0
C      1  0.5576550000000  0.5404160000000  0.5587850000000 1.0
C      1  0.4810740000000  0.4678040000000  0.5035160000000 1.0
C      1  0.5209070000000  0.5805210000000  0.5000800000000 1.0
C      1  0.5655090000000  0.4441800000000  0.4848060000000 1.0
C      1  0.4940940000000  0.4209000000000  0.4492660000000 1.0
C      1  0.4898280000000  0.4779390000000  0.4266810000000 1.0
C      1  0.5103610000000  0.4582740000000  0.4189830000000 1.0
C      1  0.5848680000000  0.4954710000000  0.4494020000000 1.0
C      1  0.5273340000000  0.4708690000000  0.5060000000000 1.0
C      1  0.5390190000000  0.5878340000000  0.5513300000000 1.0
C      1  0.5330780000000  0.4924930000000  0.5782740000000 1.0
C      1  0.5215010000000  0.4196000000000  0.5470250000000 1.0
C      1  0.5500010000000  0.5782760000000  0.4951010000000 1.0
C      1  0.4079260000000  0.5310110000000  0.5243670000000 1.0
END
