TITL C-4164245-3996-299 -9.39143816761849 125000 -16039.5240227454 0 0 107 (C1) n - 1
REM
REM in /home/nfs/bkarasulu/CARBON/AIRSS/Generating-Clusters/ReaxFF-fromJPCA2015/Units_Real/with-SteepDescent/Only-C1/SD-CG/Try1-3A/FIRE-CG
REM
REM
REM
REM
REM
REM ./C.cell (11c1c37f851c82e70ff6c80c92926a4b)
REM
REM compiler GCC version 9.2.1 20190827 (Red Hat 9.2.1-1)
REM options -cpp -mtune=generic -march=x86-64 -g -O0 -fpre-include=/usr/include/finclude/math-vector-fortran.h
REM seed 400679259 804470257 -546013475 1056063677 1320721380 554132017 176004387 -643258688 -1714022846 -2147320616 908721258 1198110747 2131907207 -334829373 814758687 822742685 2005674222 -415602185 388726343 1179007964 1702864368 -1083314710 -42793014 -427390187 -478784947 -2008602253 792116605 1445425879 526635979 2019721870 -769909241 505916247 -1711287299
REM
CELL 1.54180   50.00000   50.00000   50.00000   90.00000   90.00000   90.00000
LATT -1
SFAC C  
C      1  0.5134040000000  0.5027320000000  0.5591290000000 1.0
C      1  0.5376890000000  0.4595120000000  0.5728970000000 1.0
C      1  0.4414400000000  0.5344410000000  0.5018730000000 1.0
C      1  0.4443670000000  0.5517080000000  0.4782940000000 1.0
C      1  0.4798220000000  0.5022430000000  0.4621700000000 1.0
C      1  0.4264280000000  0.5132830000000  0.4489750000000 1.0
C      1  0.5161560000000  0.4149280000000  0.5456350000000 1.0
C      1  0.5413540000000  0.4377170000000  0.4367930000000 1.0
C      1  0.5556220000000  0.5528480000000  0.5299750000000 1.0
C      1  0.4577960000000  0.4809860000000  0.5715400000000 1.0
C      1  0.4788340000000  0.5246690000000  0.4181020000000 1.0
C      1  0.4971910000000  0.4552610000000  0.4134680000000 1.0
C      1  0.4652790000000  0.4895300000000  0.4837680000000 1.0
C      1  0.5550290000000  0.5221040000000  0.4323230000000 1.0
C      1  0.5037790000000  0.4100470000000  0.4984580000000 1.0
C      1  0.4625990000000  0.5003370000000  0.4148700000000 1.0
C      1  0.4322720000000  0.5233730000000  0.5478690000000 1.0
C      1  0.4647590000000  0.5446700000000  0.4341400000000 1.0
C      1  0.4408210000000  0.4920830000000  0.4327240000000 1.0
C      1  0.5003470000000  0.4020120000000  0.5260150000000 1.0
C      1  0.4940260000000  0.4856800000000  0.4426410000000 1.0
C      1  0.5232500000000  0.4409090000000  0.4723750000000 1.0
C      1  0.5371650000000  0.5305540000000  0.4772330000000 1.0
C      1  0.5295250000000  0.4215250000000  0.4937130000000 1.0
C      1  0.4853590000000  0.4372520000000  0.4333250000000 1.0
C      1  0.5332940000000  0.5136390000000  0.5013250000000 1.0
C      1  0.5622730000000  0.4441240000000  0.4531500000000 1.0
C      1  0.5503080000000  0.4236000000000  0.5151030000000 1.0
C      1  0.4072990000000  0.4851100000000  0.5155480000000 1.0
C      1  0.4797940000000  0.4591290000000  0.5168700000000 1.0
C      1  0.4436360000000  0.4682540000000  0.4736640000000 1.0
C      1  0.4875470000000  0.5791230000000  0.5575560000000 1.0
C      1  0.4415390000000  0.5390350000000  0.4521690000000 1.0
C      1  0.5133210000000  0.5651660000000  0.5577740000000 1.0
C      1  0.4358600000000  0.4829150000000  0.5252780000000 1.0
C      1  0.5279730000000  0.5482480000000  0.4159510000000 1.0
C      1  0.4144210000000  0.5117490000000  0.4743130000000 1.0
C      1  0.4538240000000  0.5063670000000  0.5080410000000 1.0
C      1  0.5863330000000  0.4924630000000  0.4804130000000 1.0
C      1  0.5079870000000  0.5597740000000  0.4485080000000 1.0
C      1  0.5734400000000  0.5337630000000  0.4507370000000 1.0
C      1  0.4857450000000  0.5941800000000  0.5327850000000 1.0
C      1  0.4335470000000  0.6042070000000  0.5254060000000 1.0
C      1  0.5777870000000  0.5098100000000  0.5415650000000 1.0
C      1  0.4431590000000  0.4285780000000  0.5379400000000 1.0
C      1  0.5182350000000  0.4850700000000  0.5013530000000 1.0
C      1  0.4949330000000  0.4623550000000  0.5401560000000 1.0
C      1  0.4601670000000  0.4264070000000  0.4707100000000 1.0
C      1  0.4773240000000  0.4872930000000  0.5926140000000 1.0
C      1  0.5445980000000  0.5741300000000  0.4621200000000 1.0
C      1  0.4051510000000  0.5117450000000  0.5017860000000 1.0
C      1  0.5786380000000  0.4344520000000  0.5138840000000 1.0
C      1  0.5594950000000  0.4598320000000  0.4719050000000 1.0
C      1  0.5583320000000  0.5302650000000  0.5497090000000 1.0
C      1  0.5317650000000  0.5700340000000  0.4348520000000 1.0
C      1  0.5653230000000  0.4994710000000  0.5036290000000 1.0
C      1  0.5185500000000  0.4784990000000  0.5355490000000 1.0
C      1  0.5014400000000  0.5037150000000  0.5895810000000 1.0
C      1  0.4401010000000  0.4951320000000  0.5530500000000 1.0
C      1  0.4443530000000  0.4437760000000  0.4885460000000 1.0
C      1  0.4854970000000  0.5116970000000  0.5512690000000 1.0
C      1  0.5344580000000  0.5235670000000  0.5649670000000 1.0
C      1  0.5853950000000  0.4627150000000  0.5110090000000 1.0
C      1  0.5191880000000  0.5345270000000  0.5185000000000 1.0
C      1  0.4753810000000  0.4561610000000  0.5644130000000 1.0
C      1  0.5310750000000  0.5085650000000  0.4268610000000 1.0
C      1  0.4734280000000  0.5667110000000  0.4757850000000 1.0
C      1  0.5596990000000  0.5504020000000  0.4753690000000 1.0
C      1  0.5850170000000  0.4629940000000  0.4809470000000 1.0
C      1  0.4815180000000  0.5419360000000  0.4881690000000 1.0
C      1  0.4918240000000  0.5245090000000  0.4708120000000 1.0
C      1  0.4890080000000  0.4601970000000  0.5919160000000 1.0
C      1  0.4590990000000  0.5700380000000  0.5549570000000 1.0
C      1  0.5146770000000  0.5355940000000  0.4611900000000 1.0
C      1  0.5234390000000  0.4811270000000  0.4437500000000 1.0
C      1  0.4904200000000  0.4770310000000  0.4977650000000 1.0
C      1  0.5257990000000  0.5619170000000  0.5298770000000 1.0
C      1  0.5186920000000  0.5450360000000  0.5775040000000 1.0
C      1  0.5039960000000  0.4268770000000  0.4539420000000 1.0
C      1  0.4870750000000  0.4151340000000  0.4748850000000 1.0
C      1  0.4951650000000  0.5320350000000  0.5902030000000 1.0
C      1  0.5070350000000  0.5864550000000  0.5152630000000 1.0
C      1  0.5238230000000  0.5822060000000  0.4780760000000 1.0
C      1  0.4486710000000  0.4516310000000  0.5174690000000 1.0
C      1  0.4585250000000  0.4402270000000  0.4447220000000 1.0
C      1  0.4862500000000  0.4828860000000  0.4143360000000 1.0
C      1  0.4207890000000  0.5300130000000  0.5215060000000 1.0
C      1  0.4988110000000  0.5849210000000  0.4880030000000 1.0
C      1  0.4770050000000  0.5150780000000  0.5236990000000 1.0
C      1  0.4492380000000  0.5436420000000  0.5614460000000 1.0
C      1  0.5803000000000  0.5222550000000  0.5151400000000 1.0
C      1  0.5379980000000  0.4331930000000  0.5394300000000 1.0
C      1  0.5097870000000  0.5260610000000  0.4147310000000 1.0
C      1  0.4722170000000  0.5283270000000  0.5717760000000 1.0
C      1  0.5170250000000  0.4585880000000  0.5876300000000 1.0
C      1  0.5823470000000  0.5094890000000  0.4591030000000 1.0
C      1  0.5442960000000  0.4633330000000  0.5447410000000 1.0
C      1  0.4654360000000  0.4269970000000  0.5561830000000 1.0
C      1  0.5244210000000  0.4573010000000  0.4246320000000 1.0
C      1  0.5698170000000  0.4830660000000  0.5290480000000 1.0
C      1  0.4907570000000  0.5367410000000  0.5134510000000 1.0
C      1  0.4799450000000  0.5650410000000  0.4474610000000 1.0
C      1  0.4536440000000  0.5886600000000  0.5308130000000 1.0
C      1  0.4421010000000  0.4656440000000  0.4450280000000 1.0
C      1  0.4882910000000  0.4097810000000  0.5497030000000 1.0
C      1  0.5297190000000  0.4702910000000  0.4748270000000 1.0
C      1  0.5700970000000  0.5475920000000  0.5058450000000 1.0
END
