TITL C-4164245-3996-106 51.8487657621385 125000 -26348.4210253896 0 0 180 (C1) n - 1
REM
REM in /home/nfs/bkarasulu/CARBON/AIRSS/Generating-Clusters/ReaxFF-fromJPCA2015/Units_Real/with-SteepDescent/Only-C1/SD-CG/Try1-3A/FIRE-CG
REM
REM
REM
REM
REM
REM ./C.cell (11c1c37f851c82e70ff6c80c92926a4b)
REM
REM compiler GCC version 9.2.1 20190827 (Red Hat 9.2.1-1)
REM options -cpp -mtune=generic -march=x86-64 -g -O0 -fpre-include=/usr/include/finclude/math-vector-fortran.h
REM seed 1175147651 -748971002 -653341875 -1005385798 1373598428 -559700253 2124753464 1926751930 -1952448178 -875144305 1358537152 1429122020 -101534974 1454265333 1110462839 44123829 1281530005 -55186013 1830485665 -261513775 845702653 1234516512 1700503090 530428120 1262769572 -612988692 -642799194 -249799906 -1545245476 -1960369129 -366156970 -1117695468 -1264274894
REM
CELL 1.54180   50.00000   50.00000   50.00000   90.00000   90.00000   90.00000
LATT -1
SFAC C  
C      1  0.4960860000000  0.6055230000000  0.5045470000000 1.0
C      1  0.4174870000000  0.5598270000000  0.4588350000000 1.0
C      1  0.4160470000000  0.5020070000000  0.4656250000000 1.0
C      1  0.5942550000000  0.5332850000000  0.5538300000000 1.0
C      1  0.4517190000000  0.4657330000000  0.4136030000000 1.0
C      1  0.5983680000000  0.5098630000000  0.4613500000000 1.0
C      1  0.4320520000000  0.5541780000000  0.5952780000000 1.0
C      1  0.4584700000000  0.4988610000000  0.5071150000000 1.0
C      1  0.4697140000000  0.4554950000000  0.4656510000000 1.0
C      1  0.5018390000000  0.5618100000000  0.3954190000000 1.0
C      1  0.4509790000000  0.4651680000000  0.5543450000000 1.0
C      1  0.5009590000000  0.5514130000000  0.5884860000000 1.0
C      1  0.5806410000000  0.4674600000000  0.4347870000000 1.0
C      1  0.5424310000000  0.4982080000000  0.4848750000000 1.0
C      1  0.5283230000000  0.5527750000000  0.5973910000000 1.0
C      1  0.4706040000000  0.3943380000000  0.5078180000000 1.0
C      1  0.5516010000000  0.5350610000000  0.4080450000000 1.0
C      1  0.5264170000000  0.4504750000000  0.4894620000000 1.0
C      1  0.3901250000000  0.5196720000000  0.5184500000000 1.0
C      1  0.5373010000000  0.4092740000000  0.4706440000000 1.0
C      1  0.5037740000000  0.5987620000000  0.5319370000000 1.0
C      1  0.4964090000000  0.4622800000000  0.4476100000000 1.0
C      1  0.4640290000000  0.5159200000000  0.4303990000000 1.0
C      1  0.5880990000000  0.4528800000000  0.5353020000000 1.0
C      1  0.5892360000000  0.5165710000000  0.5753830000000 1.0
C      1  0.5683810000000  0.4767320000000  0.5650640000000 1.0
C      1  0.5931870000000  0.5489990000000  0.5312740000000 1.0
C      1  0.5746940000000  0.4473980000000  0.5598900000000 1.0
C      1  0.4815740000000  0.5861210000000  0.5460720000000 1.0
C      1  0.4787810000000  0.4851890000000  0.5195620000000 1.0
C      1  0.5525950000000  0.5661450000000  0.5595230000000 1.0
C      1  0.5851140000000  0.4861500000000  0.4962950000000 1.0
C      1  0.5479460000000  0.5617000000000  0.4206940000000 1.0
C      1  0.4168230000000  0.5464700000000  0.5717580000000 1.0
C      1  0.4991510000000  0.5219360000000  0.5938450000000 1.0
C      1  0.4485450000000  0.4460270000000  0.5764910000000 1.0
C      1  0.5401470000000  0.4002540000000  0.4987100000000 1.0
C      1  0.3987970000000  0.4893390000000  0.5117310000000 1.0
C      1  0.5647510000000  0.5877420000000  0.5155910000000 1.0
C      1  0.4231340000000  0.4872670000000  0.4899860000000 1.0
C      1  0.4919000000000  0.4241650000000  0.5806480000000 1.0
C      1  0.5473370000000  0.4822180000000  0.4032830000000 1.0
C      1  0.5092620000000  0.5417270000000  0.4777390000000 1.0
C      1  0.5613850000000  0.4095050000000  0.5179910000000 1.0
C      1  0.5357770000000  0.4993850000000  0.4383030000000 1.0
C      1  0.5194580000000  0.5051750000000  0.6072390000000 1.0
C      1  0.4253340000000  0.5001430000000  0.4150370000000 1.0
C      1  0.4656480000000  0.5485100000000  0.4686830000000 1.0
C      1  0.5119970000000  0.3962340000000  0.5084560000000 1.0
C      1  0.4583430000000  0.5116540000000  0.5724560000000 1.0
C      1  0.4953270000000  0.4781860000000  0.5660600000000 1.0
C      1  0.5163270000000  0.5151820000000  0.4976760000000 1.0
C      1  0.5337130000000  0.5872080000000  0.5582960000000 1.0
C      1  0.4926860000000  0.5146300000000  0.4390430000000 1.0
C      1  0.4778620000000  0.4147700000000  0.5528650000000 1.0
C      1  0.5236580000000  0.4577990000000  0.4592240000000 1.0
C      1  0.5809550000000  0.4311740000000  0.5163550000000 1.0
C      1  0.5610580000000  0.4241320000000  0.4628480000000 1.0
C      1  0.4916710000000  0.4900520000000  0.4543450000000 1.0
C      1  0.4489370000000  0.3981650000000  0.4899940000000 1.0
C      1  0.4315570000000  0.5248670000000  0.5186560000000 1.0
C      1  0.5456520000000  0.5159750000000  0.5560270000000 1.0
C      1  0.4732900000000  0.4177010000000  0.4213560000000 1.0
C      1  0.5846930000000  0.5763520000000  0.4973030000000 1.0
C      1  0.5407710000000  0.5254910000000  0.6027310000000 1.0
C      1  0.4307580000000  0.4232650000000  0.5333410000000 1.0
C      1  0.5661440000000  0.4412380000000  0.4393110000000 1.0
C      1  0.5495630000000  0.4911600000000  0.5399830000000 1.0
C      1  0.5870110000000  0.5281990000000  0.4417000000000 1.0
C      1  0.5530400000000  0.5227360000000  0.4753630000000 1.0
C      1  0.4972640000000  0.4908280000000  0.5008220000000 1.0
C      1  0.5006710000000  0.4561510000000  0.4170940000000 1.0
C      1  0.4331630000000  0.5703990000000  0.5306330000000 1.0
C      1  0.5535100000000  0.5425050000000  0.4949390000000 1.0
C      1  0.4358730000000  0.5621560000000  0.4360120000000 1.0
C      1  0.4825030000000  0.4882840000000  0.3838810000000 1.0
C      1  0.4755890000000  0.4438780000000  0.5916440000000 1.0
C      1  0.4894480000000  0.3952880000000  0.5272300000000 1.0
C      1  0.5139770000000  0.4704330000000  0.5074230000000 1.0
C      1  0.5921760000000  0.5508610000000  0.4815830000000 1.0
C      1  0.4529380000000  0.4140220000000  0.4650090000000 1.0
C      1  0.4776090000000  0.4673040000000  0.5441660000000 1.0
C      1  0.5015710000000  0.4105650000000  0.4277410000000 1.0
C      1  0.4284900000000  0.4684070000000  0.5371400000000 1.0
C      1  0.5247970000000  0.4775630000000  0.5323820000000 1.0
C      1  0.4637540000000  0.4818950000000  0.4587870000000 1.0
C      1  0.4090270000000  0.5337860000000  0.5371810000000 1.0
C      1  0.3921190000000  0.5426810000000  0.5009810000000 1.0
C      1  0.5322880000000  0.5805920000000  0.4631880000000 1.0
C      1  0.4581980000000  0.5860790000000  0.5276380000000 1.0
C      1  0.6007110000000  0.5224010000000  0.4875890000000 1.0
C      1  0.4159290000000  0.4555390000000  0.4510950000000 1.0
C      1  0.5177290000000  0.6048910000000  0.4822320000000 1.0
C      1  0.5663690000000  0.5389330000000  0.5209960000000 1.0
C      1  0.4483210000000  0.4234740000000  0.5561740000000 1.0
C      1  0.5273210000000  0.4529620000000  0.5450730000000 1.0
C      1  0.4071020000000  0.5592040000000  0.5210880000000 1.0
C      1  0.4283400000000  0.4030050000000  0.5125750000000 1.0
C      1  0.5420180000000  0.4055780000000  0.5407080000000 1.0
C      1  0.4485700000000  0.5255640000000  0.4714830000000 1.0
C      1  0.4441800000000  0.4951600000000  0.5933530000000 1.0
C      1  0.5325990000000  0.5854390000000  0.5286070000000 1.0
C      1  0.5269540000000  0.4957130000000  0.4056730000000 1.0
C      1  0.5247550000000  0.4284070000000  0.5316440000000 1.0
C      1  0.4870020000000  0.4666810000000  0.6076670000000 1.0
C      1  0.4251320000000  0.5875140000000  0.4672330000000 1.0
C      1  0.4504590000000  0.4356410000000  0.4240760000000 1.0
C      1  0.5759830000000  0.4412150000000  0.4865160000000 1.0
C      1  0.4609380000000  0.5652230000000  0.5893740000000 1.0
C      1  0.5608430000000  0.4568120000000  0.5831840000000 1.0
C      1  0.4643090000000  0.4857930000000  0.6126690000000 1.0
C      1  0.5955270000000  0.4914880000000  0.5609540000000 1.0
C      1  0.4817880000000  0.5802590000000  0.4417650000000 1.0
C      1  0.5278790000000  0.5232720000000  0.3959760000000 1.0
C      1  0.5113510000000  0.5813670000000  0.4416730000000 1.0
C      1  0.4865700000000  0.5035470000000  0.5740350000000 1.0
C      1  0.4358160000000  0.5919720000000  0.4394550000000 1.0
C      1  0.5200310000000  0.6294700000000  0.4809560000000 1.0
C      1  0.5998250000000  0.4826200000000  0.5340470000000 1.0
C      1  0.5376990000000  0.4434720000000  0.4343170000000 1.0
C      1  0.5390170000000  0.5255610000000  0.4503360000000 1.0
C      1  0.4495820000000  0.5162510000000  0.4049300000000 1.0
C      1  0.4830990000000  0.5717020000000  0.5737500000000 1.0
C      1  0.5898750000000  0.5789920000000  0.5258970000000 1.0
C      1  0.5214430000000  0.5735200000000  0.4155130000000 1.0
C      1  0.4390320000000  0.4625120000000  0.4923600000000 1.0
C      1  0.5424740000000  0.5739250000000  0.5830170000000 1.0
C      1  0.4786950000000  0.5366660000000  0.5357310000000 1.0
C      1  0.4817350000000  0.4355080000000  0.5098300000000 1.0
C      1  0.4748430000000  0.5155480000000  0.3888910000000 1.0
C      1  0.4039880000000  0.4787830000000  0.5696840000000 1.0
C      1  0.5533070000000  0.4561860000000  0.4988180000000 1.0
C      1  0.4288770000000  0.5295410000000  0.4914700000000 1.0
C      1  0.5001990000000  0.5329070000000  0.3910770000000 1.0
C      1  0.5150500000000  0.4760540000000  0.6080850000000 1.0
C      1  0.5115390000000  0.5334530000000  0.4497750000000 1.0
C      1  0.5189860000000  0.5642100000000  0.5147190000000 1.0
C      1  0.5332470000000  0.4542050000000  0.5934420000000 1.0
C      1  0.5727110000000  0.5176120000000  0.4186240000000 1.0
C      1  0.5094280000000  0.4265530000000  0.5058390000000 1.0
C      1  0.4857400000000  0.5532700000000  0.4878640000000 1.0
C      1  0.4055680000000  0.5352650000000  0.4739210000000 1.0
C      1  0.4622330000000  0.6003560000000  0.4506060000000 1.0
C      1  0.5959910000000  0.4798700000000  0.4558120000000 1.0
C      1  0.5945400000000  0.4643060000000  0.4796520000000 1.0
C      1  0.5067230000000  0.4765600000000  0.3970460000000 1.0
C      1  0.5305560000000  0.5592940000000  0.4891460000000 1.0
C      1  0.5365480000000  0.4832370000000  0.4605010000000 1.0
C      1  0.4387270000000  0.5553670000000  0.5552760000000 1.0
C      1  0.4917870000000  0.5545930000000  0.5162670000000 1.0
C      1  0.4584430000000  0.4871280000000  0.4324210000000 1.0
C      1  0.4268080000000  0.4715940000000  0.5861700000000 1.0
C      1  0.4627430000000  0.5023200000000  0.4791190000000 1.0
C      1  0.4661810000000  0.4523270000000  0.4931300000000 1.0
C      1  0.4011190000000  0.4546740000000  0.4746760000000 1.0
C      1  0.6036190000000  0.5023310000000  0.5116610000000 1.0
C      1  0.5724270000000  0.4876210000000  0.4148550000000 1.0
C      1  0.3950270000000  0.4596600000000  0.5014460000000 1.0
C      1  0.4609620000000  0.5372610000000  0.5590850000000 1.0
C      1  0.5202160000000  0.4247150000000  0.5871020000000 1.0
C      1  0.5592990000000  0.5168030000000  0.5820860000000 1.0
C      1  0.5559980000000  0.5697250000000  0.4474230000000 1.0
C      1  0.4814680000000  0.4390160000000  0.5369180000000 1.0
C      1  0.5485060000000  0.5420170000000  0.5440400000000 1.0
C      1  0.4080680000000  0.4879970000000  0.5406650000000 1.0
C      1  0.4576680000000  0.5210810000000  0.5225970000000 1.0
C      1  0.4219890000000  0.4505070000000  0.5144630000000 1.0
C      1  0.5577070000000  0.4837730000000  0.5067280000000 1.0
C      1  0.4590320000000  0.4690880000000  0.3850250000000 1.0
C      1  0.4809370000000  0.4085440000000  0.4640510000000 1.0
C      1  0.4650960000000  0.5556370000000  0.4404840000000 1.0
C      1  0.5351240000000  0.4118670000000  0.5673770000000 1.0
C      1  0.4514100000000  0.5983940000000  0.4781390000000 1.0
C      1  0.4672040000000  0.5983850000000  0.5026660000000 1.0
C      1  0.5083930000000  0.4072380000000  0.4567260000000 1.0
C      1  0.5797800000000  0.5538120000000  0.4555420000000 1.0
C      1  0.4176670000000  0.4866220000000  0.4406880000000 1.0
C      1  0.5197280000000  0.4642190000000  0.5701230000000 1.0
C      1  0.4354020000000  0.4333530000000  0.4482000000000 1.0
C      1  0.5177190000000  0.4328820000000  0.4158730000000 1.0
END
