TITL C-4164236-1577-6 19.4717980988061 125000 -26044.3859564106 0 0 176 (C1) n - 1
REM
REM in /home/nfs/bkarasulu/CARBON/AIRSS/Generating-Clusters/ReaxFF-fromJPCA2015/Units_Real/with-SteepDescent/Only-C1/SD-CG/Try1-3A/FIRE-CG
REM
REM
REM
REM
REM
REM ./C.cell (11c1c37f851c82e70ff6c80c92926a4b)
REM
REM compiler GCC version 9.2.1 20190827 (Red Hat 9.2.1-1)
REM options -cpp -mtune=generic -march=x86-64 -g -O0 -fpre-include=/usr/include/finclude/math-vector-fortran.h
REM seed 2101220194 76565881 1182360474 -1198315781 -1086853634 -1696193542 1092144527 -994126098 -273282939 -367961880 -1118005113 -1565722973 -1772645866 -1850744251 2058044512 -2036852253 555458944 -462188968 1590260781 -1368131526 126384808 -2031931821 1409308741 526879298 530690675 -1942255715 -796345707 -168606214 -643174695 531866665 910638432 -1866842973 1031243542
REM
CELL 1.54180   50.00000   50.00000   50.00000   90.00000   90.00000   90.00000
LATT -1
SFAC C  
C      1  0.5426060000000  0.5016960000000  0.4454730000000 1.0
C      1  0.4937870000000  0.5200640000000  0.3953300000000 1.0
C      1  0.5084330000000  0.4926520000000  0.6005950000000 1.0
C      1  0.4472980000000  0.4616680000000  0.5248900000000 1.0
C      1  0.4975710000000  0.4664740000000  0.4608310000000 1.0
C      1  0.6030020000000  0.4689810000000  0.4989050000000 1.0
C      1  0.5785520000000  0.4525700000000  0.5029710000000 1.0
C      1  0.4947560000000  0.5078680000000  0.5439770000000 1.0
C      1  0.5250460000000  0.5677820000000  0.4267530000000 1.0
C      1  0.5093990000000  0.5902020000000  0.5584360000000 1.0
C      1  0.5352730000000  0.5621770000000  0.5912340000000 1.0
C      1  0.5921990000000  0.4857720000000  0.5722280000000 1.0
C      1  0.5713830000000  0.4088190000000  0.5154940000000 1.0
C      1  0.4335530000000  0.4882970000000  0.4175530000000 1.0
C      1  0.6014210000000  0.4852510000000  0.4508290000000 1.0
C      1  0.4711000000000  0.4710830000000  0.5084460000000 1.0
C      1  0.5653490000000  0.5413730000000  0.4742000000000 1.0
C      1  0.5099180000000  0.4169060000000  0.4680050000000 1.0
C      1  0.4706980000000  0.4680090000000  0.4546800000000 1.0
C      1  0.4827600000000  0.5626440000000  0.5884530000000 1.0
C      1  0.4773270000000  0.3978380000000  0.5298710000000 1.0
C      1  0.5010900000000  0.5365500000000  0.4779970000000 1.0
C      1  0.6120860000000  0.5442220000000  0.4973850000000 1.0
C      1  0.5068250000000  0.4435070000000  0.5359310000000 1.0
C      1  0.4928240000000  0.4353510000000  0.5066340000000 1.0
C      1  0.5335900000000  0.4981690000000  0.5876240000000 1.0
C      1  0.5252910000000  0.4911270000000  0.5119240000000 1.0
C      1  0.5855200000000  0.4932260000000  0.4275120000000 1.0
C      1  0.4871370000000  0.4940120000000  0.3933810000000 1.0
C      1  0.3903880000000  0.4804340000000  0.5144200000000 1.0
C      1  0.5443450000000  0.4518320000000  0.4633780000000 1.0
C      1  0.5153440000000  0.4984390000000  0.4385760000000 1.0
C      1  0.3967490000000  0.5346010000000  0.5602280000000 1.0
C      1  0.4751400000000  0.5759690000000  0.4236450000000 1.0
C      1  0.5079170000000  0.5593660000000  0.4038840000000 1.0
C      1  0.4578870000000  0.4258990000000  0.5702870000000 1.0
C      1  0.3998390000000  0.5379030000000  0.4891070000000 1.0
C      1  0.5717060000000  0.5807450000000  0.5143730000000 1.0
C      1  0.4682090000000  0.5443160000000  0.5345780000000 1.0
C      1  0.3941850000000  0.4742960000000  0.4839320000000 1.0
C      1  0.4657980000000  0.4561090000000  0.4340160000000 1.0
C      1  0.5676430000000  0.4228780000000  0.5394210000000 1.0
C      1  0.5763320000000  0.4683840000000  0.5550590000000 1.0
C      1  0.5189620000000  0.5340320000000  0.3897100000000 1.0
C      1  0.4695540000000  0.5630010000000  0.4828590000000 1.0
C      1  0.4810640000000  0.6033720000000  0.4897070000000 1.0
C      1  0.5242820000000  0.6107430000000  0.4568480000000 1.0
C      1  0.4168580000000  0.5136740000000  0.5691550000000 1.0
C      1  0.4865590000000  0.4230380000000  0.5781520000000 1.0
C      1  0.4602060000000  0.5884420000000  0.5462270000000 1.0
C      1  0.4119150000000  0.4477930000000  0.5561420000000 1.0
C      1  0.6119530000000  0.4971310000000  0.5009300000000 1.0
C      1  0.5372630000000  0.4324950000000  0.5730670000000 1.0
C      1  0.5025790000000  0.5205780000000  0.4256680000000 1.0
C      1  0.5965590000000  0.5047780000000  0.5518200000000 1.0
C      1  0.5632280000000  0.5138860000000  0.5142660000000 1.0
C      1  0.6134970000000  0.5341460000000  0.4697740000000 1.0
C      1  0.4638950000000  0.4906150000000  0.5835270000000 1.0
C      1  0.5741030000000  0.4273180000000  0.4934430000000 1.0
C      1  0.5151920000000  0.4448340000000  0.4610450000000 1.0
C      1  0.4082780000000  0.4236840000000  0.5407460000000 1.0
C      1  0.4371120000000  0.5168040000000  0.4138940000000 1.0
C      1  0.4115280000000  0.4489350000000  0.4463520000000 1.0
C      1  0.4772110000000  0.4853440000000  0.5585140000000 1.0
C      1  0.5712480000000  0.5132370000000  0.4838890000000 1.0
C      1  0.4580790000000  0.5888200000000  0.4416650000000 1.0
C      1  0.4560690000000  0.4178160000000  0.4382800000000 1.0
C      1  0.5411340000000  0.5326620000000  0.5098060000000 1.0
C      1  0.4513010000000  0.4343200000000  0.3998820000000 1.0
C      1  0.4799050000000  0.5551070000000  0.4125900000000 1.0
C      1  0.4595440000000  0.5768140000000  0.5738140000000 1.0
C      1  0.5741690000000  0.5569790000000  0.4494320000000 1.0
C      1  0.4707840000000  0.5541580000000  0.5088430000000 1.0
C      1  0.4347960000000  0.5667860000000  0.5730280000000 1.0
C      1  0.4280360000000  0.4361940000000  0.4869170000000 1.0
C      1  0.4637720000000  0.4390840000000  0.4576880000000 1.0
C      1  0.6108230000000  0.5212640000000  0.5166280000000 1.0
C      1  0.4401440000000  0.4727680000000  0.5886720000000 1.0
C      1  0.4403090000000  0.5808900000000  0.5249200000000 1.0
C      1  0.4251460000000  0.5688530000000  0.5041400000000 1.0
C      1  0.5504670000000  0.4780430000000  0.5998490000000 1.0
C      1  0.4032950000000  0.4476250000000  0.4746310000000 1.0
C      1  0.5356980000000  0.4061080000000  0.4735460000000 1.0
C      1  0.4932330000000  0.5138340000000  0.5168340000000 1.0
C      1  0.4937590000000  0.5614070000000  0.4661630000000 1.0
C      1  0.5329950000000  0.5078620000000  0.3946280000000 1.0
C      1  0.4921250000000  0.4102400000000  0.4908470000000 1.0
C      1  0.5607060000000  0.5490300000000  0.5861860000000 1.0
C      1  0.4823970000000  0.5083810000000  0.5994020000000 1.0
C      1  0.4734990000000  0.4220610000000  0.4133200000000 1.0
C      1  0.5629060000000  0.4751590000000  0.4183270000000 1.0
C      1  0.5111500000000  0.4186600000000  0.5601160000000 1.0
C      1  0.4369200000000  0.4472430000000  0.5740440000000 1.0
C      1  0.4401080000000  0.5594190000000  0.4748290000000 1.0
C      1  0.4445560000000  0.5134320000000  0.5000490000000 1.0
C      1  0.4310620000000  0.4804820000000  0.5385870000000 1.0
C      1  0.4270930000000  0.4258100000000  0.4375260000000 1.0
C      1  0.5890180000000  0.5224010000000  0.4261750000000 1.0
C      1  0.5376400000000  0.4806540000000  0.4028010000000 1.0
C      1  0.3996840000000  0.5547460000000  0.5101280000000 1.0
C      1  0.5522570000000  0.3862960000000  0.5142750000000 1.0
C      1  0.4320450000000  0.4621880000000  0.4992520000000 1.0
C      1  0.4183460000000  0.4795800000000  0.4414660000000 1.0
C      1  0.4889430000000  0.4505890000000  0.5867160000000 1.0
C      1  0.4400680000000  0.5656800000000  0.4451220000000 1.0
C      1  0.5248460000000  0.3855770000000  0.5213080000000 1.0
C      1  0.4456450000000  0.4891220000000  0.4599560000000 1.0
C      1  0.5615030000000  0.4859370000000  0.5369910000000 1.0
C      1  0.5538630000000  0.4920410000000  0.4707740000000 1.0
C      1  0.4459560000000  0.5252910000000  0.5278100000000 1.0
C      1  0.4977150000000  0.5991460000000  0.5124630000000 1.0
C      1  0.4359470000000  0.5441230000000  0.4256960000000 1.0
C      1  0.5205930000000  0.4945090000000  0.5377440000000 1.0
C      1  0.5608400000000  0.4528700000000  0.4385030000000 1.0
C      1  0.5314750000000  0.4515970000000  0.5268070000000 1.0
C      1  0.5363500000000  0.4512740000000  0.5946760000000 1.0
C      1  0.5099770000000  0.5753390000000  0.5833360000000 1.0
C      1  0.6046240000000  0.5068810000000  0.4747290000000 1.0
C      1  0.5243570000000  0.5899440000000  0.5124730000000 1.0
C      1  0.4126590000000  0.5546130000000  0.5704310000000 1.0
C      1  0.5864700000000  0.5251460000000  0.5342820000000 1.0
C      1  0.4539890000000  0.4661030000000  0.4094610000000 1.0
C      1  0.5417820000000  0.5332920000000  0.5517270000000 1.0
C      1  0.5295780000000  0.4877720000000  0.4864350000000 1.0
C      1  0.5455480000000  0.5937620000000  0.4628780000000 1.0
C      1  0.4375890000000  0.4261370000000  0.5279160000000 1.0
C      1  0.4825840000000  0.5357620000000  0.5938790000000 1.0
C      1  0.4983950000000  0.5913310000000  0.4681880000000 1.0
C      1  0.5022120000000  0.4353700000000  0.4095220000000 1.0
C      1  0.5411090000000  0.5033560000000  0.5569700000000 1.0
C      1  0.5572990000000  0.4260680000000  0.4705430000000 1.0
C      1  0.5125240000000  0.5304130000000  0.5037840000000 1.0
C      1  0.4836360000000  0.4697670000000  0.3933450000000 1.0
C      1  0.4759630000000  0.4486700000000  0.4911550000000 1.0
C      1  0.4668470000000  0.4000820000000  0.5022720000000 1.0
C      1  0.4365190000000  0.4877440000000  0.4874300000000 1.0
C      1  0.5656550000000  0.5403710000000  0.4242560000000 1.0
C      1  0.4564080000000  0.4108940000000  0.5455200000000 1.0
C      1  0.4890910000000  0.4602470000000  0.5584850000000 1.0
C      1  0.5302870000000  0.5791960000000  0.5389570000000 1.0
C      1  0.4050210000000  0.4719220000000  0.5390490000000 1.0
C      1  0.4938480000000  0.5369300000000  0.5486080000000 1.0
C      1  0.5120460000000  0.4603200000000  0.4005870000000 1.0
C      1  0.4004260000000  0.4930740000000  0.4633870000000 1.0
C      1  0.5105830000000  0.4632960000000  0.6028250000000 1.0
C      1  0.4845550000000  0.5126410000000  0.4725060000000 1.0
C      1  0.4732350000000  0.6033360000000  0.4627320000000 1.0
C      1  0.5748250000000  0.4946380000000  0.5967790000000 1.0
C      1  0.5053820000000  0.4915020000000  0.4642470000000 1.0
C      1  0.5636970000000  0.4385320000000  0.5607680000000 1.0
C      1  0.5668980000000  0.5496240000000  0.5547360000000 1.0
C      1  0.4596400000000  0.5297360000000  0.4249310000000 1.0
C      1  0.5554280000000  0.4625520000000  0.5189400000000 1.0
C      1  0.5988850000000  0.4669020000000  0.4713480000000 1.0
C      1  0.4750270000000  0.5004100000000  0.4995460000000 1.0
C      1  0.5960080000000  0.5678920000000  0.5050750000000 1.0
C      1  0.5197380000000  0.5480190000000  0.5458570000000 1.0
C      1  0.5458270000000  0.5836070000000  0.4945820000000 1.0
C      1  0.4408020000000  0.4135850000000  0.5010100000000 1.0
C      1  0.5484830000000  0.5538330000000  0.4915440000000 1.0
C      1  0.5427630000000  0.5292590000000  0.4383850000000 1.0
C      1  0.5698110000000  0.5235250000000  0.5976120000000 1.0
C      1  0.4068320000000  0.5214820000000  0.4681180000000 1.0
C      1  0.4174670000000  0.4923140000000  0.5901020000000 1.0
C      1  0.3903790000000  0.5333220000000  0.5309000000000 1.0
C      1  0.3899260000000  0.5066980000000  0.5221270000000 1.0
C      1  0.4370010000000  0.5301110000000  0.4733510000000 1.0
C      1  0.6014310000000  0.5416550000000  0.4448340000000 1.0
C      1  0.5502670000000  0.5763420000000  0.4395080000000 1.0
C      1  0.5609720000000  0.5742190000000  0.5400650000000 1.0
C      1  0.4581250000000  0.5165720000000  0.4557450000000 1.0
C      1  0.5054540000000  0.3982720000000  0.5386320000000 1.0
C      1  0.4356060000000  0.5063410000000  0.5466780000000 1.0
C      1  0.4878800000000  0.5964040000000  0.5404410000000 1.0
C      1  0.5169510000000  0.5424690000000  0.4404420000000 1.0
C      1  0.5346450000000  0.3861280000000  0.4939950000000 1.0
END
