TITL C-4164235-1454-449 -0.948472221975978 125000 -4480.16958917191 0 0 32 (C1) n - 1
REM
REM in /home/nfs/bkarasulu/CARBON/AIRSS/Generating-Clusters/ReaxFF-fromJPCA2015/Units_Real/with-SteepDescent/Only-C1/SD-CG/Try1-3A/FIRE-CG
REM
REM
REM
REM
REM
REM ./C.cell (11c1c37f851c82e70ff6c80c92926a4b)
REM
REM compiler GCC version 9.2.1 20190827 (Red Hat 9.2.1-1)
REM options -cpp -mtune=generic -march=x86-64 -g -O0 -fpre-include=/usr/include/finclude/math-vector-fortran.h
REM seed -462882435 1520791608 -669888046 708524846 805509462 -901769682 -1988624010 -181230401 -1886542692 -272715573 -106890398 1117115748 -1409342882 809721479 -1346198936 -2135160201 -223611400 -1690407702 1031600252 1075463524 -275100885 703000093 119051321 -436550976 -1870865291 1710362337 658738311 1817215341 1928781665 -1789940391 -297251811 -1837638980 -1524600524
REM
CELL 1.54180   50.00000   50.00000   50.00000   90.00000   90.00000   90.00000
LATT -1
SFAC C  
C      1  0.4531040000000  0.4604950000000  0.4959900000000 1.0
C      1  0.5400940000000  0.5533440000000  0.5209690000000 1.0
C      1  0.5043210000000  0.4678220000000  0.5388910000000 1.0
C      1  0.4485770000000  0.5499580000000  0.4507080000000 1.0
C      1  0.5525090000000  0.5485980000000  0.5449470000000 1.0
C      1  0.4968850000000  0.5207170000000  0.5086170000000 1.0
C      1  0.4604470000000  0.5150650000000  0.4879870000000 1.0
C      1  0.5213440000000  0.5420820000000  0.5005850000000 1.0
C      1  0.4630870000000  0.4959950000000  0.5309040000000 1.0
C      1  0.5311040000000  0.4338910000000  0.4942250000000 1.0
C      1  0.5477780000000  0.5007590000000  0.4975770000000 1.0
C      1  0.4774200000000  0.4544760000000  0.5086590000000 1.0
C      1  0.5296130000000  0.5635850000000  0.4832430000000 1.0
C      1  0.5006410000000  0.5049770000000  0.4477710000000 1.0
C      1  0.5360220000000  0.5191720000000  0.5445810000000 1.0
C      1  0.4934340000000  0.4714350000000  0.4898130000000 1.0
C      1  0.5285600000000  0.5058500000000  0.4602490000000 1.0
C      1  0.4766050000000  0.4699020000000  0.5354260000000 1.0
C      1  0.5325050000000  0.4706830000000  0.5363560000000 1.0
C      1  0.5391630000000  0.5235250000000  0.4812110000000 1.0
C      1  0.4726810000000  0.4989040000000  0.4484360000000 1.0
C      1  0.5076930000000  0.5199760000000  0.5520760000000 1.0
C      1  0.4467540000000  0.4898040000000  0.4569010000000 1.0
C      1  0.4449830000000  0.4995660000000  0.5079900000000 1.0
C      1  0.5383680000000  0.4823870000000  0.4755840000000 1.0
C      1  0.4879630000000  0.5022140000000  0.4882760000000 1.0
C      1  0.5433910000000  0.4972440000000  0.5264960000000 1.0
C      1  0.4836360000000  0.5174130000000  0.5336450000000 1.0
C      1  0.4369410000000  0.4807630000000  0.4858540000000 1.0
C      1  0.5343610000000  0.4476630000000  0.5188940000000 1.0
C      1  0.4509180000000  0.5305090000000  0.4651810000000 1.0
C      1  0.5190960000000  0.4612250000000  0.4819590000000 1.0
END
