TITL C-4164232-771-141 0.0301007467657064 125000 -2545.64991756292 0 0 19 (C1) n - 1
REM
REM in /home/nfs/bkarasulu/CARBON/AIRSS/Generating-Clusters/ReaxFF-fromJPCA2015/Units_Real/with-SteepDescent/Only-C1/SD-CG/Try1-3A/FIRE-CG
REM
REM
REM
REM
REM
REM ./C.cell (11c1c37f851c82e70ff6c80c92926a4b)
REM
REM compiler GCC version 9.2.1 20190827 (Red Hat 9.2.1-1)
REM options -cpp -mtune=generic -march=x86-64 -g -O0 -fpre-include=/usr/include/finclude/math-vector-fortran.h
REM seed 762883427 -1152031844 -1007480173 254573778 -319092651 -2027778959 1460609044 332276219 -518403603 1447164575 -1568701505 606745260 2133339225 -704063287 -393569886 -58572944 -1600757848 -1866308944 -1681528346 871106257 -524777133 -21316533 -315203142 792009333 312677265 -1989518005 -768696127 -348454424 -933106526 1830373052 982356902 770553786 -1557096763
REM
CELL 1.54180   50.00000   50.00000   50.00000   90.00000   90.00000   90.00000
LATT -1
SFAC C  
C      1  0.4829270000000  0.5182590000000  0.5434290000000 1.0
C      1  0.4939370000000  0.4704000000000  0.5199850000000 1.0
C      1  0.5340610000000  0.4988350000000  0.4621670000000 1.0
C      1  0.4871530000000  0.5148580000000  0.4691720000000 1.0
C      1  0.5008200000000  0.5432430000000  0.4730430000000 1.0
C      1  0.4654540000000  0.5208520000000  0.5167490000000 1.0
C      1  0.5038870000000  0.4933960000000  0.4597520000000 1.0
C      1  0.5058090000000  0.4483850000000  0.4873230000000 1.0
C      1  0.5448950000000  0.5059240000000  0.4880550000000 1.0
C      1  0.4932260000000  0.4685380000000  0.4718650000000 1.0
C      1  0.5058980000000  0.5091140000000  0.5564970000000 1.0
C      1  0.4695170000000  0.5052120000000  0.4898050000000 1.0
C      1  0.5118830000000  0.4918260000000  0.5292980000000 1.0
C      1  0.4419130000000  0.5276470000000  0.5105660000000 1.0
C      1  0.5196420000000  0.5013290000000  0.5053640000000 1.0
C      1  0.4778960000000  0.4774840000000  0.4957740000000 1.0
C      1  0.5074540000000  0.4423240000000  0.5155530000000 1.0
C      1  0.5204010000000  0.5397350000000  0.4933960000000 1.0
C      1  0.5332270000000  0.5226380000000  0.5122060000000 1.0
END
