TITL C-4164232-771-8 10.9536427499995 125000 -26265.4832052343 0 0 175 (C1) n - 1
REM
REM in /home/nfs/bkarasulu/CARBON/AIRSS/Generating-Clusters/ReaxFF-fromJPCA2015/Units_Real/with-SteepDescent/Only-C1/SD-CG/Try1-3A/FIRE-CG
REM
REM
REM
REM
REM
REM ./C.cell (11c1c37f851c82e70ff6c80c92926a4b)
REM
REM compiler GCC version 9.2.1 20190827 (Red Hat 9.2.1-1)
REM options -cpp -mtune=generic -march=x86-64 -g -O0 -fpre-include=/usr/include/finclude/math-vector-fortran.h
REM seed 1816894542 1192028313 -466337322 -1161227560 -221906230 1936710486 -557097614 10378577 1425559309 -102048101 60236296 -1815725134 -1862626102 -956738725 -995471571 -481777001 -1009992995 1605386766 1119147012 1395238001 -1586063220 -828522687 786071274 -1145405162 366350387 1345074612 -1004899982 1479680787 -291548680 -503616462 -1593467278 -1895570719 -236244164
REM
CELL 1.54180   50.00000   50.00000   50.00000   90.00000   90.00000   90.00000
LATT -1
SFAC C  
C      1  0.4474830000000  0.5473580000000  0.5108990000000 1.0
C      1  0.5306030000000  0.4701210000000  0.5487950000000 1.0
C      1  0.4960860000000  0.5124800000000  0.5465830000000 1.0
C      1  0.4129150000000  0.4333550000000  0.4849980000000 1.0
C      1  0.4639580000000  0.5860250000000  0.4476100000000 1.0
C      1  0.5744470000000  0.5465280000000  0.5738660000000 1.0
C      1  0.5436900000000  0.5106300000000  0.5644760000000 1.0
C      1  0.5455300000000  0.5125900000000  0.4509630000000 1.0
C      1  0.6000540000000  0.5009560000000  0.5456660000000 1.0
C      1  0.3843210000000  0.5059290000000  0.5049890000000 1.0
C      1  0.5563500000000  0.4052440000000  0.5309360000000 1.0
C      1  0.5057300000000  0.5120000000000  0.4715200000000 1.0
C      1  0.5219890000000  0.5171520000000  0.6006510000000 1.0
C      1  0.5654610000000  0.5128450000000  0.4290040000000 1.0
C      1  0.4852220000000  0.4186350000000  0.4349810000000 1.0
C      1  0.5422440000000  0.5698740000000  0.4212960000000 1.0
C      1  0.4875090000000  0.4366210000000  0.5437370000000 1.0
C      1  0.5401150000000  0.4263350000000  0.5747430000000 1.0
C      1  0.4119250000000  0.5057430000000  0.4328130000000 1.0
C      1  0.3928050000000  0.5214710000000  0.5290420000000 1.0
C      1  0.4445430000000  0.5731300000000  0.5414120000000 1.0
C      1  0.4857140000000  0.4671820000000  0.4028500000000 1.0
C      1  0.4402960000000  0.4272590000000  0.5290400000000 1.0
C      1  0.5222420000000  0.5427080000000  0.5893810000000 1.0
C      1  0.4597160000000  0.4569000000000  0.4097510000000 1.0
C      1  0.4472870000000  0.4419850000000  0.5541280000000 1.0
C      1  0.5466080000000  0.5183820000000  0.4051940000000 1.0
C      1  0.6001590000000  0.4866460000000  0.4480830000000 1.0
C      1  0.4932490000000  0.5757160000000  0.4067990000000 1.0
C      1  0.4714040000000  0.4948840000000  0.5987500000000 1.0
C      1  0.5990290000000  0.5327390000000  0.5035960000000 1.0
C      1  0.4921050000000  0.5478500000000  0.4546540000000 1.0
C      1  0.4351310000000  0.4674670000000  0.4836090000000 1.0
C      1  0.4968860000000  0.5036900000000  0.4967770000000 1.0
C      1  0.4972670000000  0.4578130000000  0.4290380000000 1.0
C      1  0.4621460000000  0.4322840000000  0.4660330000000 1.0
C      1  0.4927110000000  0.5012980000000  0.4489190000000 1.0
C      1  0.5537580000000  0.4623260000000  0.5069240000000 1.0
C      1  0.4481600000000  0.5212710000000  0.5762220000000 1.0
C      1  0.5905270000000  0.5260610000000  0.5580460000000 1.0
C      1  0.5140810000000  0.5920790000000  0.5702550000000 1.0
C      1  0.5389100000000  0.4779660000000  0.4884620000000 1.0
C      1  0.4797470000000  0.5494510000000  0.4049190000000 1.0
C      1  0.5650350000000  0.5666530000000  0.4700040000000 1.0
C      1  0.4953060000000  0.6012280000000  0.4735950000000 1.0
C      1  0.5300720000000  0.4896430000000  0.6037150000000 1.0
C      1  0.4797260000000  0.5684940000000  0.5741640000000 1.0
C      1  0.4863380000000  0.5604490000000  0.5257280000000 1.0
C      1  0.5434470000000  0.5897710000000  0.5050120000000 1.0
C      1  0.4022530000000  0.4906480000000  0.5669350000000 1.0
C      1  0.4958480000000  0.5389650000000  0.4270150000000 1.0
C      1  0.5128470000000  0.4649050000000  0.6013080000000 1.0
C      1  0.5106580000000  0.3928220000000  0.5121140000000 1.0
C      1  0.5190370000000  0.5584260000000  0.4668880000000 1.0
C      1  0.4867260000000  0.5966980000000  0.5668400000000 1.0
C      1  0.5533340000000  0.5399740000000  0.4853520000000 1.0
C      1  0.5574280000000  0.4698110000000  0.5657140000000 1.0
C      1  0.5410490000000  0.5465820000000  0.4023600000000 1.0
C      1  0.5360500000000  0.4076010000000  0.5520880000000 1.0
C      1  0.3924010000000  0.4893430000000  0.4831480000000 1.0
C      1  0.4792520000000  0.4607480000000  0.4529990000000 1.0
C      1  0.5208500000000  0.4909040000000  0.5054520000000 1.0
C      1  0.4167970000000  0.4369550000000  0.5140540000000 1.0
C      1  0.4988330000000  0.4619610000000  0.4753070000000 1.0
C      1  0.4735010000000  0.5228790000000  0.5899830000000 1.0
C      1  0.5008060000000  0.5887080000000  0.5249200000000 1.0
C      1  0.5688550000000  0.4236020000000  0.4752920000000 1.0
C      1  0.6076820000000  0.5157670000000  0.4522370000000 1.0
C      1  0.4104330000000  0.5327100000000  0.4375050000000 1.0
C      1  0.4718390000000  0.5369440000000  0.4727930000000 1.0
C      1  0.6014340000000  0.4568130000000  0.4899500000000 1.0
C      1  0.4184210000000  0.4798440000000  0.4264700000000 1.0
C      1  0.5376450000000  0.5764840000000  0.4498460000000 1.0
C      1  0.5826520000000  0.4422670000000  0.5492250000000 1.0
C      1  0.4552760000000  0.4691390000000  0.5572900000000 1.0
C      1  0.4600030000000  0.4319560000000  0.4244680000000 1.0
C      1  0.5747750000000  0.4778060000000  0.5206980000000 1.0
C      1  0.4822810000000  0.4101230000000  0.4646280000000 1.0
C      1  0.4840690000000  0.4686030000000  0.6019500000000 1.0
C      1  0.4809920000000  0.4644190000000  0.5469710000000 1.0
C      1  0.4137130000000  0.4638690000000  0.5257550000000 1.0
C      1  0.4041040000000  0.5154830000000  0.5543940000000 1.0
C      1  0.4196470000000  0.5506320000000  0.5052790000000 1.0
C      1  0.5179680000000  0.4381090000000  0.5906780000000 1.0
C      1  0.4692480000000  0.5569490000000  0.4949070000000 1.0
C      1  0.4414100000000  0.5054240000000  0.4971570000000 1.0
C      1  0.4787110000000  0.4779890000000  0.5223880000000 1.0
C      1  0.5887180000000  0.5530940000000  0.4574810000000 1.0
C      1  0.5539780000000  0.4673450000000  0.4475530000000 1.0
C      1  0.4326700000000  0.4233210000000  0.4653530000000 1.0
C      1  0.3863630000000  0.5165840000000  0.4764120000000 1.0
C      1  0.5217670000000  0.5697030000000  0.4009970000000 1.0
C      1  0.4463800000000  0.5989580000000  0.4987520000000 1.0
C      1  0.4581090000000  0.5060960000000  0.4028020000000 1.0
C      1  0.5411010000000  0.3913820000000  0.5091490000000 1.0
C      1  0.5856640000000  0.4420780000000  0.4416830000000 1.0
C      1  0.6007430000000  0.4598200000000  0.4600670000000 1.0
C      1  0.6090440000000  0.5055080000000  0.5191410000000 1.0
C      1  0.4095600000000  0.4610770000000  0.4720610000000 1.0
C      1  0.5440260000000  0.4878660000000  0.4626980000000 1.0
C      1  0.5383340000000  0.5832600000000  0.5598810000000 1.0
C      1  0.4059490000000  0.4653050000000  0.5541560000000 1.0
C      1  0.4044570000000  0.5468780000000  0.5286380000000 1.0
C      1  0.6037090000000  0.4788400000000  0.5093970000000 1.0
C      1  0.4619140000000  0.4276720000000  0.5105420000000 1.0
C      1  0.5331520000000  0.4533070000000  0.5251410000000 1.0
C      1  0.4525500000000  0.5968850000000  0.5275330000000 1.0
C      1  0.4427500000000  0.4388950000000  0.5829410000000 1.0
C      1  0.5400100000000  0.5507550000000  0.5093670000000 1.0
C      1  0.4895780000000  0.4288520000000  0.5166540000000 1.0
C      1  0.5030730000000  0.5382410000000  0.5368890000000 1.0
C      1  0.4781270000000  0.5072770000000  0.5229540000000 1.0
C      1  0.4182420000000  0.4555420000000  0.5801780000000 1.0
C      1  0.5249310000000  0.5321070000000  0.5213140000000 1.0
C      1  0.4524680000000  0.5211420000000  0.5184700000000 1.0
C      1  0.5105330000000  0.4321280000000  0.4281760000000 1.0
C      1  0.5233250000000  0.5713100000000  0.4954400000000 1.0
C      1  0.5757580000000  0.4823990000000  0.4340800000000 1.0
C      1  0.5298830000000  0.5920180000000  0.5312740000000 1.0
C      1  0.4932000000000  0.5459160000000  0.5882270000000 1.0
C      1  0.4214420000000  0.5576450000000  0.5494920000000 1.0
C      1  0.5024550000000  0.5087850000000  0.4205850000000 1.0
C      1  0.5473030000000  0.4424470000000  0.4625810000000 1.0
C      1  0.5861550000000  0.4333670000000  0.4984980000000 1.0
C      1  0.4479210000000  0.5674070000000  0.4362330000000 1.0
C      1  0.5735110000000  0.5209320000000  0.4942780000000 1.0
C      1  0.4679530000000  0.5867200000000  0.4799160000000 1.0
C      1  0.5360280000000  0.5080970000000  0.5187280000000 1.0
C      1  0.5333100000000  0.4685880000000  0.4089730000000 1.0
C      1  0.5155650000000  0.4380920000000  0.5060580000000 1.0
C      1  0.4330820000000  0.4325870000000  0.4379020000000 1.0
C      1  0.4700680000000  0.4432330000000  0.5948050000000 1.0
C      1  0.4475930000000  0.4895790000000  0.5796520000000 1.0
C      1  0.4572820000000  0.5110660000000  0.4725790000000 1.0
C      1  0.4248440000000  0.5335850000000  0.5650210000000 1.0
C      1  0.4803060000000  0.4658410000000  0.4972630000000 1.0
C      1  0.5624700000000  0.5524970000000  0.5340060000000 1.0
C      1  0.4269710000000  0.4814660000000  0.5065760000000 1.0
C      1  0.5641890000000  0.4413480000000  0.5710910000000 1.0
C      1  0.5365110000000  0.4412150000000  0.4146810000000 1.0
C      1  0.4255690000000  0.5854090000000  0.4849030000000 1.0
C      1  0.4083230000000  0.5630840000000  0.4807810000000 1.0
C      1  0.4650130000000  0.4910420000000  0.4513630000000 1.0
C      1  0.4892500000000  0.5901620000000  0.4324960000000 1.0
C      1  0.5528660000000  0.4934170000000  0.5857600000000 1.0
C      1  0.4964440000000  0.3996740000000  0.4877860000000 1.0
C      1  0.5101200000000  0.3993490000000  0.5418590000000 1.0
C      1  0.4155520000000  0.4553580000000  0.4428860000000 1.0
C      1  0.5121370000000  0.5959230000000  0.4505680000000 1.0
C      1  0.5630020000000  0.5066470000000  0.5175370000000 1.0
C      1  0.5636030000000  0.4348480000000  0.4252520000000 1.0
C      1  0.6068440000000  0.5361100000000  0.4742930000000 1.0
C      1  0.4906930000000  0.4129560000000  0.5594190000000 1.0
C      1  0.5279590000000  0.4958500000000  0.4043430000000 1.0
C      1  0.4679700000000  0.5610960000000  0.5486570000000 1.0
C      1  0.4488300000000  0.4836390000000  0.4207520000000 1.0
C      1  0.4538200000000  0.5350620000000  0.4053770000000 1.0
C      1  0.5776140000000  0.4255460000000  0.5258860000000 1.0
C      1  0.5827050000000  0.5594090000000  0.5151370000000 1.0
C      1  0.4192200000000  0.4831890000000  0.5885960000000 1.0
C      1  0.5697760000000  0.5785430000000  0.4970940000000 1.0
C      1  0.4917580000000  0.4256530000000  0.5864740000000 1.0
C      1  0.4342290000000  0.5482010000000  0.4234750000000 1.0
C      1  0.5465900000000  0.5567890000000  0.5721900000000 1.0
C      1  0.4852810000000  0.4962000000000  0.3986070000000 1.0
C      1  0.5316910000000  0.5302240000000  0.4678310000000 1.0
C      1  0.5641520000000  0.5230220000000  0.5431860000000 1.0
C      1  0.5216720000000  0.4428570000000  0.4775990000000 1.0
C      1  0.5195480000000  0.4964720000000  0.5540020000000 1.0
C      1  0.4578180000000  0.4488180000000  0.4897360000000 1.0
C      1  0.5828060000000  0.4723450000000  0.5489220000000 1.0
C      1  0.5894290000000  0.5322690000000  0.4368620000000 1.0
C      1  0.5547730000000  0.4043200000000  0.4891220000000 1.0
C      1  0.4000220000000  0.5395850000000  0.4638010000000 1.0
C      1  0.4790270000000  0.6027900000000  0.5381350000000 1.0
END
