TITL C-4164233-775-729 28.333210377727 125000 -29085.4382167988 0 0 193 (C1) n - 1
REM
REM in /home/nfs/bkarasulu/CARBON/AIRSS/Generating-Clusters/ReaxFF-fromJPCA2015/Units_Real/with-SteepDescent/Only-C1/SD-CG/Try1-3A/FIRE-CG
REM
REM
REM
REM
REM
REM ./C.cell (11c1c37f851c82e70ff6c80c92926a4b)
REM
REM compiler GCC version 9.2.1 20190827 (Red Hat 9.2.1-1)
REM options -cpp -mtune=generic -march=x86-64 -g -O0 -fpre-include=/usr/include/finclude/math-vector-fortran.h
REM seed 1795294969 601974081 137141119 1416084489 1678588307 -516825694 -1174058020 -1720790541 327435209 1984341475 -933125192 784933641 2070040457 1966930558 767730759 -1033655252 -451499145 -946248072 -479360337 -314990326 -1596090696 453111629 -359227653 -868587988 -933217515 78158925 -597479020 -157392340 -1088027597 1713731107 1047928490 2130773563 -1815470523
REM
CELL 1.54180   50.00000   50.00000   50.00000   90.00000   90.00000   90.00000
LATT -1
SFAC C  
C      1  0.4097680000000  0.4295980000000  0.5472510000000 1.0
C      1  0.4118180000000  0.4547570000000  0.5086550000000 1.0
C      1  0.5001110000000  0.5942380000000  0.5003150000000 1.0
C      1  0.4488070000000  0.5717090000000  0.4572180000000 1.0
C      1  0.3892860000000  0.4779510000000  0.5353820000000 1.0
C      1  0.5250830000000  0.5616770000000  0.5291510000000 1.0
C      1  0.4641820000000  0.5469100000000  0.4031680000000 1.0
C      1  0.4364640000000  0.5002690000000  0.5648630000000 1.0
C      1  0.5131440000000  0.5972480000000  0.4491420000000 1.0
C      1  0.5040720000000  0.5303370000000  0.3762700000000 1.0
C      1  0.5341220000000  0.4150340000000  0.4464360000000 1.0
C      1  0.4428070000000  0.4459670000000  0.4266700000000 1.0
C      1  0.4349290000000  0.4960350000000  0.4446720000000 1.0
C      1  0.4795640000000  0.4552550000000  0.5478550000000 1.0
C      1  0.4494390000000  0.5194360000000  0.4988950000000 1.0
C      1  0.5933960000000  0.5260560000000  0.4670050000000 1.0
C      1  0.5623110000000  0.5485270000000  0.5878380000000 1.0
C      1  0.4936910000000  0.4447900000000  0.4749730000000 1.0
C      1  0.4570740000000  0.4460290000000  0.4953080000000 1.0
C      1  0.5676730000000  0.4385380000000  0.5229640000000 1.0
C      1  0.5188600000000  0.4714950000000  0.5891810000000 1.0
C      1  0.5899150000000  0.5192900000000  0.4388150000000 1.0
C      1  0.5540790000000  0.5184880000000  0.4025280000000 1.0
C      1  0.5145070000000  0.4571640000000  0.3858550000000 1.0
C      1  0.4653090000000  0.5298340000000  0.5898810000000 1.0
C      1  0.4419340000000  0.4852840000000  0.5406430000000 1.0
C      1  0.5271760000000  0.6082380000000  0.5065650000000 1.0
C      1  0.5866270000000  0.4393360000000  0.5638980000000 1.0
C      1  0.5576360000000  0.5687290000000  0.4623940000000 1.0
C      1  0.5797120000000  0.4767980000000  0.4891200000000 1.0
C      1  0.4118480000000  0.5536950000000  0.4628640000000 1.0
C      1  0.5845310000000  0.5760850000000  0.4750010000000 1.0
C      1  0.4946200000000  0.4500870000000  0.5902990000000 1.0
C      1  0.4279620000000  0.4778420000000  0.5167920000000 1.0
C      1  0.4268700000000  0.5744070000000  0.4780360000000 1.0
C      1  0.5049400000000  0.4894190000000  0.5056190000000 1.0
C      1  0.5924120000000  0.4375600000000  0.5370720000000 1.0
C      1  0.4616240000000  0.5387250000000  0.4604330000000 1.0
C      1  0.4523470000000  0.6000590000000  0.5205720000000 1.0
C      1  0.4273100000000  0.5599450000000  0.4386310000000 1.0
C      1  0.4295560000000  0.5867870000000  0.5045880000000 1.0
C      1  0.4284340000000  0.4821520000000  0.4718400000000 1.0
C      1  0.4482610000000  0.4048140000000  0.5584840000000 1.0
C      1  0.4009700000000  0.5379430000000  0.5681720000000 1.0
C      1  0.4267460000000  0.4069470000000  0.5389090000000 1.0
C      1  0.3981660000000  0.5280970000000  0.4724860000000 1.0
C      1  0.5271820000000  0.4700000000000  0.4483620000000 1.0
C      1  0.5501130000000  0.4768450000000  0.4607310000000 1.0
C      1  0.5743090000000  0.4396180000000  0.4529570000000 1.0
C      1  0.4433030000000  0.4821680000000  0.5879940000000 1.0
C      1  0.5952890000000  0.5087560000000  0.5665700000000 1.0
C      1  0.5765130000000  0.5564070000000  0.5651750000000 1.0
C      1  0.5999160000000  0.5509520000000  0.4812000000000 1.0
C      1  0.4727100000000  0.4657570000000  0.5988330000000 1.0
C      1  0.5308760000000  0.5920870000000  0.5781980000000 1.0
C      1  0.5322720000000  0.5226350000000  0.3835330000000 1.0
C      1  0.5737390000000  0.5079440000000  0.4822800000000 1.0
C      1  0.5013400000000  0.4239810000000  0.5208010000000 1.0
C      1  0.5986920000000  0.5538690000000  0.5098010000000 1.0
C      1  0.6271200000000  0.4913230000000  0.4718090000000 1.0
C      1  0.5257430000000  0.4695710000000  0.5007550000000 1.0
C      1  0.5190260000000  0.4807970000000  0.4051950000000 1.0
C      1  0.5598050000000  0.4121820000000  0.4933820000000 1.0
C      1  0.4793020000000  0.6099290000000  0.5176560000000 1.0
C      1  0.5705060000000  0.5342310000000  0.4223670000000 1.0
C      1  0.5678650000000  0.5787060000000  0.5484530000000 1.0
C      1  0.4947590000000  0.4225610000000  0.5800280000000 1.0
C      1  0.5656040000000  0.4781470000000  0.5906360000000 1.0
C      1  0.5693040000000  0.4751790000000  0.4196560000000 1.0
C      1  0.6211230000000  0.4992840000000  0.4986830000000 1.0
C      1  0.4502450000000  0.5421700000000  0.5680150000000 1.0
C      1  0.4700460000000  0.4796250000000  0.5407310000000 1.0
C      1  0.5058480000000  0.5553740000000  0.4631890000000 1.0
C      1  0.4084130000000  0.4867070000000  0.4373720000000 1.0
C      1  0.5398060000000  0.5937660000000  0.4605070000000 1.0
C      1  0.5915210000000  0.4902250000000  0.4325730000000 1.0
C      1  0.5977920000000  0.4881530000000  0.5442210000000 1.0
C      1  0.5255650000000  0.6085720000000  0.5350670000000 1.0
C      1  0.5568660000000  0.5556240000000  0.4357050000000 1.0
C      1  0.5759840000000  0.5751590000000  0.5196240000000 1.0
C      1  0.5575700000000  0.5228510000000  0.5047010000000 1.0
C      1  0.4832050000000  0.4910790000000  0.4582130000000 1.0
C      1  0.3935570000000  0.5021780000000  0.4585580000000 1.0
C      1  0.4151920000000  0.5747830000000  0.5257440000000 1.0
C      1  0.5580700000000  0.4354800000000  0.5709930000000 1.0
C      1  0.5500510000000  0.5627450000000  0.5159500000000 1.0
C      1  0.4811460000000  0.5906420000000  0.5600850000000 1.0
C      1  0.5094890000000  0.4961610000000  0.6059500000000 1.0
C      1  0.5008470000000  0.5713600000000  0.5176960000000 1.0
C      1  0.5547190000000  0.5056630000000  0.4581540000000 1.0
C      1  0.4722800000000  0.4986070000000  0.3936210000000 1.0
C      1  0.4440300000000  0.5353960000000  0.5184120000000 1.0
C      1  0.5525220000000  0.4680070000000  0.4896230000000 1.0
C      1  0.4868730000000  0.4624460000000  0.4532570000000 1.0
C      1  0.5043180000000  0.4466370000000  0.5370450000000 1.0
C      1  0.3970870000000  0.4829510000000  0.5633790000000 1.0
C      1  0.4536950000000  0.5913250000000  0.5483100000000 1.0
C      1  0.5479950000000  0.5481070000000  0.4922470000000 1.0
C      1  0.5943500000000  0.5352010000000  0.5559560000000 1.0
C      1  0.4823600000000  0.4169400000000  0.4381970000000 1.0
C      1  0.4933550000000  0.5056820000000  0.4824540000000 1.0
C      1  0.5150310000000  0.5860430000000  0.5940780000000 1.0
C      1  0.4424450000000  0.4913660000000  0.4959670000000 1.0
C      1  0.5161050000000  0.4097210000000  0.5627970000000 1.0
C      1  0.3927850000000  0.5236250000000  0.5011540000000 1.0
C      1  0.4774650000000  0.3962290000000  0.4878370000000 1.0
C      1  0.3973600000000  0.5327960000000  0.5413290000000 1.0
C      1  0.5211200000000  0.5490110000000  0.3862700000000 1.0
C      1  0.6078740000000  0.4769170000000  0.4524310000000 1.0
C      1  0.5818830000000  0.5014880000000  0.5915670000000 1.0
C      1  0.5086710000000  0.4659140000000  0.4335060000000 1.0
C      1  0.4960660000000  0.6081540000000  0.5414140000000 1.0
C      1  0.5052670000000  0.3985010000000  0.4810780000000 1.0
C      1  0.4270390000000  0.5784170000000  0.5522020000000 1.0
C      1  0.5416630000000  0.4186310000000  0.5547170000000 1.0
C      1  0.4598760000000  0.3841250000000  0.5087070000000 1.0
C      1  0.5518140000000  0.5113060000000  0.5297440000000 1.0
C      1  0.4600180000000  0.5363660000000  0.5412230000000 1.0
C      1  0.5484710000000  0.6050030000000  0.4868230000000 1.0
C      1  0.4167880000000  0.4582670000000  0.4362090000000 1.0
C      1  0.3907170000000  0.4954650000000  0.5089240000000 1.0
C      1  0.4726380000000  0.5891220000000  0.4538010000000 1.0
C      1  0.4881170000000  0.5253350000000  0.5357840000000 1.0
C      1  0.4638500000000  0.4729270000000  0.4880000000000 1.0
C      1  0.4068830000000  0.4359570000000  0.4857700000000 1.0
C      1  0.4406940000000  0.5410440000000  0.4199180000000 1.0
C      1  0.5205360000000  0.4180180000000  0.5008630000000 1.0
C      1  0.4700450000000  0.4106920000000  0.5716170000000 1.0
C      1  0.5188920000000  0.5412790000000  0.4865390000000 1.0
C      1  0.5145550000000  0.5563980000000  0.4116260000000 1.0
C      1  0.4337220000000  0.3987550000000  0.5116310000000 1.0
C      1  0.4301130000000  0.4146930000000  0.4586950000000 1.0
C      1  0.4548570000000  0.4446750000000  0.5542220000000 1.0
C      1  0.5022730000000  0.3981990000000  0.5384290000000 1.0
C      1  0.4630800000000  0.4489220000000  0.4066470000000 1.0
C      1  0.4803630000000  0.3863040000000  0.5275710000000 1.0
C      1  0.5278150000000  0.5482930000000  0.4369960000000 1.0
C      1  0.5383360000000  0.4310640000000  0.4230210000000 1.0
C      1  0.5666650000000  0.5249040000000  0.6010610000000 1.0
C      1  0.4110010000000  0.5442020000000  0.5189640000000 1.0
C      1  0.4461200000000  0.5220370000000  0.4415290000000 1.0
C      1  0.6149070000000  0.5065130000000  0.5233240000000 1.0
C      1  0.4885730000000  0.4636000000000  0.3771030000000 1.0
C      1  0.5414950000000  0.5287620000000  0.5868160000000 1.0
C      1  0.6063410000000  0.5342780000000  0.5288630000000 1.0
C      1  0.4084680000000  0.5085750000000  0.5720820000000 1.0
C      1  0.5454170000000  0.5966390000000  0.5540910000000 1.0
C      1  0.5067450000000  0.4068980000000  0.4534730000000 1.0
C      1  0.6025730000000  0.4592330000000  0.5508410000000 1.0
C      1  0.3971820000000  0.4859710000000  0.4820840000000 1.0
C      1  0.4544700000000  0.4261610000000  0.4457950000000 1.0
C      1  0.5310640000000  0.5122110000000  0.5561220000000 1.0
C      1  0.5628970000000  0.4475530000000  0.4278730000000 1.0
C      1  0.5052450000000  0.5452880000000  0.5141090000000 1.0
C      1  0.5150400000000  0.4350420000000  0.4052930000000 1.0
C      1  0.4816270000000  0.4895350000000  0.6122270000000 1.0
C      1  0.5193250000000  0.5156490000000  0.4749120000000 1.0
C      1  0.5063360000000  0.5277580000000  0.5594670000000 1.0
C      1  0.5488420000000  0.4579290000000  0.5894100000000 1.0
C      1  0.5148230000000  0.5238100000000  0.6010140000000 1.0
C      1  0.5676820000000  0.4874610000000  0.5338630000000 1.0
C      1  0.5490590000000  0.4906410000000  0.4056530000000 1.0
C      1  0.4760540000000  0.5271760000000  0.3851850000000 1.0
C      1  0.5534920000000  0.4627620000000  0.5308960000000 1.0
C      1  0.4697630000000  0.5282730000000  0.4867400000000 1.0
C      1  0.5743930000000  0.5940790000000  0.4946630000000 1.0
C      1  0.4903950000000  0.5901880000000  0.4315120000000 1.0
C      1  0.4104690000000  0.4367970000000  0.4560600000000 1.0
C      1  0.5262660000000  0.4633820000000  0.5420280000000 1.0
C      1  0.5230380000000  0.4842300000000  0.5620550000000 1.0
C      1  0.4632590000000  0.4708160000000  0.3857480000000 1.0
C      1  0.4580730000000  0.5048830000000  0.6024860000000 1.0
C      1  0.4791550000000  0.4272170000000  0.4945620000000 1.0
C      1  0.4894480000000  0.5103730000000  0.4379590000000 1.0
C      1  0.4166870000000  0.4675470000000  0.5799000000000 1.0
C      1  0.4935440000000  0.5739770000000  0.5809200000000 1.0
C      1  0.4871970000000  0.4312850000000  0.4142230000000 1.0
C      1  0.5187390000000  0.4449150000000  0.4877610000000 1.0
C      1  0.3942620000000  0.4492170000000  0.5314950000000 1.0
C      1  0.4277760000000  0.4446270000000  0.5650790000000 1.0
C      1  0.5316270000000  0.5195600000000  0.4494060000000 1.0
C      1  0.4225240000000  0.4109740000000  0.4877680000000 1.0
C      1  0.4954580000000  0.4996160000000  0.4115640000000 1.0
C      1  0.4244210000000  0.5563860000000  0.5708890000000 1.0
C      1  0.5907160000000  0.4594140000000  0.4683050000000 1.0
C      1  0.4864040000000  0.5618640000000  0.4185090000000 1.0
C      1  0.4461630000000  0.4573250000000  0.4709180000000 1.0
C      1  0.4942840000000  0.5397040000000  0.5849160000000 1.0
C      1  0.5493930000000  0.4144880000000  0.5203380000000 1.0
C      1  0.4950420000000  0.5829870000000  0.4710540000000 1.0
C      1  0.4887710000000  0.4962390000000  0.5279970000000 1.0
C      1  0.5580830000000  0.4178100000000  0.4651220000000 1.0
C      1  0.4866780000000  0.5400870000000  0.4455590000000 1.0
END
