TITL C-4164246-3563-661 -9.94203979468764 125000 -11733.0724956342 0 0 78 (C1) n - 1
REM
REM in /home/nfs/bkarasulu/CARBON/AIRSS/Generating-Clusters/ReaxFF-fromJPCA2015/Units_Real/with-SteepDescent/Only-C1/SD-CG/Try1-3A/FIRE-CG
REM
REM
REM
REM
REM
REM ./C.cell (11c1c37f851c82e70ff6c80c92926a4b)
REM
REM compiler GCC version 9.2.1 20190827 (Red Hat 9.2.1-1)
REM options -cpp -mtune=generic -march=x86-64 -g -O0 -fpre-include=/usr/include/finclude/math-vector-fortran.h
REM seed -531629916 1170867202 1847065339 98708483 -1965458405 1854321174 -1380112989 4158864 -138908160 -1939629973 -465693282 -423681301 -476806679 -2033885435 1411175712 1828382988 1781709733 1809763577 -276770621 -1446459012 1254815424 -1874756865 -1019330550 -957018105 1457581706 322914236 -2094159304 1516081408 -1372668241 2048465756 603601737 641338863 1303904100
REM
CELL 1.54180   50.00000   50.00000   50.00000   90.00000   90.00000   90.00000
LATT -1
SFAC C  
C      1  0.4336930000000  0.5023920000000  0.4598640000000 1.0
C      1  0.5422510000000  0.5097150000000  0.4209030000000 1.0
C      1  0.4482240000000  0.5322700000000  0.5042800000000 1.0
C      1  0.4533900000000  0.4806600000000  0.5691660000000 1.0
C      1  0.5147350000000  0.4972160000000  0.5067820000000 1.0
C      1  0.5171920000000  0.4505480000000  0.4425700000000 1.0
C      1  0.4632190000000  0.4412430000000  0.4959670000000 1.0
C      1  0.5304160000000  0.5088790000000  0.5715990000000 1.0
C      1  0.5561790000000  0.5512820000000  0.4676770000000 1.0
C      1  0.4290000000000  0.5116910000000  0.5357660000000 1.0
C      1  0.4806770000000  0.5875780000000  0.4783170000000 1.0
C      1  0.5777310000000  0.4930530000000  0.5586580000000 1.0
C      1  0.4699100000000  0.5466400000000  0.5472250000000 1.0
C      1  0.4679740000000  0.5042570000000  0.5713400000000 1.0
C      1  0.5304240000000  0.5587610000000  0.4547390000000 1.0
C      1  0.5732350000000  0.4648770000000  0.5113350000000 1.0
C      1  0.4737210000000  0.4189320000000  0.5372390000000 1.0
C      1  0.5033210000000  0.4938540000000  0.4632890000000 1.0
C      1  0.4833480000000  0.5267390000000  0.5651320000000 1.0
C      1  0.5096820000000  0.5243440000000  0.4681950000000 1.0
C      1  0.4548410000000  0.4533800000000  0.4494700000000 1.0
C      1  0.4860640000000  0.4663990000000  0.5361050000000 1.0
C      1  0.5722990000000  0.5116590000000  0.4903320000000 1.0
C      1  0.5126290000000  0.5627050000000  0.5336010000000 1.0
C      1  0.5264020000000  0.5905330000000  0.4994150000000 1.0
C      1  0.5683070000000  0.5328930000000  0.5108760000000 1.0
C      1  0.4510010000000  0.5550030000000  0.4615690000000 1.0
C      1  0.4229980000000  0.5149140000000  0.5069930000000 1.0
C      1  0.5060340000000  0.5946330000000  0.4892350000000 1.0
C      1  0.5691230000000  0.4832490000000  0.4885020000000 1.0
C      1  0.5402350000000  0.4442880000000  0.5438040000000 1.0
C      1  0.5047450000000  0.4611960000000  0.5789930000000 1.0
C      1  0.5566100000000  0.5158290000000  0.5587790000000 1.0
C      1  0.4413560000000  0.5284340000000  0.4585310000000 1.0
C      1  0.5254150000000  0.4474870000000  0.5640150000000 1.0
C      1  0.4723860000000  0.5134480000000  0.4923240000000 1.0
C      1  0.5027520000000  0.4392460000000  0.4653050000000 1.0
C      1  0.4508930000000  0.5604640000000  0.4911000000000 1.0
C      1  0.5539530000000  0.5033340000000  0.4467850000000 1.0
C      1  0.5221470000000  0.4835510000000  0.5812140000000 1.0
C      1  0.5396530000000  0.5603590000000  0.5373800000000 1.0
C      1  0.5224480000000  0.4987330000000  0.4035040000000 1.0
C      1  0.4316160000000  0.4856900000000  0.5484140000000 1.0
C      1  0.5565230000000  0.5349140000000  0.5376330000000 1.0
C      1  0.4270150000000  0.4368960000000  0.5281310000000 1.0
C      1  0.5510830000000  0.4791990000000  0.4648030000000 1.0
C      1  0.5493810000000  0.4337590000000  0.4714230000000 1.0
C      1  0.4854450000000  0.5650490000000  0.5298200000000 1.0
C      1  0.5757550000000  0.4760370000000  0.5354920000000 1.0
C      1  0.5007040000000  0.5208920000000  0.4956670000000 1.0
C      1  0.4447700000000  0.4194420000000  0.5448260000000 1.0
C      1  0.4805900000000  0.4857210000000  0.4244590000000 1.0
C      1  0.4740140000000  0.4952280000000  0.4713140000000 1.0
C      1  0.4714610000000  0.5758460000000  0.5037490000000 1.0
C      1  0.5562570000000  0.4418270000000  0.5213030000000 1.0
C      1  0.4938350000000  0.5046730000000  0.4073570000000 1.0
C      1  0.5457610000000  0.4519400000000  0.4505100000000 1.0
C      1  0.5471690000000  0.5767080000000  0.5132440000000 1.0
C      1  0.4465490000000  0.5354030000000  0.5351290000000 1.0
C      1  0.5021590000000  0.5488970000000  0.4536470000000 1.0
C      1  0.4780540000000  0.4643280000000  0.5641640000000 1.0
C      1  0.5167520000000  0.5214110000000  0.4149200000000 1.0
C      1  0.5066060000000  0.5113260000000  0.5534430000000 1.0
C      1  0.5401820000000  0.4317880000000  0.4974440000000 1.0
C      1  0.4780320000000  0.5658680000000  0.4577030000000 1.0
C      1  0.5650420000000  0.5229880000000  0.4643010000000 1.0
C      1  0.4223590000000  0.4941600000000  0.4869070000000 1.0
C      1  0.5614540000000  0.5567610000000  0.4963380000000 1.0
C      1  0.4204470000000  0.4689390000000  0.5013890000000 1.0
C      1  0.5217170000000  0.4782450000000  0.4851810000000 1.0
C      1  0.4342050000000  0.4425640000000  0.4998230000000 1.0
C      1  0.4192340000000  0.4655860000000  0.5312960000000 1.0
C      1  0.5164420000000  0.4486290000000  0.4895750000000 1.0
C      1  0.4806060000000  0.4423730000000  0.5196280000000 1.0
C      1  0.5031030000000  0.4902570000000  0.5324400000000 1.0
C      1  0.4728070000000  0.4393930000000  0.4678960000000 1.0
C      1  0.5049900000000  0.4768800000000  0.4364980000000 1.0
C      1  0.4572690000000  0.4837170000000  0.4462580000000 1.0
END
