TITL C-4164232-771-445 16.7971392943907 125000 -23847.8562622704 0 0 158 (C1) n - 1
REM
REM in /home/nfs/bkarasulu/CARBON/AIRSS/Generating-Clusters/ReaxFF-fromJPCA2015/Units_Real/with-SteepDescent/Only-C1/SD-CG/Try1-3A/FIRE-CG
REM
REM
REM
REM
REM
REM ./C.cell (11c1c37f851c82e70ff6c80c92926a4b)
REM
REM compiler GCC version 9.2.1 20190827 (Red Hat 9.2.1-1)
REM options -cpp -mtune=generic -march=x86-64 -g -O0 -fpre-include=/usr/include/finclude/math-vector-fortran.h
REM seed 1598126196 823794048 -1147230342 507509348 1309708567 -548015824 -1600533718 866119054 -592375194 720957589 6645660 772314580 1886219174 1150478629 -95663710 1924119238 1466980096 -1763027066 -1521580124 458499865 -17096971 2108731110 -2109706916 957063234 -336137692 -1822120837 726989817 2122825955 537546344 -1190040830 -1720800514 -2046555214 1117809972
REM
CELL 1.54180   50.00000   50.00000   50.00000   90.00000   90.00000   90.00000
LATT -1
SFAC C  
C      1  0.4440540000000  0.4206060000000  0.5694400000000 1.0
C      1  0.4642630000000  0.5502640000000  0.5366420000000 1.0
C      1  0.4444550000000  0.4609310000000  0.4730170000000 1.0
C      1  0.5016730000000  0.5085190000000  0.5594360000000 1.0
C      1  0.4303310000000  0.4876700000000  0.4305260000000 1.0
C      1  0.4440200000000  0.5907990000000  0.5610500000000 1.0
C      1  0.4347510000000  0.4410600000000  0.5815120000000 1.0
C      1  0.5246700000000  0.5542040000000  0.5997850000000 1.0
C      1  0.5984250000000  0.5213440000000  0.4784170000000 1.0
C      1  0.4911490000000  0.4573210000000  0.6210790000000 1.0
C      1  0.5403880000000  0.4822900000000  0.3945140000000 1.0
C      1  0.5443800000000  0.4187030000000  0.5117150000000 1.0
C      1  0.4825970000000  0.4455710000000  0.4662590000000 1.0
C      1  0.4706710000000  0.4781840000000  0.3963870000000 1.0
C      1  0.5376740000000  0.5069610000000  0.6136770000000 1.0
C      1  0.4875050000000  0.5932390000000  0.5308470000000 1.0
C      1  0.3979340000000  0.4969850000000  0.5320430000000 1.0
C      1  0.5128050000000  0.5024240000000  0.3711200000000 1.0
C      1  0.5836170000000  0.5355470000000  0.5612280000000 1.0
C      1  0.4248870000000  0.4498890000000  0.5150410000000 1.0
C      1  0.5025320000000  0.4626890000000  0.4541760000000 1.0
C      1  0.4926560000000  0.4489390000000  0.5929780000000 1.0
C      1  0.4829880000000  0.4762140000000  0.5038630000000 1.0
C      1  0.4673820000000  0.5248310000000  0.5918370000000 1.0
C      1  0.4986130000000  0.4118370000000  0.5209630000000 1.0
C      1  0.3967570000000  0.5250770000000  0.5434660000000 1.0
C      1  0.4157460000000  0.5125000000000  0.4899690000000 1.0
C      1  0.6106780000000  0.5411460000000  0.5308860000000 1.0
C      1  0.4582690000000  0.5216490000000  0.4661960000000 1.0
C      1  0.4550190000000  0.5371100000000  0.4222250000000 1.0
C      1  0.5610560000000  0.4944570000000  0.5221910000000 1.0
C      1  0.5892020000000  0.4567410000000  0.5457770000000 1.0
C      1  0.4172050000000  0.5449330000000  0.5335020000000 1.0
C      1  0.4736670000000  0.5551530000000  0.5851990000000 1.0
C      1  0.4971840000000  0.4902820000000  0.4414190000000 1.0
C      1  0.4771160000000  0.4846520000000  0.6226710000000 1.0
C      1  0.4839110000000  0.4979820000000  0.4133120000000 1.0
C      1  0.5031920000000  0.5934920000000  0.5059570000000 1.0
C      1  0.5190810000000  0.4106360000000  0.4999760000000 1.0
C      1  0.4870060000000  0.5558620000000  0.5584100000000 1.0
C      1  0.4952070000000  0.5867380000000  0.4580040000000 1.0
C      1  0.4918790000000  0.4399100000000  0.4072440000000 1.0
C      1  0.4403380000000  0.4676250000000  0.5863310000000 1.0
C      1  0.6041650000000  0.4734120000000  0.4970950000000 1.0
C      1  0.4511130000000  0.4666040000000  0.4146840000000 1.0
C      1  0.4436780000000  0.5205160000000  0.4921820000000 1.0
C      1  0.5057780000000  0.5203890000000  0.4780210000000 1.0
C      1  0.4871090000000  0.5408980000000  0.4872020000000 1.0
C      1  0.4658670000000  0.4431930000000  0.4203490000000 1.0
C      1  0.5378980000000  0.4899680000000  0.5066420000000 1.0
C      1  0.5414040000000  0.4381160000000  0.4238900000000 1.0
C      1  0.4377100000000  0.4660530000000  0.5379470000000 1.0
C      1  0.5598200000000  0.5431100000000  0.5059740000000 1.0
C      1  0.4019180000000  0.5310350000000  0.4718480000000 1.0
C      1  0.4853390000000  0.5972660000000  0.4811670000000 1.0
C      1  0.5184430000000  0.5515390000000  0.4276040000000 1.0
C      1  0.4784840000000  0.5260780000000  0.4083360000000 1.0
C      1  0.6110770000000  0.5131540000000  0.5277140000000 1.0
C      1  0.5140820000000  0.5357460000000  0.5183220000000 1.0
C      1  0.5605480000000  0.5267150000000  0.4150530000000 1.0
C      1  0.4685270000000  0.4634810000000  0.5795270000000 1.0
C      1  0.5929840000000  0.5098580000000  0.5509230000000 1.0
C      1  0.5462770000000  0.5422130000000  0.4736700000000 1.0
C      1  0.5021920000000  0.5822960000000  0.5525890000000 1.0
C      1  0.5528120000000  0.4884670000000  0.5960370000000 1.0
C      1  0.5112270000000  0.5324890000000  0.5465340000000 1.0
C      1  0.5283600000000  0.4644470000000  0.4968720000000 1.0
C      1  0.4600320000000  0.4028660000000  0.5530400000000 1.0
C      1  0.4052800000000  0.4632310000000  0.4960450000000 1.0
C      1  0.4506220000000  0.4006320000000  0.5068120000000 1.0
C      1  0.5502370000000  0.4794420000000  0.5680760000000 1.0
C      1  0.5194750000000  0.5132840000000  0.5022800000000 1.0
C      1  0.4476090000000  0.4833140000000  0.4563290000000 1.0
C      1  0.4743900000000  0.5004810000000  0.5181180000000 1.0
C      1  0.5164680000000  0.4751570000000  0.3770140000000 1.0
C      1  0.5265730000000  0.4639590000000  0.5617970000000 1.0
C      1  0.5184930000000  0.4412820000000  0.5792050000000 1.0
C      1  0.4152130000000  0.5378740000000  0.4457930000000 1.0
C      1  0.6058100000000  0.5021370000000  0.4999850000000 1.0
C      1  0.4425140000000  0.4149900000000  0.4558840000000 1.0
C      1  0.5904060000000  0.5575830000000  0.5411380000000 1.0
C      1  0.4660430000000  0.5281060000000  0.5104390000000 1.0
C      1  0.5272380000000  0.4624060000000  0.4683610000000 1.0
C      1  0.4644840000000  0.4697340000000  0.5510540000000 1.0
C      1  0.4725260000000  0.5453870000000  0.4637800000000 1.0
C      1  0.4443860000000  0.5193420000000  0.5716260000000 1.0
C      1  0.4685790000000  0.4574710000000  0.4881900000000 1.0
C      1  0.4928810000000  0.4600960000000  0.3870110000000 1.0
C      1  0.5106570000000  0.4559990000000  0.5386220000000 1.0
C      1  0.5544080000000  0.5224780000000  0.5258570000000 1.0
C      1  0.6039250000000  0.4551660000000  0.5204660000000 1.0
C      1  0.4559140000000  0.5746210000000  0.5786230000000 1.0
C      1  0.5676870000000  0.5655430000000  0.5229550000000 1.0
C      1  0.5554570000000  0.5393900000000  0.5695110000000 1.0
C      1  0.5741900000000  0.4843990000000  0.5486340000000 1.0
C      1  0.5491490000000  0.5854340000000  0.4844410000000 1.0
C      1  0.5491790000000  0.5508350000000  0.4270000000000 1.0
C      1  0.4272750000000  0.4401900000000  0.4610810000000 1.0
C      1  0.5182180000000  0.4064000000000  0.4700340000000 1.0
C      1  0.5043320000000  0.5402490000000  0.4042010000000 1.0
C      1  0.5348300000000  0.5965940000000  0.5073320000000 1.0
C      1  0.5163220000000  0.5256190000000  0.6037460000000 1.0
C      1  0.5448790000000  0.5117830000000  0.3953520000000 1.0
C      1  0.5842510000000  0.4508810000000  0.4996900000000 1.0
C      1  0.4205270000000  0.5656770000000  0.4571630000000 1.0
C      1  0.5760310000000  0.5727770000000  0.4731000000000 1.0
C      1  0.5525140000000  0.4637160000000  0.4131530000000 1.0
C      1  0.5883740000000  0.5063540000000  0.4548470000000 1.0
C      1  0.4699790000000  0.5051430000000  0.6160820000000 1.0
C      1  0.5469270000000  0.5854920000000  0.5312610000000 1.0
C      1  0.4182920000000  0.4836400000000  0.5484430000000 1.0
C      1  0.5725180000000  0.4333440000000  0.5505830000000 1.0
C      1  0.5450880000000  0.4031090000000  0.4586530000000 1.0
C      1  0.4953100000000  0.5143210000000  0.5864390000000 1.0
C      1  0.4801790000000  0.4942710000000  0.5456690000000 1.0
C      1  0.5074550000000  0.5585460000000  0.5013960000000 1.0
C      1  0.4262530000000  0.4967950000000  0.5755880000000 1.0
C      1  0.4024230000000  0.4557800000000  0.4670760000000 1.0
C      1  0.5248620000000  0.4199870000000  0.5602550000000 1.0
C      1  0.4525570000000  0.4035620000000  0.4787060000000 1.0
C      1  0.5732250000000  0.4807300000000  0.4559730000000 1.0
C      1  0.5671430000000  0.4173180000000  0.4673050000000 1.0
C      1  0.5019910000000  0.4140450000000  0.4471940000000 1.0
C      1  0.5439430000000  0.4827970000000  0.4568590000000 1.0
C      1  0.4202310000000  0.5622040000000  0.5093340000000 1.0
C      1  0.4425350000000  0.5808620000000  0.5067000000000 1.0
C      1  0.4723060000000  0.4977760000000  0.4588390000000 1.0
C      1  0.4361580000000  0.4251630000000  0.5095990000000 1.0
C      1  0.4465100000000  0.5782110000000  0.4568350000000 1.0
C      1  0.4089750000000  0.4739680000000  0.4455810000000 1.0
C      1  0.5811470000000  0.5081710000000  0.4261940000000 1.0
C      1  0.5476840000000  0.4195200000000  0.5417070000000 1.0
C      1  0.4593080000000  0.5815920000000  0.5313830000000 1.0
C      1  0.4076880000000  0.5578320000000  0.4828070000000 1.0
C      1  0.5655860000000  0.4290090000000  0.4937900000000 1.0
C      1  0.4326600000000  0.5215840000000  0.4295200000000 1.0
C      1  0.4562570000000  0.5888530000000  0.4817750000000 1.0
C      1  0.5384670000000  0.5249870000000  0.5515390000000 1.0
C      1  0.5574390000000  0.4207670000000  0.4405150000000 1.0
C      1  0.4404870000000  0.5383910000000  0.5498800000000 1.0
C      1  0.5137000000000  0.4283650000000  0.4245190000000 1.0
C      1  0.5297140000000  0.5646240000000  0.4823610000000 1.0
C      1  0.5309950000000  0.5818850000000  0.5557310000000 1.0
C      1  0.5209380000000  0.5263530000000  0.3839050000000 1.0
C      1  0.4738540000000  0.3986760000000  0.5269210000000 1.0
C      1  0.5586180000000  0.5601540000000  0.4528430000000 1.0
C      1  0.5246450000000  0.5014890000000  0.4470950000000 1.0
C      1  0.4707590000000  0.4245960000000  0.4472200000000 1.0
C      1  0.5900830000000  0.5491110000000  0.4800010000000 1.0
C      1  0.5735180000000  0.4790640000000  0.4265040000000 1.0
C      1  0.4669310000000  0.5613250000000  0.4402530000000 1.0
C      1  0.5066170000000  0.4649660000000  0.5126810000000 1.0
C      1  0.4972960000000  0.5720850000000  0.4359220000000 1.0
C      1  0.4003810000000  0.4906200000000  0.5036270000000 1.0
C      1  0.5415950000000  0.5644550000000  0.5778870000000 1.0
C      1  0.5241400000000  0.5286530000000  0.4569780000000 1.0
C      1  0.5050390000000  0.4286500000000  0.5433200000000 1.0
C      1  0.3984700000000  0.5142770000000  0.5704990000000 1.0
END
