TITL C-4164238-4211-625 18.3362094347577 125000 -18861.5585880043 0 0 129 (C1) n - 1
REM
REM in /home/nfs/bkarasulu/CARBON/AIRSS/Generating-Clusters/ReaxFF-fromJPCA2015/Units_Real/with-SteepDescent/Only-C1/SD-CG/Try1-3A/FIRE-CG
REM
REM
REM
REM
REM
REM ./C.cell (11c1c37f851c82e70ff6c80c92926a4b)
REM
REM compiler GCC version 9.2.1 20190827 (Red Hat 9.2.1-1)
REM options -cpp -mtune=generic -march=x86-64 -g -O0 -fpre-include=/usr/include/finclude/math-vector-fortran.h
REM seed 1056508496 -553717496 -1613459107 1215336270 -87791143 -2010187966 270618532 -1502622001 1372769340 1931578769 -725820797 1988226929 2027075370 -1328343410 725237026 -1424568755 -34871221 1505904589 421689296 -259087442 1020964638 -1351176180 105637776 -690499880 719883333 1295034692 -276435683 324613201 1762877624 1679738914 276599320 -1881421392 1985014510
REM
CELL 1.54180   50.00000   50.00000   50.00000   90.00000   90.00000   90.00000
LATT -1
SFAC C  
C      1  0.5733440000000  0.4434440000000  0.4697150000000 1.0
C      1  0.5404000000000  0.5789810000000  0.4443620000000 1.0
C      1  0.5259730000000  0.4932100000000  0.5346620000000 1.0
C      1  0.4813110000000  0.5607160000000  0.5003120000000 1.0
C      1  0.5329840000000  0.4178350000000  0.4841950000000 1.0
C      1  0.5455270000000  0.5923530000000  0.4884720000000 1.0
C      1  0.5053410000000  0.4725040000000  0.5373310000000 1.0
C      1  0.5648870000000  0.5760170000000  0.5037070000000 1.0
C      1  0.5386530000000  0.5495040000000  0.5661510000000 1.0
C      1  0.5651660000000  0.4314620000000  0.5440730000000 1.0
C      1  0.5112190000000  0.5169070000000  0.5271170000000 1.0
C      1  0.5983220000000  0.4887460000000  0.4661200000000 1.0
C      1  0.5872670000000  0.5233100000000  0.4552130000000 1.0
C      1  0.5136140000000  0.5863960000000  0.4550050000000 1.0
C      1  0.4435020000000  0.4175010000000  0.5120140000000 1.0
C      1  0.5594160000000  0.4774240000000  0.5627030000000 1.0
C      1  0.5697150000000  0.4417150000000  0.5154560000000 1.0
C      1  0.4263230000000  0.4980960000000  0.4384620000000 1.0
C      1  0.4674500000000  0.6012160000000  0.5033330000000 1.0
C      1  0.4577880000000  0.5370030000000  0.4085290000000 1.0
C      1  0.4584690000000  0.4978120000000  0.5301760000000 1.0
C      1  0.5755570000000  0.4854910000000  0.4470110000000 1.0
C      1  0.4971240000000  0.4725070000000  0.5822260000000 1.0
C      1  0.5843690000000  0.5256450000000  0.5030840000000 1.0
C      1  0.5446260000000  0.5521990000000  0.4330440000000 1.0
C      1  0.5606540000000  0.5858920000000  0.4640600000000 1.0
C      1  0.5249230000000  0.4893260000000  0.4883550000000 1.0
C      1  0.5486610000000  0.4884240000000  0.4071750000000 1.0
C      1  0.4895930000000  0.4254980000000  0.5616100000000 1.0
C      1  0.4383220000000  0.4700680000000  0.4427330000000 1.0
C      1  0.4688690000000  0.4322760000000  0.5134090000000 1.0
C      1  0.4792200000000  0.4179250000000  0.4589100000000 1.0
C      1  0.4537210000000  0.5000940000000  0.4858660000000 1.0
C      1  0.4652540000000  0.5353680000000  0.5429750000000 1.0
C      1  0.4218910000000  0.5548720000000  0.5223240000000 1.0
C      1  0.5789100000000  0.5272340000000  0.5581120000000 1.0
C      1  0.4760380000000  0.4759740000000  0.5351480000000 1.0
C      1  0.5066150000000  0.5402300000000  0.4939330000000 1.0
C      1  0.4483520000000  0.5449830000000  0.5655070000000 1.0
C      1  0.4385360000000  0.4913810000000  0.5646070000000 1.0
C      1  0.4441750000000  0.4189170000000  0.5780590000000 1.0
C      1  0.5068050000000  0.5871740000000  0.5638650000000 1.0
C      1  0.4932560000000  0.5479450000000  0.5880520000000 1.0
C      1  0.5005770000000  0.5107350000000  0.5004580000000 1.0
C      1  0.4310460000000  0.4630740000000  0.5590710000000 1.0
C      1  0.4887710000000  0.5760480000000  0.4432090000000 1.0
C      1  0.5825600000000  0.4679740000000  0.5171060000000 1.0
C      1  0.4170940000000  0.4489160000000  0.4848690000000 1.0
C      1  0.5552380000000  0.4502620000000  0.5619030000000 1.0
C      1  0.4934580000000  0.4960700000000  0.4020740000000 1.0
C      1  0.5863950000000  0.5400220000000  0.5310910000000 1.0
C      1  0.4940640000000  0.4592470000000  0.4328840000000 1.0
C      1  0.5993300000000  0.4771770000000  0.4945160000000 1.0
C      1  0.4168600000000  0.5364150000000  0.5004950000000 1.0
C      1  0.5276440000000  0.3924840000000  0.5458560000000 1.0
C      1  0.4333510000000  0.5806560000000  0.5158850000000 1.0
C      1  0.5572290000000  0.4638410000000  0.4565620000000 1.0
C      1  0.4813080000000  0.5150650000000  0.5584680000000 1.0
C      1  0.4404320000000  0.4513650000000  0.4660520000000 1.0
C      1  0.4996000000000  0.4339680000000  0.4451140000000 1.0
C      1  0.4883450000000  0.4796190000000  0.4555160000000 1.0
C      1  0.5067320000000  0.3994260000000  0.5235550000000 1.0
C      1  0.4322180000000  0.5250410000000  0.4502600000000 1.0
C      1  0.5151000000000  0.4498320000000  0.5203380000000 1.0
C      1  0.4799240000000  0.4714940000000  0.4105990000000 1.0
C      1  0.4621080000000  0.4601340000000  0.5173020000000 1.0
C      1  0.5225990000000  0.4994040000000  0.4000450000000 1.0
C      1  0.4844650000000  0.3988420000000  0.4816720000000 1.0
C      1  0.4668870000000  0.4103840000000  0.5689310000000 1.0
C      1  0.4873360000000  0.4181640000000  0.5330120000000 1.0
C      1  0.4046180000000  0.4729720000000  0.4925380000000 1.0
C      1  0.5888080000000  0.5102530000000  0.5404830000000 1.0
C      1  0.5598970000000  0.4283820000000  0.4915200000000 1.0
C      1  0.4503500000000  0.4709890000000  0.4160160000000 1.0
C      1  0.5201900000000  0.5367010000000  0.4681990000000 1.0
C      1  0.4696930000000  0.5615040000000  0.5765140000000 1.0
C      1  0.5167320000000  0.5947580000000  0.4825140000000 1.0
C      1  0.5605040000000  0.5332060000000  0.4504540000000 1.0
C      1  0.4186260000000  0.4934460000000  0.5250690000000 1.0
C      1  0.5191220000000  0.4395730000000  0.4679040000000 1.0
C      1  0.5451530000000  0.5255940000000  0.4729010000000 1.0
C      1  0.5178460000000  0.5420340000000  0.4399620000000 1.0
C      1  0.4452960000000  0.4752580000000  0.4995440000000 1.0
C      1  0.4810160000000  0.4500270000000  0.5757960000000 1.0
C      1  0.5311480000000  0.4697620000000  0.4679790000000 1.0
C      1  0.4593680000000  0.4317830000000  0.4740950000000 1.0
C      1  0.4706170000000  0.5014470000000  0.4575520000000 1.0
C      1  0.4829890000000  0.5465070000000  0.4023320000000 1.0
C      1  0.5982070000000  0.4591360000000  0.4726730000000 1.0
C      1  0.5119660000000  0.4007960000000  0.4949400000000 1.0
C      1  0.4241770000000  0.5105920000000  0.5470280000000 1.0
C      1  0.4313440000000  0.4942860000000  0.4087430000000 1.0
C      1  0.5583340000000  0.5142080000000  0.4972670000000 1.0
C      1  0.4241000000000  0.4417460000000  0.5118190000000 1.0
C      1  0.5787750000000  0.5685040000000  0.4799900000000 1.0
C      1  0.5215260000000  0.5419290000000  0.5198720000000 1.0
C      1  0.4920100000000  0.5902980000000  0.4982630000000 1.0
C      1  0.5903390000000  0.5407210000000  0.4782620000000 1.0
C      1  0.5456140000000  0.4132970000000  0.5532870000000 1.0
C      1  0.4837810000000  0.4712010000000  0.4852920000000 1.0
C      1  0.4725880000000  0.5036340000000  0.5062870000000 1.0
C      1  0.4596510000000  0.5537620000000  0.4795020000000 1.0
C      1  0.5169490000000  0.5635340000000  0.5799080000000 1.0
C      1  0.5016620000000  0.4491790000000  0.4935710000000 1.0
C      1  0.4218910000000  0.4636610000000  0.5315610000000 1.0
C      1  0.4776230000000  0.5199290000000  0.3962780000000 1.0
C      1  0.5425070000000  0.4985600000000  0.5770240000000 1.0
C      1  0.4576310000000  0.3964320000000  0.4956580000000 1.0
C      1  0.4984350000000  0.5568830000000  0.4240350000000 1.0
C      1  0.5432400000000  0.4922570000000  0.5104860000000 1.0
C      1  0.4035050000000  0.5114790000000  0.5066340000000 1.0
C      1  0.4248660000000  0.5400970000000  0.5486110000000 1.0
C      1  0.5146220000000  0.4952480000000  0.5858510000000 1.0
C      1  0.5538110000000  0.5249010000000  0.5725960000000 1.0
C      1  0.4657730000000  0.4951360000000  0.5696640000000 1.0
C      1  0.5390650000000  0.5567380000000  0.5374820000000 1.0
C      1  0.4388230000000  0.5316750000000  0.4797140000000 1.0
C      1  0.4804640000000  0.5772950000000  0.5534620000000 1.0
C      1  0.5779770000000  0.4850260000000  0.5398930000000 1.0
C      1  0.4487020000000  0.4465390000000  0.5759430000000 1.0
C      1  0.4761760000000  0.5591330000000  0.5304840000000 1.0
C      1  0.5427210000000  0.5151040000000  0.4153840000000 1.0
C      1  0.4439180000000  0.6023210000000  0.5100210000000 1.0
C      1  0.4952670000000  0.5188870000000  0.5844390000000 1.0
C      1  0.3899010000000  0.4957340000000  0.4827200000000 1.0
C      1  0.4643870000000  0.5618940000000  0.4532570000000 1.0
C      1  0.5687840000000  0.5024450000000  0.4240280000000 1.0
C      1  0.4485430000000  0.5429850000000  0.4356150000000 1.0
C      1  0.5655600000000  0.5613930000000  0.5270710000000 1.0
END
