TITL C-4164239-2837-16 17.5936478902695 125000 -14699.1421672331 0 0 100 (C1) n - 1
REM
REM in /home/nfs/bkarasulu/CARBON/AIRSS/Generating-Clusters/ReaxFF-fromJPCA2015/Units_Real/with-SteepDescent/Only-C1/SD-CG/Try1-3A/FIRE-CG
REM
REM
REM
REM
REM
REM ./C.cell (11c1c37f851c82e70ff6c80c92926a4b)
REM
REM compiler GCC version 9.2.1 20190827 (Red Hat 9.2.1-1)
REM options -cpp -mtune=generic -march=x86-64 -g -O0 -fpre-include=/usr/include/finclude/math-vector-fortran.h
REM seed 2006365411 1711551442 -341211066 1026012804 -609830969 1389431419 1127844366 -402386903 937642796 -1968757167 -1438443398 1112966209 1361485873 1945250908 884736119 -1559580659 -318204558 -1978780577 -1404353530 -1692186720 -577560998 -1740161908 -474809280 1951619136 -2028187640 1882294904 1367033940 -415843536 -333253480 -1077581294 89475158 -1965214074 478879734
REM
CELL 1.54180   50.00000   50.00000   50.00000   90.00000   90.00000   90.00000
LATT -1
SFAC C  
C      1  0.5777920000000  0.5482200000000  0.4594830000000 1.0
C      1  0.5055760000000  0.5762560000000  0.4730170000000 1.0
C      1  0.4622340000000  0.4382560000000  0.5370150000000 1.0
C      1  0.4549400000000  0.4566090000000  0.4319620000000 1.0
C      1  0.5075100000000  0.5284590000000  0.5144790000000 1.0
C      1  0.4169790000000  0.4816510000000  0.4644550000000 1.0
C      1  0.4278130000000  0.5109790000000  0.5361820000000 1.0
C      1  0.4791550000000  0.5844890000000  0.4629250000000 1.0
C      1  0.5636690000000  0.5052580000000  0.5202560000000 1.0
C      1  0.4251230000000  0.5020830000000  0.5107550000000 1.0
C      1  0.5350480000000  0.5009250000000  0.4665450000000 1.0
C      1  0.5262890000000  0.5929420000000  0.5284990000000 1.0
C      1  0.5238590000000  0.4887920000000  0.5154870000000 1.0
C      1  0.4599500000000  0.5346200000000  0.5107710000000 1.0
C      1  0.4570550000000  0.4164810000000  0.5174680000000 1.0
C      1  0.4739300000000  0.4906330000000  0.5121640000000 1.0
C      1  0.4491140000000  0.4998160000000  0.5787100000000 1.0
C      1  0.4369760000000  0.4271630000000  0.4971000000000 1.0
C      1  0.4650670000000  0.4863030000000  0.5571450000000 1.0
C      1  0.4956620000000  0.4497570000000  0.5159190000000 1.0
C      1  0.4825900000000  0.5547630000000  0.5505570000000 1.0
C      1  0.4502820000000  0.5194360000000  0.4658750000000 1.0
C      1  0.5025460000000  0.4050320000000  0.4676780000000 1.0
C      1  0.5026030000000  0.5640290000000  0.4182390000000 1.0
C      1  0.4621970000000  0.4616760000000  0.5705540000000 1.0
C      1  0.5611500000000  0.5507680000000  0.5348630000000 1.0
C      1  0.4339960000000  0.4760610000000  0.4421530000000 1.0
C      1  0.4811190000000  0.4627710000000  0.4236410000000 1.0
C      1  0.4732040000000  0.5975260000000  0.4886070000000 1.0
C      1  0.4763870000000  0.4384420000000  0.5633920000000 1.0
C      1  0.5423220000000  0.5039770000000  0.4389020000000 1.0
C      1  0.5208790000000  0.4446600000000  0.5104220000000 1.0
C      1  0.5275880000000  0.4348830000000  0.5523930000000 1.0
C      1  0.5586540000000  0.4948690000000  0.4845490000000 1.0
C      1  0.5336820000000  0.4579060000000  0.4312680000000 1.0
C      1  0.5071450000000  0.4679790000000  0.4160270000000 1.0
C      1  0.5553920000000  0.5337700000000  0.5572840000000 1.0
C      1  0.4490160000000  0.5562320000000  0.4970630000000 1.0
C      1  0.5514930000000  0.4377160000000  0.5380970000000 1.0
C      1  0.4853670000000  0.4762790000000  0.4701900000000 1.0
C      1  0.4997500000000  0.5912660000000  0.5223980000000 1.0
C      1  0.5684320000000  0.4726120000000  0.4657480000000 1.0
C      1  0.4197490000000  0.4509080000000  0.5032010000000 1.0
C      1  0.4760760000000  0.5210570000000  0.4489180000000 1.0
C      1  0.5291820000000  0.5352390000000  0.5715210000000 1.0
C      1  0.5000310000000  0.5217090000000  0.4041650000000 1.0
C      1  0.5504890000000  0.5774130000000  0.5369920000000 1.0
C      1  0.5221730000000  0.5108090000000  0.5870730000000 1.0
C      1  0.4538630000000  0.5092270000000  0.5001420000000 1.0
C      1  0.5187760000000  0.4909390000000  0.5433200000000 1.0
C      1  0.5080140000000  0.4935910000000  0.4010400000000 1.0
C      1  0.5823740000000  0.5364030000000  0.4849290000000 1.0
C      1  0.5634140000000  0.5447400000000  0.4413250000000 1.0
C      1  0.4735710000000  0.5564510000000  0.4248130000000 1.0
C      1  0.4573650000000  0.4293710000000  0.4465480000000 1.0
C      1  0.5581600000000  0.4664920000000  0.5341540000000 1.0
C      1  0.4368730000000  0.5216110000000  0.5610950000000 1.0
C      1  0.4466350000000  0.4395300000000  0.4715500000000 1.0
C      1  0.5547610000000  0.4773700000000  0.4390470000000 1.0
C      1  0.5797840000000  0.5114320000000  0.4740260000000 1.0
C      1  0.5453750000000  0.5310330000000  0.4258410000000 1.0
C      1  0.4764870000000  0.5788710000000  0.5326880000000 1.0
C      1  0.5493350000000  0.4828150000000  0.5570780000000 1.0
C      1  0.5312680000000  0.4157970000000  0.4641490000000 1.0
C      1  0.5575640000000  0.4539660000000  0.4846100000000 1.0
C      1  0.5290700000000  0.5403480000000  0.5004800000000 1.0
C      1  0.5404180000000  0.4229120000000  0.5148640000000 1.0
C      1  0.5209660000000  0.5421470000000  0.4114480000000 1.0
C      1  0.4931600000000  0.4887550000000  0.5499410000000 1.0
C      1  0.4464030000000  0.5492920000000  0.4688870000000 1.0
C      1  0.4602760000000  0.5804700000000  0.5086920000000 1.0
C      1  0.4612840000000  0.5380240000000  0.5682280000000 1.0
C      1  0.5072050000000  0.4995400000000  0.4731040000000 1.0
C      1  0.5072360000000  0.4398780000000  0.5695620000000 1.0
C      1  0.5023560000000  0.5964260000000  0.4950930000000 1.0
C      1  0.5274740000000  0.5794110000000  0.5550400000000 1.0
C      1  0.5116770000000  0.5566510000000  0.5633540000000 1.0
C      1  0.4831520000000  0.5390240000000  0.5253320000000 1.0
C      1  0.4152100000000  0.4785630000000  0.4940480000000 1.0
C      1  0.4686780000000  0.5197180000000  0.5889690000000 1.0
C      1  0.4890810000000  0.4241300000000  0.4767960000000 1.0
C      1  0.5324690000000  0.4367380000000  0.4477960000000 1.0
C      1  0.4687910000000  0.4609460000000  0.4720930000000 1.0
C      1  0.5421930000000  0.4682550000000  0.5096350000000 1.0
C      1  0.4311710000000  0.5015800000000  0.4517580000000 1.0
C      1  0.5497160000000  0.4260900000000  0.4861650000000 1.0
C      1  0.4954740000000  0.5078040000000  0.5994650000000 1.0
C      1  0.5342780000000  0.4843780000000  0.5825170000000 1.0
C      1  0.4604610000000  0.5657060000000  0.4499480000000 1.0
C      1  0.4723080000000  0.4620860000000  0.5185190000000 1.0
C      1  0.4754500000000  0.4109600000000  0.4974340000000 1.0
C      1  0.4986340000000  0.4801610000000  0.6020460000000 1.0
C      1  0.5143970000000  0.5480970000000  0.4763700000000 1.0
C      1  0.5004350000000  0.5257640000000  0.4637410000000 1.0
C      1  0.4756840000000  0.5276880000000  0.4205450000000 1.0
C      1  0.5015880000000  0.5006940000000  0.5043420000000 1.0
C      1  0.5638550000000  0.5072670000000  0.5476780000000 1.0
C      1  0.5597840000000  0.5327930000000  0.5092860000000 1.0
C      1  0.4828540000000  0.4162190000000  0.4493020000000 1.0
C      1  0.5159560000000  0.4623640000000  0.5890580000000 1.0
END
