TITL C-4164246-3563-149 -0.956564740758213 125000 -8819.76955845419 0 0 60 (C1) n - 1
REM
REM in /home/nfs/bkarasulu/CARBON/AIRSS/Generating-Clusters/ReaxFF-fromJPCA2015/Units_Real/with-SteepDescent/Only-C1/SD-CG/Try1-3A/FIRE-CG
REM
REM
REM
REM
REM
REM ./C.cell (11c1c37f851c82e70ff6c80c92926a4b)
REM
REM compiler GCC version 9.2.1 20190827 (Red Hat 9.2.1-1)
REM options -cpp -mtune=generic -march=x86-64 -g -O0 -fpre-include=/usr/include/finclude/math-vector-fortran.h
REM seed 1478425325 -172486733 556674459 -1941717539 -395838389 1974043178 -35244281 1398353522 697347500 -1399988643 -1607158929 -1624103641 -1557004673 -860533167 -1735773508 1606306043 -1672252248 -144474573 760236436 544010877 1365897907 -1839080228 568651304 1815723262 1899231096 -1681226189 1084034999 718219938 622117342 -1427228597 -1441730765 -296125083 -1322879978
REM
CELL 1.54180   50.00000   50.00000   50.00000   90.00000   90.00000   90.00000
LATT -1
SFAC C  
C      1  0.5120510000000  0.5227710000000  0.5135540000000 1.0
C      1  0.4991470000000  0.5288630000000  0.5692100000000 1.0
C      1  0.5184260000000  0.5123320000000  0.4234070000000 1.0
C      1  0.4398570000000  0.4594930000000  0.4780740000000 1.0
C      1  0.5285780000000  0.4861420000000  0.4943660000000 1.0
C      1  0.5294920000000  0.5178740000000  0.4521180000000 1.0
C      1  0.5371650000000  0.5653820000000  0.5410460000000 1.0
C      1  0.5155170000000  0.4965520000000  0.4734760000000 1.0
C      1  0.5223690000000  0.4719110000000  0.4319240000000 1.0
C      1  0.5609400000000  0.4722670000000  0.5154930000000 1.0
C      1  0.5587920000000  0.5213520000000  0.5021340000000 1.0
C      1  0.4586320000000  0.4496190000000  0.4573650000000 1.0
C      1  0.5601880000000  0.4833340000000  0.4615840000000 1.0
C      1  0.4876790000000  0.4542580000000  0.4629150000000 1.0
C      1  0.5554820000000  0.5037620000000  0.4421910000000 1.0
C      1  0.4645080000000  0.5567200000000  0.5350500000000 1.0
C      1  0.5195330000000  0.4629020000000  0.5121090000000 1.0
C      1  0.5375940000000  0.4939480000000  0.5604500000000 1.0
C      1  0.4574800000000  0.5104860000000  0.5580710000000 1.0
C      1  0.5199390000000  0.4741470000000  0.5731830000000 1.0
C      1  0.4436040000000  0.5405170000000  0.5211940000000 1.0
C      1  0.5357730000000  0.4450430000000  0.4769050000000 1.0
C      1  0.4706100000000  0.4979450000000  0.4873270000000 1.0
C      1  0.4442750000000  0.5368610000000  0.4920690000000 1.0
C      1  0.4787200000000  0.5072980000000  0.5764700000000 1.0
C      1  0.4873260000000  0.5679490000000  0.5191810000000 1.0
C      1  0.5265270000000  0.5431690000000  0.4681580000000 1.0
C      1  0.4934610000000  0.5434800000000  0.5033940000000 1.0
C      1  0.4898290000000  0.4826900000000  0.4719220000000 1.0
C      1  0.4371720000000  0.5172060000000  0.4712440000000 1.0
C      1  0.4561080000000  0.4732840000000  0.4428950000000 1.0
C      1  0.4410540000000  0.4899120000000  0.4873830000000 1.0
C      1  0.5451920000000  0.4498340000000  0.5052120000000 1.0
C      1  0.4391530000000  0.5155700000000  0.5365770000000 1.0
C      1  0.5279910000000  0.5213370000000  0.5632550000000 1.0
C      1  0.5075690000000  0.4374230000000  0.4765860000000 1.0
C      1  0.5400450000000  0.4922670000000  0.4199280000000 1.0
C      1  0.5012490000000  0.4983950000000  0.5232300000000 1.0
C      1  0.5408900000000  0.4631850000000  0.4545430000000 1.0
C      1  0.5341530000000  0.5347830000000  0.4954300000000 1.0
C      1  0.4452250000000  0.4406400000000  0.5002140000000 1.0
C      1  0.4552310000000  0.4753260000000  0.5323780000000 1.0
C      1  0.4723750000000  0.4353290000000  0.5118520000000 1.0
C      1  0.4745960000000  0.5430110000000  0.4494190000000 1.0
C      1  0.4990880000000  0.4910780000000  0.4282130000000 1.0
C      1  0.4693470000000  0.4962740000000  0.4341900000000 1.0
C      1  0.4566700000000  0.5199620000000  0.4490090000000 1.0
C      1  0.4360040000000  0.4911070000000  0.5186280000000 1.0
C      1  0.5610470000000  0.5189090000000  0.5306840000000 1.0
C      1  0.4821710000000  0.5452810000000  0.5542280000000 1.0
C      1  0.4722360000000  0.5272220000000  0.4916890000000 1.0
C      1  0.5570140000000  0.4906880000000  0.5382670000000 1.0
C      1  0.5002120000000  0.4405520000000  0.5046520000000 1.0
C      1  0.5597280000000  0.4920940000000  0.4919280000000 1.0
C      1  0.4927390000000  0.4810300000000  0.5819270000000 1.0
C      1  0.5006910000000  0.5537270000000  0.4588700000000 1.0
C      1  0.4869490000000  0.4758380000000  0.5337530000000 1.0
C      1  0.5458510000000  0.5378770000000  0.5482000000000 1.0
C      1  0.5122930000000  0.5782580000000  0.5317440000000 1.0
C      1  0.4964600000000  0.4635350000000  0.5595370000000 1.0
END
