TITL C-4164243-3780-223 -3.91144988922895 125000 -8466.58757295585 0 0 58 (C1) n - 1
REM
REM in /home/nfs/bkarasulu/CARBON/AIRSS/Generating-Clusters/ReaxFF-fromJPCA2015/Units_Real/with-SteepDescent/Only-C1/SD-CG/Try1-3A/FIRE-CG
REM
REM
REM
REM
REM
REM ./C.cell (11c1c37f851c82e70ff6c80c92926a4b)
REM
REM compiler GCC version 9.2.1 20190827 (Red Hat 9.2.1-1)
REM options -cpp -mtune=generic -march=x86-64 -g -O0 -fpre-include=/usr/include/finclude/math-vector-fortran.h
REM seed -549040155 -811101869 -51716011 336510853 -1126754246 -1436834060 -140164722 1542057098 -174201999 1388304312 -1145780164 -2014079999 72594166 1073823036 2018856622 698468444 -1292404696 -1467063703 1440134192 -2110328871 -1328216306 1297505005 1978324311 -1867254839 -443601127 1250769933 -1007436283 -2089283153 -1458385421 -1079158512 733545030 -1721739934 1885506892
REM
CELL 1.54180   50.00000   50.00000   50.00000   90.00000   90.00000   90.00000
LATT -1
SFAC C  
C      1  0.4643220000000  0.5656720000000  0.5000290000000 1.0
C      1  0.5239580000000  0.4589800000000  0.5499890000000 1.0
C      1  0.4814600000000  0.5600940000000  0.4770090000000 1.0
C      1  0.4609340000000  0.5334470000000  0.5691340000000 1.0
C      1  0.4734380000000  0.5429030000000  0.4548830000000 1.0
C      1  0.5045710000000  0.4161440000000  0.5362690000000 1.0
C      1  0.5328740000000  0.5393620000000  0.5507110000000 1.0
C      1  0.5638410000000  0.4813040000000  0.4715990000000 1.0
C      1  0.4599430000000  0.4404890000000  0.4854810000000 1.0
C      1  0.5300440000000  0.4928050000000  0.5009130000000 1.0
C      1  0.4595890000000  0.4712640000000  0.5287280000000 1.0
C      1  0.4797060000000  0.5020240000000  0.4477790000000 1.0
C      1  0.4741730000000  0.4951650000000  0.5180390000000 1.0
C      1  0.4983950000000  0.4431390000000  0.4547790000000 1.0
C      1  0.5461730000000  0.5489500000000  0.5281210000000 1.0
C      1  0.5519500000000  0.5171280000000  0.5596190000000 1.0
C      1  0.5055290000000  0.5340850000000  0.5065940000000 1.0
C      1  0.4837360000000  0.4883030000000  0.5670490000000 1.0
C      1  0.4747380000000  0.4783640000000  0.4251860000000 1.0
C      1  0.5524100000000  0.5042750000000  0.5115580000000 1.0
C      1  0.4790570000000  0.5487440000000  0.5515220000000 1.0
C      1  0.5218990000000  0.5254130000000  0.4412860000000 1.0
C      1  0.5122790000000  0.4391040000000  0.5293630000000 1.0
C      1  0.4360160000000  0.5121180000000  0.4763940000000 1.0
C      1  0.4430980000000  0.4795020000000  0.4819010000000 1.0
C      1  0.4417670000000  0.5185500000000  0.5535100000000 1.0
C      1  0.4724900000000  0.4559440000000  0.4423570000000 1.0
C      1  0.4419460000000  0.5318540000000  0.5277180000000 1.0
C      1  0.4287700000000  0.5285120000000  0.4995630000000 1.0
C      1  0.4920590000000  0.5270980000000  0.4393230000000 1.0
C      1  0.5086720000000  0.4799160000000  0.4902010000000 1.0
C      1  0.5524420000000  0.4671820000000  0.5439880000000 1.0
C      1  0.5095670000000  0.5516580000000  0.4850880000000 1.0
C      1  0.4507540000000  0.4563380000000  0.4634630000000 1.0
C      1  0.4620410000000  0.5526510000000  0.5275930000000 1.0
C      1  0.5568570000000  0.5345520000000  0.4787110000000 1.0
C      1  0.5361560000000  0.4431370000000  0.4809970000000 1.0
C      1  0.4884370000000  0.4930370000000  0.4740600000000 1.0
C      1  0.4613160000000  0.5040190000000  0.5720670000000 1.0
C      1  0.5610050000000  0.4576480000000  0.4898730000000 1.0
C      1  0.5043640000000  0.4745210000000  0.5600000000000 1.0
C      1  0.4965580000000  0.5158870000000  0.5243140000000 1.0
C      1  0.5107970000000  0.4477180000000  0.4971600000000 1.0
C      1  0.5330740000000  0.4996950000000  0.4444570000000 1.0
C      1  0.4424140000000  0.5511800000000  0.4897750000000 1.0
C      1  0.4887810000000  0.4356360000000  0.4807310000000 1.0
C      1  0.4462860000000  0.4584680000000  0.5050650000000 1.0
C      1  0.5029430000000  0.5321160000000  0.5483070000000 1.0
C      1  0.5329620000000  0.5401250000000  0.4642030000000 1.0
C      1  0.4542810000000  0.5207170000000  0.4561730000000 1.0
C      1  0.5603710000000  0.4962510000000  0.5409030000000 1.0
C      1  0.5668370000000  0.5071560000000  0.4852770000000 1.0
C      1  0.4676710000000  0.4917730000000  0.4906710000000 1.0
C      1  0.5543260000000  0.5551280000000  0.5017030000000 1.0
C      1  0.5442390000000  0.4755560000000  0.4497260000000 1.0
C      1  0.5266990000000  0.4496450000000  0.4549970000000 1.0
C      1  0.5286510000000  0.5662490000000  0.4960810000000 1.0
C      1  0.5603350000000  0.4613050000000  0.5180070000000 1.0
END
