TITL C-4164238-4211-611 8.55954829188883 125000 -11626.4001466339 0 0 78 (C1) n - 1
REM
REM in /home/nfs/bkarasulu/CARBON/AIRSS/Generating-Clusters/ReaxFF-fromJPCA2015/Units_Real/with-SteepDescent/Only-C1/SD-CG/Try1-3A/FIRE-CG
REM
REM
REM
REM
REM
REM ./C.cell (11c1c37f851c82e70ff6c80c92926a4b)
REM
REM compiler GCC version 9.2.1 20190827 (Red Hat 9.2.1-1)
REM options -cpp -mtune=generic -march=x86-64 -g -O0 -fpre-include=/usr/include/finclude/math-vector-fortran.h
REM seed 2060832614 -1309126531 -377034776 200635578 -762944917 -64860874 -1363512577 -417981358 1989234146 -1172929794 -1721199475 765498562 -1206081924 -1913076054 1941230549 2144291578 -220254074 810150883 -1076645316 525595221 -93654207 803721353 241423157 -1119466794 -702993506 388302271 1853921870 -361859562 -1265035408 1973184027 -2013584053 1392690827 -407157107
REM
CELL 1.54180   50.00000   50.00000   50.00000   90.00000   90.00000   90.00000
LATT -1
SFAC C  
C      1  0.4565510000000  0.5557780000000  0.5030050000000 1.0
C      1  0.5083380000000  0.4739240000000  0.4779640000000 1.0
C      1  0.4358390000000  0.4601990000000  0.4390280000000 1.0
C      1  0.4553960000000  0.5307110000000  0.5188260000000 1.0
C      1  0.4615400000000  0.4986000000000  0.4260730000000 1.0
C      1  0.4600590000000  0.4365910000000  0.4615520000000 1.0
C      1  0.4793900000000  0.5166340000000  0.4691860000000 1.0
C      1  0.5272480000000  0.5099850000000  0.5734020000000 1.0
C      1  0.5479160000000  0.4617950000000  0.4446770000000 1.0
C      1  0.5226520000000  0.5513390000000  0.4548320000000 1.0
C      1  0.5426540000000  0.4856650000000  0.5165000000000 1.0
C      1  0.5172290000000  0.4356340000000  0.5297040000000 1.0
C      1  0.5520970000000  0.5114970000000  0.5586210000000 1.0
C      1  0.4726000000000  0.5207240000000  0.5680320000000 1.0
C      1  0.5081350000000  0.4476780000000  0.4670580000000 1.0
C      1  0.4417170000000  0.4533210000000  0.5044340000000 1.0
C      1  0.4802870000000  0.4551940000000  0.5703310000000 1.0
C      1  0.4878330000000  0.4280360000000  0.5298190000000 1.0
C      1  0.4892270000000  0.5755100000000  0.4773100000000 1.0
C      1  0.5684720000000  0.4992970000000  0.4707680000000 1.0
C      1  0.5003580000000  0.5739700000000  0.5245230000000 1.0
C      1  0.5187970000000  0.5730420000000  0.4738800000000 1.0
C      1  0.4835880000000  0.4882030000000  0.4719160000000 1.0
C      1  0.5375950000000  0.5638020000000  0.4948370000000 1.0
C      1  0.5428900000000  0.5618590000000  0.5506370000000 1.0
C      1  0.4465050000000  0.5217520000000  0.4707630000000 1.0
C      1  0.5137170000000  0.4813130000000  0.5090940000000 1.0
C      1  0.4526610000000  0.5035960000000  0.5585080000000 1.0
C      1  0.4734290000000  0.4715380000000  0.4246130000000 1.0
C      1  0.5334430000000  0.4354780000000  0.5054270000000 1.0
C      1  0.4727630000000  0.5070920000000  0.5115800000000 1.0
C      1  0.4595840000000  0.4454550000000  0.4343490000000 1.0
C      1  0.5172840000000  0.4893150000000  0.5919360000000 1.0
C      1  0.5829540000000  0.4876360000000  0.5203740000000 1.0
C      1  0.4479050000000  0.4597190000000  0.5316660000000 1.0
C      1  0.4276510000000  0.4813860000000  0.4554220000000 1.0
C      1  0.4785790000000  0.5756160000000  0.5046980000000 1.0
C      1  0.4346720000000  0.4801640000000  0.4874200000000 1.0
C      1  0.5164060000000  0.5532460000000  0.5117370000000 1.0
C      1  0.5095180000000  0.4632960000000  0.5313610000000 1.0
C      1  0.4403500000000  0.5049770000000  0.4454240000000 1.0
C      1  0.5597430000000  0.4884570000000  0.5407210000000 1.0
C      1  0.4994700000000  0.5055260000000  0.5143970000000 1.0
C      1  0.5563020000000  0.4537210000000  0.4961690000000 1.0
C      1  0.5635500000000  0.5280410000000  0.4707970000000 1.0
C      1  0.5021960000000  0.4748030000000  0.4252300000000 1.0
C      1  0.5595170000000  0.5389880000000  0.5474880000000 1.0
C      1  0.5182360000000  0.5770990000000  0.5502350000000 1.0
C      1  0.5447890000000  0.5335710000000  0.4488550000000 1.0
C      1  0.4982000000000  0.4728970000000  0.5553300000000 1.0
C      1  0.4324460000000  0.5123540000000  0.5224690000000 1.0
C      1  0.5413710000000  0.5141560000000  0.5147160000000 1.0
C      1  0.5641600000000  0.5322560000000  0.5186460000000 1.0
C      1  0.4686730000000  0.4438850000000  0.5457900000000 1.0
C      1  0.4292280000000  0.5086800000000  0.4940580000000 1.0
C      1  0.5193320000000  0.4558520000000  0.4408970000000 1.0
C      1  0.4645850000000  0.4850240000000  0.4942440000000 1.0
C      1  0.5111410000000  0.4270500000000  0.4888240000000 1.0
C      1  0.5000350000000  0.5322400000000  0.4568700000000 1.0
C      1  0.4711060000000  0.5624360000000  0.4578560000000 1.0
C      1  0.5536810000000  0.4902530000000  0.4470170000000 1.0
C      1  0.5753510000000  0.4802300000000  0.4927060000000 1.0
C      1  0.4589340000000  0.4334800000000  0.4892510000000 1.0
C      1  0.5087020000000  0.5032220000000  0.4240890000000 1.0
C      1  0.4704430000000  0.5122910000000  0.5941710000000 1.0
C      1  0.4830340000000  0.5181530000000  0.4216100000000 1.0
C      1  0.4820630000000  0.5438600000000  0.4366690000000 1.0
C      1  0.5616450000000  0.5466890000000  0.4933820000000 1.0
C      1  0.5060190000000  0.4637840000000  0.5817170000000 1.0
C      1  0.5048200000000  0.5549420000000  0.5613500000000 1.0
C      1  0.4848110000000  0.4237080000000  0.5019940000000 1.0
C      1  0.5156040000000  0.5254020000000  0.5250040000000 1.0
C      1  0.5046510000000  0.5264100000000  0.5587890000000 1.0
C      1  0.4503670000000  0.5515940000000  0.4748240000000 1.0
C      1  0.5616000000000  0.4474570000000  0.4677790000000 1.0
C      1  0.4390150000000  0.4879750000000  0.5402410000000 1.0
C      1  0.5355500000000  0.5096590000000  0.4348880000000 1.0
C      1  0.4938000000000  0.5032890000000  0.5996370000000 1.0
END
