TITL C-4164234-2335-253 1.20044377215775 125000 -9332.53978830365 0 0 64 (C1) n - 1
REM
REM in /home/nfs/bkarasulu/CARBON/AIRSS/Generating-Clusters/ReaxFF-fromJPCA2015/Units_Real/with-SteepDescent/Only-C1/SD-CG/Try1-3A/FIRE-CG
REM
REM
REM
REM
REM
REM ./C.cell (11c1c37f851c82e70ff6c80c92926a4b)
REM
REM compiler GCC version 9.2.1 20190827 (Red Hat 9.2.1-1)
REM options -cpp -mtune=generic -march=x86-64 -g -O0 -fpre-include=/usr/include/finclude/math-vector-fortran.h
REM seed -422609051 -880973538 586419558 870671954 -1504626806 -1037181078 1310289595 -1705497274 1967689691 -531543300 520642781 1057490024 -1806524627 -1536349865 -403093905 -564988772 1563953122 1710362921 1373290739 -255131871 -1905432391 -1150439831 -1094385514 -912310079 1249113808 22665651 -1626399882 758962630 1896123763 -1828275076 -402878121 -1519470585 -172609740
REM
CELL 1.54180   50.00000   50.00000   50.00000   90.00000   90.00000   90.00000
LATT -1
SFAC C  
C      1  0.4501560000000  0.4601980000000  0.5364950000000 1.0
C      1  0.5199860000000  0.5590680000000  0.4930390000000 1.0
C      1  0.4979340000000  0.5122030000000  0.4827630000000 1.0
C      1  0.4908690000000  0.5457210000000  0.4379100000000 1.0
C      1  0.5331470000000  0.5244080000000  0.5509680000000 1.0
C      1  0.4840300000000  0.4960460000000  0.4353160000000 1.0
C      1  0.5126490000000  0.5020930000000  0.5064100000000 1.0
C      1  0.4704130000000  0.4388650000000  0.5310330000000 1.0
C      1  0.4587470000000  0.4396130000000  0.4911550000000 1.0
C      1  0.4305100000000  0.4483910000000  0.4942590000000 1.0
C      1  0.4136940000000  0.4997660000000  0.5096140000000 1.0
C      1  0.5526620000000  0.5145890000000  0.4390630000000 1.0
C      1  0.5235580000000  0.4738500000000  0.5080330000000 1.0
C      1  0.4462280000000  0.5347710000000  0.5397060000000 1.0
C      1  0.5057820000000  0.5699260000000  0.4450980000000 1.0
C      1  0.4906660000000  0.5023300000000  0.5528170000000 1.0
C      1  0.4459000000000  0.4664220000000  0.4529700000000 1.0
C      1  0.5113740000000  0.5123090000000  0.5349420000000 1.0
C      1  0.4444510000000  0.4623270000000  0.5655110000000 1.0
C      1  0.5483160000000  0.5639560000000  0.5227340000000 1.0
C      1  0.5083030000000  0.4826000000000  0.4255630000000 1.0
C      1  0.5171860000000  0.4444240000000  0.5555160000000 1.0
C      1  0.5063200000000  0.4516540000000  0.4993070000000 1.0
C      1  0.5929950000000  0.5271440000000  0.5311150000000 1.0
C      1  0.5465670000000  0.5493660000000  0.4956900000000 1.0
C      1  0.4823320000000  0.4374810000000  0.5064500000000 1.0
C      1  0.4642430000000  0.5413930000000  0.4466390000000 1.0
C      1  0.4868000000000  0.4422640000000  0.5554060000000 1.0
C      1  0.4774640000000  0.5145040000000  0.5783140000000 1.0
C      1  0.4683650000000  0.5488630000000  0.5293580000000 1.0
C      1  0.4598940000000  0.5301320000000  0.5639460000000 1.0
C      1  0.4568830000000  0.4923890000000  0.4446370000000 1.0
C      1  0.5565600000000  0.5091960000000  0.5591410000000 1.0
C      1  0.4554380000000  0.4858620000000  0.5198950000000 1.0
C      1  0.5794230000000  0.5116360000000  0.5102560000000 1.0
C      1  0.5375620000000  0.5540760000000  0.5487750000000 1.0
C      1  0.4715220000000  0.4851220000000  0.4970400000000 1.0
C      1  0.5607310000000  0.5069580000000  0.4664130000000 1.0
C      1  0.5800650000000  0.5228240000000  0.5497930000000 1.0
C      1  0.5249930000000  0.5063110000000  0.4317600000000 1.0
C      1  0.5683300000000  0.4854030000000  0.5197870000000 1.0
C      1  0.4528220000000  0.5185220000000  0.4585150000000 1.0
C      1  0.4758910000000  0.5546440000000  0.4840220000000 1.0
C      1  0.5630450000000  0.5247300000000  0.4887810000000 1.0
C      1  0.5019590000000  0.5171080000000  0.4486880000000 1.0
C      1  0.5464250000000  0.5415450000000  0.4353490000000 1.0
C      1  0.5373640000000  0.4657040000000  0.4554480000000 1.0
C      1  0.5520180000000  0.4718490000000  0.5007040000000 1.0
C      1  0.5587130000000  0.4817990000000  0.5475460000000 1.0
C      1  0.4641760000000  0.4458190000000  0.4625470000000 1.0
C      1  0.4841650000000  0.5588330000000  0.5109390000000 1.0
C      1  0.5388090000000  0.4626100000000  0.5521670000000 1.0
C      1  0.4222020000000  0.4621530000000  0.4700210000000 1.0
C      1  0.4877760000000  0.4864320000000  0.5768040000000 1.0
C      1  0.4925320000000  0.4506490000000  0.4598150000000 1.0
C      1  0.4709110000000  0.5240100000000  0.4828950000000 1.0
C      1  0.4920360000000  0.4710340000000  0.4818940000000 1.0
C      1  0.4127720000000  0.4719900000000  0.4961280000000 1.0
C      1  0.4367080000000  0.5091400000000  0.5243170000000 1.0
C      1  0.5568960000000  0.4772870000000  0.4713160000000 1.0
C      1  0.4738620000000  0.4605670000000  0.5741400000000 1.0
C      1  0.5006010000000  0.5698510000000  0.4750290000000 1.0
C      1  0.5301260000000  0.5597300000000  0.4374540000000 1.0
C      1  0.5151450000000  0.4575440000000  0.4408450000000 1.0
END
