TITL C-4164237-1827-395 1.52612645690728 125000 -2445.03431365741 0 0 18 (C1) n - 1
REM
REM in /home/nfs/bkarasulu/CARBON/AIRSS/Generating-Clusters/ReaxFF-fromJPCA2015/Units_Real/with-SteepDescent/Only-C1/SD-CG/Try1-3A/FIRE-CG
REM
REM
REM
REM
REM
REM ./C.cell (11c1c37f851c82e70ff6c80c92926a4b)
REM
REM compiler GCC version 9.2.1 20190827 (Red Hat 9.2.1-1)
REM options -cpp -mtune=generic -march=x86-64 -g -O0 -fpre-include=/usr/include/finclude/math-vector-fortran.h
REM seed -1395871420 268160269 1174925933 836134013 1030610204 -30152468 -1567282914 1315668911 -404325336 1632183426 -286249567 1119730926 1216928647 565788167 2097964979 -1601896134 -855739254 -613359672 -772505041 2086765361 -1448734615 -1811362757 922352672 446168467 228425504 -351642028 -591371759 704976699 -1469445059 619559692 1925785421 -2057228853 1478999384
REM
CELL 1.54180   50.00000   50.00000   50.00000   90.00000   90.00000   90.00000
LATT -1
SFAC C  
C      1  0.4427750000000  0.4646530000000  0.4986140000000 1.0
C      1  0.5232620000000  0.4561920000000  0.5129870000000 1.0
C      1  0.5744080000000  0.5242100000000  0.4821960000000 1.0
C      1  0.4755500000000  0.5643270000000  0.4997580000000 1.0
C      1  0.5484440000000  0.4619140000000  0.5056990000000 1.0
C      1  0.5768190000000  0.4683840000000  0.4974710000000 1.0
C      1  0.4819500000000  0.4932300000000  0.5193580000000 1.0
C      1  0.4598430000000  0.5180460000000  0.4934970000000 1.0
C      1  0.4887430000000  0.5162380000000  0.5001630000000 1.0
C      1  0.5466190000000  0.5327110000000  0.4903590000000 1.0
C      1  0.4925840000000  0.4655950000000  0.5142890000000 1.0
C      1  0.5671620000000  0.4963620000000  0.4914980000000 1.0
C      1  0.4981050000000  0.5434360000000  0.5054690000000 1.0
C      1  0.5235320000000  0.5397730000000  0.4971410000000 1.0
C      1  0.4702010000000  0.4564170000000  0.5042600000000 1.0
C      1  0.4517170000000  0.5477890000000  0.4961040000000 1.0
C      1  0.4543720000000  0.4943190000000  0.5096230000000 1.0
C      1  0.4239150000000  0.4564050000000  0.4815140000000 1.0
END
