TITL C-4164246-3563-244 14.3171077587237 125000 -24499.2412148122 0 0 164 (C1) n - 1
REM
REM in /home/nfs/bkarasulu/CARBON/AIRSS/Generating-Clusters/ReaxFF-fromJPCA2015/Units_Real/with-SteepDescent/Only-C1/SD-CG/Try1-3A/FIRE-CG
REM
REM
REM
REM
REM
REM ./C.cell (11c1c37f851c82e70ff6c80c92926a4b)
REM
REM compiler GCC version 9.2.1 20190827 (Red Hat 9.2.1-1)
REM options -cpp -mtune=generic -march=x86-64 -g -O0 -fpre-include=/usr/include/finclude/math-vector-fortran.h
REM seed -1161843736 1998524823 -1411616486 1673813195 -1886365708 1960953294 1021132193 -550615612 -1397453534 1481249858 -123502540 -1190219401 198836612 557971753 250432740 -1964525217 646172616 1011086389 -1620014834 1047493288 -525866451 -1174932215 -1105739911 -839709878 -2058526718 1355192960 938931967 -1071844852 -1002946712 -2014138598 1446162924 -919819305 1712598493
REM
CELL 1.54180   50.00000   50.00000   50.00000   90.00000   90.00000   90.00000
LATT -1
SFAC C  
C      1  0.5295490000000  0.4598920000000  0.5311000000000 1.0
C      1  0.5191930000000  0.5037070000000  0.5966910000000 1.0
C      1  0.5194300000000  0.5496130000000  0.4549200000000 1.0
C      1  0.4008120000000  0.4707680000000  0.4630760000000 1.0
C      1  0.5634350000000  0.4942100000000  0.5854700000000 1.0
C      1  0.4731970000000  0.4069850000000  0.4420120000000 1.0
C      1  0.4445580000000  0.5601730000000  0.4392630000000 1.0
C      1  0.4351730000000  0.4531580000000  0.5554650000000 1.0
C      1  0.5447530000000  0.4187680000000  0.5283930000000 1.0
C      1  0.5708830000000  0.5337300000000  0.5510770000000 1.0
C      1  0.5113290000000  0.4307150000000  0.4648070000000 1.0
C      1  0.5347800000000  0.4835260000000  0.3956940000000 1.0
C      1  0.5126680000000  0.4254700000000  0.4185430000000 1.0
C      1  0.5862380000000  0.5491330000000  0.4361020000000 1.0
C      1  0.5251980000000  0.5758090000000  0.4863700000000 1.0
C      1  0.4806480000000  0.4254640000000  0.5691350000000 1.0
C      1  0.5179520000000  0.5099480000000  0.4605840000000 1.0
C      1  0.5825860000000  0.5710420000000  0.4559430000000 1.0
C      1  0.5046080000000  0.5325660000000  0.5991290000000 1.0
C      1  0.5469880000000  0.5390580000000  0.5654960000000 1.0
C      1  0.6014820000000  0.4755180000000  0.5271730000000 1.0
C      1  0.4349460000000  0.4824510000000  0.5579990000000 1.0
C      1  0.4803760000000  0.5283920000000  0.5900950000000 1.0
C      1  0.4445840000000  0.5089300000000  0.5008810000000 1.0
C      1  0.4904450000000  0.4720240000000  0.5222810000000 1.0
C      1  0.5381530000000  0.5899730000000  0.5645380000000 1.0
C      1  0.5014940000000  0.5291070000000  0.5277620000000 1.0
C      1  0.6059630000000  0.4559780000000  0.5047850000000 1.0
C      1  0.4734920000000  0.4481990000000  0.5252420000000 1.0
C      1  0.4250010000000  0.5704460000000  0.5353000000000 1.0
C      1  0.4950310000000  0.4432310000000  0.5884880000000 1.0
C      1  0.5275870000000  0.5124510000000  0.5636980000000 1.0
C      1  0.4996510000000  0.3947820000000  0.5316520000000 1.0
C      1  0.5021450000000  0.5394910000000  0.4098600000000 1.0
C      1  0.4473190000000  0.5404790000000  0.4182900000000 1.0
C      1  0.5225750000000  0.5324300000000  0.4779070000000 1.0
C      1  0.4772680000000  0.5371620000000  0.4775420000000 1.0
C      1  0.5529530000000  0.4471470000000  0.4791470000000 1.0
C      1  0.5729570000000  0.5022750000000  0.5595560000000 1.0
C      1  0.4101460000000  0.5083990000000  0.4951130000000 1.0
C      1  0.5583380000000  0.5403240000000  0.4282960000000 1.0
C      1  0.5023150000000  0.4110920000000  0.4410910000000 1.0
C      1  0.5067950000000  0.4753280000000  0.4969290000000 1.0
C      1  0.5206430000000  0.5272210000000  0.5068070000000 1.0
C      1  0.3970030000000  0.4922210000000  0.5175150000000 1.0
C      1  0.5513930000000  0.5958350000000  0.5405490000000 1.0
C      1  0.5109410000000  0.5943740000000  0.5542860000000 1.0
C      1  0.5685980000000  0.5337410000000  0.5217140000000 1.0
C      1  0.4731070000000  0.5387230000000  0.5269720000000 1.0
C      1  0.5015370000000  0.5449810000000  0.4359180000000 1.0
C      1  0.4261190000000  0.5692730000000  0.4851110000000 1.0
C      1  0.5505670000000  0.4949560000000  0.4910420000000 1.0
C      1  0.5088290000000  0.4589360000000  0.4544750000000 1.0
C      1  0.5233690000000  0.4382050000000  0.5953240000000 1.0
C      1  0.4883670000000  0.5082540000000  0.4637950000000 1.0
C      1  0.5761270000000  0.4583120000000  0.4599990000000 1.0
C      1  0.4139580000000  0.5599620000000  0.5092250000000 1.0
C      1  0.5092510000000  0.5587880000000  0.5866430000000 1.0
C      1  0.5930340000000  0.5114210000000  0.4645920000000 1.0
C      1  0.6037240000000  0.5522600000000  0.5031620000000 1.0
C      1  0.4656230000000  0.5968180000000  0.4669070000000 1.0
C      1  0.4858310000000  0.6085450000000  0.5070460000000 1.0
C      1  0.4496740000000  0.4678860000000  0.4765950000000 1.0
C      1  0.5524020000000  0.5895980000000  0.4907640000000 1.0
C      1  0.5291920000000  0.5116580000000  0.4001780000000 1.0
C      1  0.4365930000000  0.5060070000000  0.5984830000000 1.0
C      1  0.5783850000000  0.4703530000000  0.5463830000000 1.0
C      1  0.5347350000000  0.4450350000000  0.4224120000000 1.0
C      1  0.5459520000000  0.4986210000000  0.5450730000000 1.0
C      1  0.3974520000000  0.4592770000000  0.4890020000000 1.0
C      1  0.5582500000000  0.4642860000000  0.5254890000000 1.0
C      1  0.5411920000000  0.6000150000000  0.5162750000000 1.0
C      1  0.5532560000000  0.4631250000000  0.4087460000000 1.0
C      1  0.4587180000000  0.5999410000000  0.5125330000000 1.0
C      1  0.5518160000000  0.4263930000000  0.5562430000000 1.0
C      1  0.5273220000000  0.3944770000000  0.5182410000000 1.0
C      1  0.5424570000000  0.5598610000000  0.4414320000000 1.0
C      1  0.5631180000000  0.4496620000000  0.5671980000000 1.0
C      1  0.5064290000000  0.5693390000000  0.5071350000000 1.0
C      1  0.5201270000000  0.4539670000000  0.5573750000000 1.0
C      1  0.4883130000000  0.4891350000000  0.5474860000000 1.0
C      1  0.5090670000000  0.5958900000000  0.5229290000000 1.0
C      1  0.5431730000000  0.5096900000000  0.5172360000000 1.0
C      1  0.5806120000000  0.5658510000000  0.4856070000000 1.0
C      1  0.4764230000000  0.4332080000000  0.5007840000000 1.0
C      1  0.4544400000000  0.5177890000000  0.5267380000000 1.0
C      1  0.4903660000000  0.6077950000000  0.4784170000000 1.0
C      1  0.5368110000000  0.5627520000000  0.5778430000000 1.0
C      1  0.3990520000000  0.4629270000000  0.5171000000000 1.0
C      1  0.5001220000000  0.5681420000000  0.4041320000000 1.0
C      1  0.4613520000000  0.4389630000000  0.5509920000000 1.0
C      1  0.4989130000000  0.4684080000000  0.5717000000000 1.0
C      1  0.5465130000000  0.4567900000000  0.5903800000000 1.0
C      1  0.5352920000000  0.4959110000000  0.4421820000000 1.0
C      1  0.5454510000000  0.6043360000000  0.4652170000000 1.0
C      1  0.6068720000000  0.4994930000000  0.5123640000000 1.0
C      1  0.5647120000000  0.5415110000000  0.4921710000000 1.0
C      1  0.5440820000000  0.4859840000000  0.6021300000000 1.0
C      1  0.4575390000000  0.5013860000000  0.5511070000000 1.0
C      1  0.4187760000000  0.5005100000000  0.5742860000000 1.0
C      1  0.4458550000000  0.5905360000000  0.4872360000000 1.0
C      1  0.4857080000000  0.4376880000000  0.4134530000000 1.0
C      1  0.5700410000000  0.4640070000000  0.4330100000000 1.0
C      1  0.5032480000000  0.4315400000000  0.4949380000000 1.0
C      1  0.4909850000000  0.4606660000000  0.4314430000000 1.0
C      1  0.4630070000000  0.5824990000000  0.4412670000000 1.0
C      1  0.4863740000000  0.4910690000000  0.4868160000000 1.0
C      1  0.4984000000000  0.4829570000000  0.6001410000000 1.0
C      1  0.4317290000000  0.4944700000000  0.4054070000000 1.0
C      1  0.4482440000000  0.5886570000000  0.5375980000000 1.0
C      1  0.5255300000000  0.4235870000000  0.5688380000000 1.0
C      1  0.4573140000000  0.5507280000000  0.5532510000000 1.0
C      1  0.5991360000000  0.4665700000000  0.4772110000000 1.0
C      1  0.4738510000000  0.3839530000000  0.4898090000000 1.0
C      1  0.4550850000000  0.4747120000000  0.4502720000000 1.0
C      1  0.4655630000000  0.5774490000000  0.5594990000000 1.0
C      1  0.5581210000000  0.5841250000000  0.4479430000000 1.0
C      1  0.4303410000000  0.5476980000000  0.4627070000000 1.0
C      1  0.4160500000000  0.5202550000000  0.4486450000000 1.0
C      1  0.4306160000000  0.4207550000000  0.5288560000000 1.0
C      1  0.4827110000000  0.5536190000000  0.5010410000000 1.0
C      1  0.5645170000000  0.4392030000000  0.5091300000000 1.0
C      1  0.4827330000000  0.4873020000000  0.4155980000000 1.0
C      1  0.4500760000000  0.5299060000000  0.4786670000000 1.0
C      1  0.4616070000000  0.4279710000000  0.4265550000000 1.0
C      1  0.4932230000000  0.5785950000000  0.5698810000000 1.0
C      1  0.4465620000000  0.4023770000000  0.5146510000000 1.0
C      1  0.4280620000000  0.5178320000000  0.4230590000000 1.0
C      1  0.4572020000000  0.4829820000000  0.3996900000000 1.0
C      1  0.4282850000000  0.5482700000000  0.5543020000000 1.0
C      1  0.4365320000000  0.4674350000000  0.4086500000000 1.0
C      1  0.5997280000000  0.5288330000000  0.5195460000000 1.0
C      1  0.4182020000000  0.4484450000000  0.4544970000000 1.0
C      1  0.5226780000000  0.4356450000000  0.5163570000000 1.0
C      1  0.4413130000000  0.4519720000000  0.4328110000000 1.0
C      1  0.4512530000000  0.4186780000000  0.4873970000000 1.0
C      1  0.4735020000000  0.5372150000000  0.4074390000000 1.0
C      1  0.5043590000000  0.5118840000000  0.5483850000000 1.0
C      1  0.5335520000000  0.4722350000000  0.4839200000000 1.0
C      1  0.5469590000000  0.5141590000000  0.4227290000000 1.0
C      1  0.5338810000000  0.4019560000000  0.4921540000000 1.0
C      1  0.5088020000000  0.4926450000000  0.3987900000000 1.0
C      1  0.4738500000000  0.3883640000000  0.5174810000000 1.0
C      1  0.5395710000000  0.4209990000000  0.4725670000000 1.0
C      1  0.4114610000000  0.5237580000000  0.5576570000000 1.0
C      1  0.4718510000000  0.4851610000000  0.6096410000000 1.0
C      1  0.3958600000000  0.5172720000000  0.5338200000000 1.0
C      1  0.4482750000000  0.4877800000000  0.6166680000000 1.0
C      1  0.4726160000000  0.4955820000000  0.4422740000000 1.0
C      1  0.4007020000000  0.5336320000000  0.5100760000000 1.0
C      1  0.4329740000000  0.4429520000000  0.4786110000000 1.0
C      1  0.5655430000000  0.5161980000000  0.4778850000000 1.0
C      1  0.4160340000000  0.4437250000000  0.5352990000000 1.0
C      1  0.4572250000000  0.5175450000000  0.5805400000000 1.0
C      1  0.4838750000000  0.5794050000000  0.4216840000000 1.0
C      1  0.5170030000000  0.5979890000000  0.4691820000000 1.0
C      1  0.5935120000000  0.4292940000000  0.5096700000000 1.0
C      1  0.4998620000000  0.4081160000000  0.5565520000000 1.0
C      1  0.6082130000000  0.4929080000000  0.4835160000000 1.0
C      1  0.6022820000000  0.5281160000000  0.4457940000000 1.0
C      1  0.4623730000000  0.3970540000000  0.4683600000000 1.0
C      1  0.4055510000000  0.5008570000000  0.4657520000000 1.0
C      1  0.4611230000000  0.4850570000000  0.4972410000000 1.0
C      1  0.5313370000000  0.4670180000000  0.4418030000000 1.0
END
