TITL C-4164237-1827-196 63.8919525448963 125000 -16710.8839346801 0 0 114 (C1) n - 1
REM
REM in /home/nfs/bkarasulu/CARBON/AIRSS/Generating-Clusters/ReaxFF-fromJPCA2015/Units_Real/with-SteepDescent/Only-C1/SD-CG/Try1-3A/FIRE-CG
REM
REM
REM
REM
REM
REM ./C.cell (11c1c37f851c82e70ff6c80c92926a4b)
REM
REM compiler GCC version 9.2.1 20190827 (Red Hat 9.2.1-1)
REM options -cpp -mtune=generic -march=x86-64 -g -O0 -fpre-include=/usr/include/finclude/math-vector-fortran.h
REM seed 601482329 -1238788161 1767329683 -537956050 -2144307127 -563559047 818788252 1992616257 920559086 209906409 -752441573 1364465149 -1099963291 1057758185 1046885045 1477777201 769357085 -1228133638 -285873502 155660843 1508221628 1428404338 -111699569 -339408642 1659606383 -1991339008 2080197657 2139650498 1288443561 297365446 -469874250 -446411931 866583693
REM
CELL 1.54180   50.00000   50.00000   50.00000   90.00000   90.00000   90.00000
LATT -1
SFAC C  
C      1  0.4390980000000  0.5655760000000  0.5266610000000 1.0
C      1  0.4527130000000  0.4845710000000  0.5054880000000 1.0
C      1  0.5346250000000  0.5211280000000  0.4739610000000 1.0
C      1  0.5392700000000  0.4929980000000  0.5679190000000 1.0
C      1  0.5115190000000  0.5769450000000  0.5534400000000 1.0
C      1  0.5694600000000  0.5449260000000  0.4728860000000 1.0
C      1  0.4053830000000  0.4926110000000  0.4787590000000 1.0
C      1  0.5161560000000  0.5442780000000  0.5848780000000 1.0
C      1  0.4451840000000  0.5591070000000  0.4745940000000 1.0
C      1  0.4835440000000  0.4534090000000  0.4008900000000 1.0
C      1  0.5233190000000  0.4739540000000  0.4679650000000 1.0
C      1  0.5493920000000  0.4366950000000  0.5390880000000 1.0
C      1  0.5684480000000  0.4423510000000  0.4977080000000 1.0
C      1  0.4964060000000  0.5172230000000  0.5026730000000 1.0
C      1  0.4993060000000  0.4999040000000  0.5426070000000 1.0
C      1  0.5234720000000  0.5684490000000  0.4592820000000 1.0
C      1  0.4331070000000  0.4403050000000  0.5445390000000 1.0
C      1  0.4946310000000  0.5712170000000  0.4627840000000 1.0
C      1  0.4994960000000  0.5131060000000  0.4365080000000 1.0
C      1  0.5198290000000  0.4714970000000  0.4967880000000 1.0
C      1  0.5303790000000  0.5439120000000  0.4044300000000 1.0
C      1  0.4578230000000  0.5062750000000  0.4862990000000 1.0
C      1  0.4801060000000  0.5573290000000  0.5233580000000 1.0
C      1  0.4736000000000  0.5337090000000  0.4096720000000 1.0
C      1  0.4232240000000  0.4606860000000  0.5501220000000 1.0
C      1  0.4440800000000  0.5492850000000  0.5496050000000 1.0
C      1  0.5384050000000  0.4605010000000  0.4121520000000 1.0
C      1  0.4227370000000  0.5152070000000  0.5171070000000 1.0
C      1  0.5180250000000  0.5982530000000  0.4948960000000 1.0
C      1  0.4854770000000  0.5096030000000  0.5884600000000 1.0
C      1  0.5674960000000  0.5401930000000  0.5436940000000 1.0
C      1  0.5764290000000  0.5137110000000  0.5471390000000 1.0
C      1  0.5697390000000  0.4943330000000  0.5201100000000 1.0
C      1  0.4353680000000  0.4495350000000  0.4845850000000 1.0
C      1  0.4152700000000  0.5191710000000  0.4898160000000 1.0
C      1  0.4974750000000  0.4528360000000  0.5044010000000 1.0
C      1  0.4447110000000  0.5750560000000  0.4999040000000 1.0
C      1  0.4936620000000  0.4551730000000  0.5768670000000 1.0
C      1  0.4463940000000  0.5225110000000  0.5348390000000 1.0
C      1  0.4627480000000  0.4779970000000  0.5617720000000 1.0
C      1  0.4603760000000  0.4668900000000  0.4072080000000 1.0
C      1  0.4675900000000  0.5599740000000  0.4552880000000 1.0
C      1  0.5267780000000  0.4284290000000  0.5500780000000 1.0
C      1  0.4591430000000  0.4530660000000  0.4682210000000 1.0
C      1  0.5103800000000  0.4596870000000  0.4181450000000 1.0
C      1  0.4972440000000  0.5982050000000  0.5418420000000 1.0
C      1  0.4690020000000  0.4497260000000  0.5637760000000 1.0
C      1  0.5042220000000  0.5312580000000  0.4161560000000 1.0
C      1  0.5723160000000  0.4450780000000  0.5279420000000 1.0
C      1  0.5321600000000  0.5682070000000  0.5355980000000 1.0
C      1  0.4157420000000  0.4691860000000  0.4934190000000 1.0
C      1  0.5359590000000  0.4980260000000  0.4576700000000 1.0
C      1  0.5222090000000  0.4273430000000  0.4517680000000 1.0
C      1  0.5762030000000  0.4726750000000  0.5395660000000 1.0
C      1  0.4552950000000  0.4390040000000  0.5283030000000 1.0
C      1  0.4237520000000  0.5050280000000  0.4304000000000 1.0
C      1  0.4650590000000  0.4135180000000  0.4975750000000 1.0
C      1  0.4778910000000  0.5297810000000  0.5248210000000 1.0
C      1  0.4494540000000  0.4862970000000  0.4249880000000 1.0
C      1  0.4324050000000  0.5312020000000  0.4416350000000 1.0
C      1  0.4218860000000  0.4858720000000  0.5180270000000 1.0
C      1  0.5031770000000  0.4340840000000  0.5296500000000 1.0
C      1  0.5754650000000  0.4647890000000  0.4805220000000 1.0
C      1  0.5376710000000  0.5225960000000  0.5868040000000 1.0
C      1  0.5670640000000  0.4517900000000  0.4548160000000 1.0
C      1  0.4574550000000  0.5444510000000  0.4334840000000 1.0
C      1  0.4811790000000  0.4329950000000  0.4817890000000 1.0
C      1  0.5438070000000  0.5450660000000  0.4557610000000 1.0
C      1  0.4871890000000  0.4951970000000  0.4547410000000 1.0
C      1  0.5645330000000  0.4638740000000  0.4281800000000 1.0
C      1  0.4969030000000  0.5575300000000  0.5689940000000 1.0
C      1  0.4658460000000  0.4746950000000  0.4503310000000 1.0
C      1  0.4802190000000  0.4025330000000  0.5196360000000 1.0
C      1  0.4648620000000  0.5071150000000  0.4047020000000 1.0
C      1  0.4258640000000  0.5377680000000  0.4699620000000 1.0
C      1  0.5437790000000  0.5453930000000  0.5240770000000 1.0
C      1  0.4449880000000  0.5013410000000  0.5590900000000 1.0
C      1  0.4921130000000  0.5888720000000  0.4849320000000 1.0
C      1  0.5509140000000  0.4274310000000  0.4593370000000 1.0
C      1  0.4773670000000  0.4245550000000  0.5401670000000 1.0
C      1  0.5510970000000  0.4206530000000  0.4873630000000 1.0
C      1  0.4196730000000  0.4879050000000  0.5488080000000 1.0
C      1  0.5797740000000  0.4921960000000  0.4913650000000 1.0
C      1  0.5758330000000  0.4913730000000  0.4280060000000 1.0
C      1  0.5838220000000  0.5178120000000  0.4756650000000 1.0
C      1  0.4833480000000  0.5165720000000  0.4748790000000 1.0
C      1  0.4692420000000  0.5909840000000  0.5024240000000 1.0
C      1  0.4952650000000  0.4907640000000  0.5156170000000 1.0
C      1  0.5487860000000  0.5037480000000  0.4306560000000 1.0
C      1  0.4416490000000  0.4292890000000  0.5055710000000 1.0
C      1  0.4758440000000  0.4701080000000  0.5156190000000 1.0
C      1  0.5417220000000  0.4652980000000  0.5799070000000 1.0
C      1  0.5288040000000  0.5218200000000  0.5027650000000 1.0
C      1  0.5629100000000  0.5277590000000  0.5691370000000 1.0
C      1  0.4746110000000  0.5852150000000  0.5292190000000 1.0
C      1  0.5387240000000  0.5834300000000  0.4782410000000 1.0
C      1  0.5240350000000  0.4094440000000  0.4938530000000 1.0
C      1  0.5634400000000  0.4766700000000  0.5652520000000 1.0
C      1  0.5371150000000  0.4949110000000  0.5149480000000 1.0
C      1  0.5855580000000  0.5032580000000  0.4516480000000 1.0
C      1  0.4107940000000  0.4951850000000  0.4516840000000 1.0
C      1  0.4627820000000  0.5229620000000  0.5776200000000 1.0
C      1  0.5469410000000  0.5328820000000  0.4257740000000 1.0
C      1  0.5530260000000  0.5716060000000  0.5154810000000 1.0
C      1  0.5172190000000  0.6030380000000  0.5228740000000 1.0
C      1  0.5266610000000  0.4966950000000  0.5419930000000 1.0
C      1  0.4884210000000  0.4880300000000  0.5686070000000 1.0
C      1  0.5130350000000  0.4550460000000  0.4471560000000 1.0
C      1  0.5095890000000  0.5218130000000  0.5963920000000 1.0
C      1  0.5210770000000  0.4458440000000  0.5747160000000 1.0
C      1  0.5092740000000  0.4073500000000  0.5190040000000 1.0
C      1  0.5056400000000  0.4170240000000  0.4727770000000 1.0
C      1  0.5626000000000  0.5684430000000  0.4883490000000 1.0
C      1  0.4687200000000  0.5488190000000  0.5685800000000 1.0
END
