TITL C-4164238-4211-604 22.8028460666432 125000 -20547.4986944043 0 0 139 (C1) n - 1
REM
REM in /home/nfs/bkarasulu/CARBON/AIRSS/Generating-Clusters/ReaxFF-fromJPCA2015/Units_Real/with-SteepDescent/Only-C1/SD-CG/Try1-3A/FIRE-CG
REM
REM
REM
REM
REM
REM ./C.cell (11c1c37f851c82e70ff6c80c92926a4b)
REM
REM compiler GCC version 9.2.1 20190827 (Red Hat 9.2.1-1)
REM options -cpp -mtune=generic -march=x86-64 -g -O0 -fpre-include=/usr/include/finclude/math-vector-fortran.h
REM seed 358003379 -579380835 -885494359 -344730957 -558431282 -1583340130 119562747 1419300635 908184105 -1753193063 -229420312 958997545 1891281268 1600540595 1768298771 -1554836092 -1788662781 2011001606 16238924 -915371043 -378450796 -1644327883 -151504317 1282539148 -356739255 -950035983 -475653696 1368119118 1183379445 -1053936704 1854485697 18642021 -1128300877
REM
CELL 1.54180   50.00000   50.00000   50.00000   90.00000   90.00000   90.00000
LATT -1
SFAC C  
C      1  0.5221110000000  0.5855830000000  0.5336160000000 1.0
C      1  0.4274970000000  0.5097480000000  0.5506760000000 1.0
C      1  0.5585360000000  0.4939330000000  0.5180920000000 1.0
C      1  0.4979820000000  0.4209650000000  0.4576090000000 1.0
C      1  0.5821400000000  0.4434060000000  0.4720330000000 1.0
C      1  0.5339240000000  0.4603710000000  0.5499370000000 1.0
C      1  0.5239680000000  0.4885130000000  0.4667750000000 1.0
C      1  0.4920850000000  0.4309500000000  0.5663050000000 1.0
C      1  0.4900460000000  0.4547010000000  0.5837680000000 1.0
C      1  0.4775020000000  0.5546570000000  0.4117870000000 1.0
C      1  0.4738270000000  0.5084320000000  0.4120610000000 1.0
C      1  0.4008190000000  0.5109210000000  0.4686150000000 1.0
C      1  0.5104880000000  0.5781960000000  0.5595490000000 1.0
C      1  0.4409090000000  0.5642780000000  0.5686230000000 1.0
C      1  0.5214740000000  0.4165400000000  0.4429400000000 1.0
C      1  0.4370750000000  0.5743380000000  0.5432780000000 1.0
C      1  0.5703020000000  0.4717290000000  0.4655200000000 1.0
C      1  0.4464880000000  0.5433520000000  0.5859560000000 1.0
C      1  0.5717860000000  0.4921700000000  0.4891480000000 1.0
C      1  0.5120000000000  0.4362940000000  0.5443930000000 1.0
C      1  0.5734720000000  0.4952910000000  0.4417970000000 1.0
C      1  0.4541980000000  0.4905790000000  0.4133510000000 1.0
C      1  0.5626040000000  0.4250980000000  0.4673100000000 1.0
C      1  0.4425920000000  0.5408850000000  0.4485760000000 1.0
C      1  0.4104450000000  0.5103650000000  0.4243780000000 1.0
C      1  0.5407400000000  0.5107610000000  0.4240420000000 1.0
C      1  0.5391120000000  0.4697860000000  0.5186350000000 1.0
C      1  0.5463260000000  0.5055250000000  0.4771550000000 1.0
C      1  0.5575370000000  0.5548490000000  0.4612450000000 1.0
C      1  0.4380630000000  0.5246390000000  0.5002770000000 1.0
C      1  0.4173740000000  0.5559710000000  0.5307310000000 1.0
C      1  0.5194620000000  0.5444890000000  0.4925670000000 1.0
C      1  0.4783180000000  0.5451420000000  0.5189520000000 1.0
C      1  0.4154550000000  0.5275130000000  0.4454890000000 1.0
C      1  0.4775470000000  0.4962270000000  0.5376450000000 1.0
C      1  0.5390330000000  0.5713160000000  0.5708750000000 1.0
C      1  0.4619420000000  0.5329360000000  0.4221310000000 1.0
C      1  0.5624870000000  0.4536850000000  0.5561700000000 1.0
C      1  0.5205740000000  0.5948830000000  0.4917400000000 1.0
C      1  0.4169860000000  0.4835740000000  0.4316630000000 1.0
C      1  0.6006030000000  0.4925500000000  0.5007120000000 1.0
C      1  0.4446090000000  0.4685240000000  0.5786580000000 1.0
C      1  0.5286800000000  0.4889850000000  0.5903100000000 1.0
C      1  0.5977380000000  0.5121150000000  0.5222980000000 1.0
C      1  0.5021450000000  0.5965180000000  0.5126200000000 1.0
C      1  0.5012610000000  0.4795940000000  0.5972730000000 1.0
C      1  0.5178470000000  0.5324180000000  0.5865090000000 1.0
C      1  0.4722420000000  0.4085690000000  0.5291740000000 1.0
C      1  0.5424620000000  0.4047790000000  0.5141810000000 1.0
C      1  0.5071000000000  0.3917500000000  0.4979050000000 1.0
C      1  0.5892760000000  0.5376850000000  0.4776250000000 1.0
C      1  0.4967170000000  0.4633080000000  0.4252480000000 1.0
C      1  0.5332440000000  0.4534740000000  0.4943910000000 1.0
C      1  0.5764170000000  0.5022830000000  0.5427630000000 1.0
C      1  0.4409450000000  0.5698170000000  0.4645150000000 1.0
C      1  0.4379660000000  0.5157810000000  0.5778340000000 1.0
C      1  0.4335310000000  0.4362990000000  0.4598000000000 1.0
C      1  0.4699820000000  0.4723810000000  0.4837940000000 1.0
C      1  0.4291970000000  0.4827500000000  0.4591440000000 1.0
C      1  0.4403810000000  0.4226150000000  0.4853860000000 1.0
C      1  0.5405320000000  0.5337110000000  0.4795140000000 1.0
C      1  0.5655730000000  0.4282900000000  0.5412340000000 1.0
C      1  0.5349980000000  0.5709820000000  0.4498920000000 1.0
C      1  0.4910230000000  0.5279680000000  0.5971110000000 1.0
C      1  0.4268890000000  0.4802160000000  0.5119760000000 1.0
C      1  0.4753760000000  0.5159500000000  0.5160150000000 1.0
C      1  0.4050190000000  0.5633910000000  0.5054750000000 1.0
C      1  0.5231860000000  0.4851760000000  0.5620710000000 1.0
C      1  0.5337730000000  0.3935740000000  0.4894910000000 1.0
C      1  0.5187020000000  0.4911690000000  0.5192660000000 1.0
C      1  0.4996580000000  0.5546190000000  0.5048360000000 1.0
C      1  0.4288360000000  0.4586790000000  0.5551740000000 1.0
C      1  0.4809070000000  0.5002780000000  0.5986140000000 1.0
C      1  0.4525380000000  0.4946370000000  0.5904140000000 1.0
C      1  0.4969190000000  0.4794610000000  0.4860010000000 1.0
C      1  0.5413510000000  0.4645060000000  0.4690600000000 1.0
C      1  0.4893080000000  0.5745700000000  0.4330440000000 1.0
C      1  0.5385840000000  0.4180030000000  0.5362010000000 1.0
C      1  0.5584330000000  0.5770840000000  0.4998290000000 1.0
C      1  0.5166410000000  0.4414370000000  0.4262640000000 1.0
C      1  0.6099340000000  0.4660520000000  0.5087230000000 1.0
C      1  0.4215580000000  0.4830050000000  0.5419370000000 1.0
C      1  0.5485840000000  0.5742030000000  0.5281740000000 1.0
C      1  0.4671010000000  0.4118420000000  0.4830460000000 1.0
C      1  0.4720120000000  0.4622660000000  0.4417760000000 1.0
C      1  0.5491400000000  0.5611170000000  0.4232930000000 1.0
C      1  0.5577670000000  0.5249020000000  0.5601720000000 1.0
C      1  0.4797740000000  0.3943250000000  0.5054560000000 1.0
C      1  0.4670150000000  0.5710300000000  0.5350730000000 1.0
C      1  0.4486900000000  0.4463150000000  0.4361260000000 1.0
C      1  0.5045290000000  0.4515820000000  0.4975400000000 1.0
C      1  0.5433100000000  0.4079480000000  0.4625440000000 1.0
C      1  0.4836380000000  0.5687020000000  0.5630500000000 1.0
C      1  0.4383280000000  0.4672690000000  0.4171070000000 1.0
C      1  0.5416130000000  0.5873920000000  0.4773460000000 1.0
C      1  0.4984490000000  0.5289840000000  0.4521800000000 1.0
C      1  0.5826540000000  0.4738450000000  0.5517590000000 1.0
C      1  0.4570220000000  0.4753450000000  0.5089020000000 1.0
C      1  0.4745400000000  0.5857800000000  0.5095150000000 1.0
C      1  0.4733250000000  0.4664240000000  0.5314750000000 1.0
C      1  0.4296600000000  0.5293980000000  0.5285090000000 1.0
C      1  0.5804310000000  0.5220740000000  0.4495770000000 1.0
C      1  0.4611720000000  0.4850830000000  0.4599490000000 1.0
C      1  0.4752990000000  0.5155560000000  0.4630400000000 1.0
C      1  0.5072590000000  0.5572280000000  0.4490900000000 1.0
C      1  0.5036130000000  0.5529290000000  0.4011430000000 1.0
C      1  0.5001530000000  0.5017360000000  0.5539450000000 1.0
C      1  0.4759640000000  0.5505460000000  0.5853060000000 1.0
C      1  0.5034160000000  0.4916610000000  0.4155080000000 1.0
C      1  0.4172390000000  0.5424840000000  0.4894970000000 1.0
C      1  0.5281110000000  0.5551250000000  0.4062230000000 1.0
C      1  0.5092060000000  0.5286020000000  0.5588540000000 1.0
C      1  0.4995650000000  0.5031700000000  0.5030880000000 1.0
C      1  0.4660410000000  0.4223430000000  0.5509950000000 1.0
C      1  0.4531380000000  0.5294400000000  0.4747670000000 1.0
C      1  0.5415460000000  0.5151400000000  0.5838990000000 1.0
C      1  0.4188270000000  0.4581380000000  0.4715060000000 1.0
C      1  0.4158130000000  0.5700440000000  0.4785000000000 1.0
C      1  0.4626330000000  0.5828850000000  0.4801320000000 1.0
C      1  0.5903770000000  0.4327050000000  0.5250480000000 1.0
C      1  0.4959050000000  0.4497770000000  0.5242240000000 1.0
C      1  0.5785600000000  0.5640380000000  0.4829550000000 1.0
C      1  0.5314160000000  0.4933330000000  0.4046580000000 1.0
C      1  0.4057430000000  0.4943860000000  0.4911180000000 1.0
C      1  0.5355510000000  0.5126860000000  0.5190150000000 1.0
C      1  0.4835030000000  0.4356850000000  0.4761990000000 1.0
C      1  0.5972030000000  0.4417110000000  0.4975730000000 1.0
C      1  0.4697670000000  0.4640730000000  0.5655640000000 1.0
C      1  0.4160060000000  0.4553600000000  0.5006110000000 1.0
C      1  0.4408600000000  0.4360680000000  0.5396190000000 1.0
C      1  0.5939310000000  0.5329590000000  0.5038560000000 1.0
C      1  0.5578930000000  0.4903190000000  0.4175640000000 1.0
C      1  0.5582520000000  0.5590330000000  0.5525950000000 1.0
C      1  0.4310130000000  0.4332860000000  0.5118410000000 1.0
C      1  0.5335670000000  0.5291680000000  0.5432320000000 1.0
C      1  0.6018730000000  0.4576490000000  0.5363100000000 1.0
C      1  0.5705110000000  0.5449230000000  0.4352250000000 1.0
C      1  0.5163190000000  0.5069880000000  0.4403920000000 1.0
C      1  0.4778670000000  0.5854480000000  0.4566470000000 1.0
END
