TITL C-4164242-3624-598 27.8818106777389 125000 -20011.5861136662 0 0 133 (C1) n - 1
REM
REM in /home/nfs/bkarasulu/CARBON/AIRSS/Generating-Clusters/ReaxFF-fromJPCA2015/Units_Real/with-SteepDescent/Only-C1/SD-CG/Try1-3A/FIRE-CG
REM
REM
REM
REM
REM
REM ./C.cell (11c1c37f851c82e70ff6c80c92926a4b)
REM
REM compiler GCC version 9.2.1 20190827 (Red Hat 9.2.1-1)
REM options -cpp -mtune=generic -march=x86-64 -g -O0 -fpre-include=/usr/include/finclude/math-vector-fortran.h
REM seed 1759498471 -940324666 -930752787 -54078372 701164962 974594803 663314020 2012895602 922007853 1190704745 -1412501899 1149303071 -414051890 2097987584 -1202096580 -1973796706 1255407153 1310960909 58234974 -2123011024 1465797766 -2065046541 -1125619261 -2035111491 -1901216022 -1458319328 1643589338 586967552 -1666077988 -1021976735 314656352 1800162695 -1823282303
REM
CELL 1.54180   50.00000   50.00000   50.00000   90.00000   90.00000   90.00000
LATT -1
SFAC C  
C      1  0.5603020000000  0.4674070000000  0.5360650000000 1.0
C      1  0.5982460000000  0.5206430000000  0.4721400000000 1.0
C      1  0.4834780000000  0.4403220000000  0.4892760000000 1.0
C      1  0.5264910000000  0.4252870000000  0.4644640000000 1.0
C      1  0.4130440000000  0.4466670000000  0.5349960000000 1.0
C      1  0.4521830000000  0.5509960000000  0.5783100000000 1.0
C      1  0.5065270000000  0.5282100000000  0.4415630000000 1.0
C      1  0.5934860000000  0.5159170000000  0.5008060000000 1.0
C      1  0.4399170000000  0.4493300000000  0.5711490000000 1.0
C      1  0.6002050000000  0.4905650000000  0.5172450000000 1.0
C      1  0.4961970000000  0.5267740000000  0.5422740000000 1.0
C      1  0.5467670000000  0.4986700000000  0.4016080000000 1.0
C      1  0.4782520000000  0.4269890000000  0.5491070000000 1.0
C      1  0.3999760000000  0.5081990000000  0.5100840000000 1.0
C      1  0.5547930000000  0.4390410000000  0.5492250000000 1.0
C      1  0.4716660000000  0.4866390000000  0.4539350000000 1.0
C      1  0.5660810000000  0.5238260000000  0.4996110000000 1.0
C      1  0.5684090000000  0.4611960000000  0.4315700000000 1.0
C      1  0.5217290000000  0.4837310000000  0.3937710000000 1.0
C      1  0.4032650000000  0.5261580000000  0.4864230000000 1.0
C      1  0.4674360000000  0.5727500000000  0.4358730000000 1.0
C      1  0.4874500000000  0.4765830000000  0.5534820000000 1.0
C      1  0.5776080000000  0.5166990000000  0.4359210000000 1.0
C      1  0.4634710000000  0.4601590000000  0.4901150000000 1.0
C      1  0.5396920000000  0.5143680000000  0.5288650000000 1.0
C      1  0.4863660000000  0.5023060000000  0.6074150000000 1.0
C      1  0.4392340000000  0.4584240000000  0.4714850000000 1.0
C      1  0.5551470000000  0.5510700000000  0.4959450000000 1.0
C      1  0.5355510000000  0.5165570000000  0.5892140000000 1.0
C      1  0.5477320000000  0.4985480000000  0.5034720000000 1.0
C      1  0.5020660000000  0.5839490000000  0.4614570000000 1.0
C      1  0.5596570000000  0.5537840000000  0.4484540000000 1.0
C      1  0.4580630000000  0.5235260000000  0.5101580000000 1.0
C      1  0.5155400000000  0.5043400000000  0.4471530000000 1.0
C      1  0.4745590000000  0.5100760000000  0.4052000000000 1.0
C      1  0.5517840000000  0.4984950000000  0.5727240000000 1.0
C      1  0.5711110000000  0.4786250000000  0.4729330000000 1.0
C      1  0.4903830000000  0.4196940000000  0.5246850000000 1.0
C      1  0.4437640000000  0.5768400000000  0.5162010000000 1.0
C      1  0.4496210000000  0.4269790000000  0.5542460000000 1.0
C      1  0.5371420000000  0.4916210000000  0.5474180000000 1.0
C      1  0.4972850000000  0.4762180000000  0.4088330000000 1.0
C      1  0.4176540000000  0.4639420000000  0.5580830000000 1.0
C      1  0.4261170000000  0.4391630000000  0.4901890000000 1.0
C      1  0.5042300000000  0.5505210000000  0.5648240000000 1.0
C      1  0.4684280000000  0.4828520000000  0.4040470000000 1.0
C      1  0.5076330000000  0.5541740000000  0.5046650000000 1.0
C      1  0.5182970000000  0.4290790000000  0.5230000000000 1.0
C      1  0.4313660000000  0.4235600000000  0.5319110000000 1.0
C      1  0.4298170000000  0.4899270000000  0.4341300000000 1.0
C      1  0.4189910000000  0.4810700000000  0.4596140000000 1.0
C      1  0.4802060000000  0.5943420000000  0.5034950000000 1.0
C      1  0.4141290000000  0.5424700000000  0.5416110000000 1.0
C      1  0.5442610000000  0.5490820000000  0.4229150000000 1.0
C      1  0.4038990000000  0.5147760000000  0.5384900000000 1.0
C      1  0.4805000000000  0.4308220000000  0.4489290000000 1.0
C      1  0.4199500000000  0.5600840000000  0.5177170000000 1.0
C      1  0.4869100000000  0.5850470000000  0.5312350000000 1.0
C      1  0.5167150000000  0.4974500000000  0.6031720000000 1.0
C      1  0.5799370000000  0.4296190000000  0.4667570000000 1.0
C      1  0.4899610000000  0.5505670000000  0.4830930000000 1.0
C      1  0.5129660000000  0.5276500000000  0.5167070000000 1.0
C      1  0.5862220000000  0.4984150000000  0.4579540000000 1.0
C      1  0.4106820000000  0.5055460000000  0.4687470000000 1.0
C      1  0.5149990000000  0.4589080000000  0.4278550000000 1.0
C      1  0.5505150000000  0.5552700000000  0.5604530000000 1.0
C      1  0.4158790000000  0.5535450000000  0.4900350000000 1.0
C      1  0.5417760000000  0.5546070000000  0.4700170000000 1.0
C      1  0.4619260000000  0.4583390000000  0.4467650000000 1.0
C      1  0.4710950000000  0.4145710000000  0.4989210000000 1.0
C      1  0.5034210000000  0.4807030000000  0.5154720000000 1.0
C      1  0.5545380000000  0.5212610000000  0.4182750000000 1.0
C      1  0.5454270000000  0.4177280000000  0.5298830000000 1.0
C      1  0.4668930000000  0.4941510000000  0.5647310000000 1.0
C      1  0.5861360000000  0.4825310000000  0.5414810000000 1.0
C      1  0.5531010000000  0.4677100000000  0.5071790000000 1.0
C      1  0.5381470000000  0.4441730000000  0.5701750000000 1.0
C      1  0.5601700000000  0.4719740000000  0.4052720000000 1.0
C      1  0.5824660000000  0.4349450000000  0.4377720000000 1.0
C      1  0.4868690000000  0.4503900000000  0.5685380000000 1.0
C      1  0.5879140000000  0.4554810000000  0.4806440000000 1.0
C      1  0.5180620000000  0.5609980000000  0.4188720000000 1.0
C      1  0.4537640000000  0.5882650000000  0.4896130000000 1.0
C      1  0.5812080000000  0.4989940000000  0.5655390000000 1.0
C      1  0.4530550000000  0.5066040000000  0.4437800000000 1.0
C      1  0.5377160000000  0.5746870000000  0.5417700000000 1.0
C      1  0.5342650000000  0.4585850000000  0.4026110000000 1.0
C      1  0.4416210000000  0.4199050000000  0.5050480000000 1.0
C      1  0.4661050000000  0.5346220000000  0.4840130000000 1.0
C      1  0.5301910000000  0.5427760000000  0.5778400000000 1.0
C      1  0.4740710000000  0.4085550000000  0.4655880000000 1.0
C      1  0.4771760000000  0.4809900000000  0.5023870000000 1.0
C      1  0.4771240000000  0.5269260000000  0.5991730000000 1.0
C      1  0.5214260000000  0.4716890000000  0.5949460000000 1.0
C      1  0.4349790000000  0.5689530000000  0.4740930000000 1.0
C      1  0.5128000000000  0.4426710000000  0.4825910000000 1.0
C      1  0.4507820000000  0.5317830000000  0.4588240000000 1.0
C      1  0.5298750000000  0.4500370000000  0.5048480000000 1.0
C      1  0.4439870000000  0.4993650000000  0.5182940000000 1.0
C      1  0.5071550000000  0.4932170000000  0.5427090000000 1.0
C      1  0.4156530000000  0.4935220000000  0.5555770000000 1.0
C      1  0.5045140000000  0.5974140000000  0.4872220000000 1.0
C      1  0.4441510000000  0.5587940000000  0.4481230000000 1.0
C      1  0.4433940000000  0.4983200000000  0.5476840000000 1.0
C      1  0.4819530000000  0.4967850000000  0.4796750000000 1.0
C      1  0.5528610000000  0.4713050000000  0.4540350000000 1.0
C      1  0.4706650000000  0.5371580000000  0.5330270000000 1.0
C      1  0.5050590000000  0.5123290000000  0.4884830000000 1.0
C      1  0.5249370000000  0.4794510000000  0.4529810000000 1.0
C      1  0.4792700000000  0.5508780000000  0.5856910000000 1.0
C      1  0.5112720000000  0.5541610000000  0.4623830000000 1.0
C      1  0.5537920000000  0.4166870000000  0.4751700000000 1.0
C      1  0.4888110000000  0.5311670000000  0.4153710000000 1.0
C      1  0.5529200000000  0.4149760000000  0.5029720000000 1.0
C      1  0.5480540000000  0.5738350000000  0.5142120000000 1.0
C      1  0.4893420000000  0.5613370000000  0.4175240000000 1.0
C      1  0.4199950000000  0.4866450000000  0.5062280000000 1.0
C      1  0.4648130000000  0.5663150000000  0.5336980000000 1.0
C      1  0.4126520000000  0.4578460000000  0.5082610000000 1.0
C      1  0.4629180000000  0.4581160000000  0.5866500000000 1.0
C      1  0.5212500000000  0.4892960000000  0.4919870000000 1.0
C      1  0.5093380000000  0.4329540000000  0.4419920000000 1.0
C      1  0.4650460000000  0.4864720000000  0.5934690000000 1.0
C      1  0.5856010000000  0.5394560000000  0.4522060000000 1.0
C      1  0.5597710000000  0.5346990000000  0.5409050000000 1.0
C      1  0.4739570000000  0.5866970000000  0.4594750000000 1.0
C      1  0.5150240000000  0.4469880000000  0.5850500000000 1.0
C      1  0.4483760000000  0.4699210000000  0.4226890000000 1.0
C      1  0.6047910000000  0.4643040000000  0.5032610000000 1.0
C      1  0.4327340000000  0.5476370000000  0.5619740000000 1.0
C      1  0.5788210000000  0.5263310000000  0.5591760000000 1.0
C      1  0.5217540000000  0.5787090000000  0.5032680000000 1.0
C      1  0.5093270000000  0.5752470000000  0.5474120000000 1.0
END
