TITL C-4164233-775-483 -1.15829532787778 125000 -5389.59926733771 0 0 38 (C1) n - 1
REM
REM in /home/nfs/bkarasulu/CARBON/AIRSS/Generating-Clusters/ReaxFF-fromJPCA2015/Units_Real/with-SteepDescent/Only-C1/SD-CG/Try1-3A/FIRE-CG
REM
REM
REM
REM
REM
REM ./C.cell (11c1c37f851c82e70ff6c80c92926a4b)
REM
REM compiler GCC version 9.2.1 20190827 (Red Hat 9.2.1-1)
REM options -cpp -mtune=generic -march=x86-64 -g -O0 -fpre-include=/usr/include/finclude/math-vector-fortran.h
REM seed 258159004 1010446370 -801062556 -1727249612 -1902068935 -1837563939 -530783995 -1347301843 36253337 -1500953241 -1447514297 -1648321887 -805486260 436026234 281471990 2069235244 -444112271 -1596110711 -1510979668 -441973388 -1274026969 2086789774 830842101 -747096771 57434617 -1173633214 -219979549 -395022894 -2143687779 595732520 1820319876 -183164779 -2096974351
REM
CELL 1.54180   50.00000   50.00000   50.00000   90.00000   90.00000   90.00000
LATT -1
SFAC C  
C      1  0.4734320000000  0.4905000000000  0.5203070000000 1.0
C      1  0.5473770000000  0.4670460000000  0.4980520000000 1.0
C      1  0.5350510000000  0.5309640000000  0.5335900000000 1.0
C      1  0.5269410000000  0.4506860000000  0.4903490000000 1.0
C      1  0.5656100000000  0.4830780000000  0.5042460000000 1.0
C      1  0.5263610000000  0.4833640000000  0.4485700000000 1.0
C      1  0.5562160000000  0.5210270000000  0.5184930000000 1.0
C      1  0.4610050000000  0.4397240000000  0.5313430000000 1.0
C      1  0.5146330000000  0.4600280000000  0.4644120000000 1.0
C      1  0.5728460000000  0.5081040000000  0.4715330000000 1.0
C      1  0.4343640000000  0.4932660000000  0.4900650000000 1.0
C      1  0.4715820000000  0.5483800000000  0.5048980000000 1.0
C      1  0.4862710000000  0.4560820000000  0.4588580000000 1.0
C      1  0.5129690000000  0.4362120000000  0.5122370000000 1.0
C      1  0.4514890000000  0.5049220000000  0.5067170000000 1.0
C      1  0.5523130000000  0.4963250000000  0.4551350000000 1.0
C      1  0.4752150000000  0.5298050000000  0.5519110000000 1.0
C      1  0.5027480000000  0.4442860000000  0.5381260000000 1.0
C      1  0.4927960000000  0.5088490000000  0.5584720000000 1.0
C      1  0.4456540000000  0.4837230000000  0.4724010000000 1.0
C      1  0.4729010000000  0.4880650000000  0.5492100000000 1.0
C      1  0.4781930000000  0.4587090000000  0.5482200000000 1.0
C      1  0.5054610000000  0.5001390000000  0.4368120000000 1.0
C      1  0.4765300000000  0.5036140000000  0.4442780000000 1.0
C      1  0.4891600000000  0.5413290000000  0.4561870000000 1.0
C      1  0.5191650000000  0.5554660000000  0.5225340000000 1.0
C      1  0.4577250000000  0.5277380000000  0.4904470000000 1.0
C      1  0.5020480000000  0.4982040000000  0.5151200000000 1.0
C      1  0.5759150000000  0.5096520000000  0.5029720000000 1.0
C      1  0.4954080000000  0.5612460000000  0.5364160000000 1.0
C      1  0.5082320000000  0.5590920000000  0.4627730000000 1.0
C      1  0.4678290000000  0.5260380000000  0.4616210000000 1.0
C      1  0.5088270000000  0.5215340000000  0.5004940000000 1.0
C      1  0.5159850000000  0.5083550000000  0.5394030000000 1.0
C      1  0.4650330000000  0.4766730000000  0.4526540000000 1.0
C      1  0.4862980000000  0.4264780000000  0.5206660000000 1.0
C      1  0.4682950000000  0.5518410000000  0.5344970000000 1.0
C      1  0.5021200000000  0.5494580000000  0.4959790000000 1.0
END
