TITL C-4164243-3780-516 5.43010189697788 125000 -24150.9531544725 0 0 161 (C1) n - 1
REM
REM in /home/nfs/bkarasulu/CARBON/AIRSS/Generating-Clusters/ReaxFF-fromJPCA2015/Units_Real/with-SteepDescent/Only-C1/SD-CG/Try1-3A/FIRE-CG
REM
REM
REM
REM
REM
REM ./C.cell (11c1c37f851c82e70ff6c80c92926a4b)
REM
REM compiler GCC version 9.2.1 20190827 (Red Hat 9.2.1-1)
REM options -cpp -mtune=generic -march=x86-64 -g -O0 -fpre-include=/usr/include/finclude/math-vector-fortran.h
REM seed -246622090 -1795842262 231334938 -480220725 -942315582 -120233206 968782961 1530280084 -1645268722 1806628070 1971774313 -1841634360 -1199023543 1199894704 -1744073040 1961984803 -1518806504 560601114 -1616205762 1605036196 -1534932098 -701369902 -1106790015 -464537401 1655401440 1989842280 -507823477 1465488124 -278708429 1756984388 1924255489 679824095 -859315582
REM
CELL 1.54180   50.00000   50.00000   50.00000   90.00000   90.00000   90.00000
LATT -1
SFAC C  
C      1  0.4735930000000  0.4788160000000  0.5573410000000 1.0
C      1  0.5318170000000  0.4174810000000  0.5283400000000 1.0
C      1  0.5868190000000  0.5580060000000  0.4804060000000 1.0
C      1  0.4991970000000  0.5462430000000  0.5882760000000 1.0
C      1  0.4363140000000  0.4238220000000  0.4477570000000 1.0
C      1  0.5598190000000  0.5155970000000  0.5860850000000 1.0
C      1  0.4889550000000  0.5698990000000  0.5750030000000 1.0
C      1  0.4903870000000  0.6085940000000  0.4781700000000 1.0
C      1  0.4713020000000  0.4522660000000  0.5147710000000 1.0
C      1  0.5342140000000  0.5775760000000  0.4385170000000 1.0
C      1  0.5889690000000  0.5456030000000  0.5293210000000 1.0
C      1  0.5852390000000  0.4586940000000  0.4263330000000 1.0
C      1  0.5818070000000  0.5009400000000  0.4660260000000 1.0
C      1  0.4022920000000  0.5076210000000  0.5289170000000 1.0
C      1  0.4357610000000  0.4943790000000  0.5945460000000 1.0
C      1  0.6005800000000  0.4725730000000  0.5225130000000 1.0
C      1  0.5139330000000  0.4821250000000  0.5137840000000 1.0
C      1  0.5484290000000  0.5001940000000  0.4125680000000 1.0
C      1  0.5214750000000  0.5367030000000  0.5382760000000 1.0
C      1  0.5780500000000  0.5512560000000  0.4533940000000 1.0
C      1  0.6045590000000  0.4518260000000  0.4454090000000 1.0
C      1  0.5578050000000  0.5643220000000  0.4333850000000 1.0
C      1  0.5648910000000  0.5687900000000  0.4972310000000 1.0
C      1  0.4174740000000  0.4955400000000  0.5713400000000 1.0
C      1  0.4683930000000  0.4532630000000  0.4203740000000 1.0
C      1  0.4476490000000  0.5699910000000  0.5283360000000 1.0
C      1  0.6068720000000  0.4937070000000  0.4814620000000 1.0
C      1  0.5001650000000  0.4579450000000  0.4564970000000 1.0
C      1  0.4562710000000  0.4219680000000  0.4700700000000 1.0
C      1  0.4223970000000  0.5137400000000  0.5495950000000 1.0
C      1  0.5283980000000  0.4071000000000  0.4547870000000 1.0
C      1  0.5233230000000  0.4727990000000  0.5923280000000 1.0
C      1  0.4973810000000  0.5461850000000  0.4032010000000 1.0
C      1  0.5261110000000  0.5846670000000  0.5218150000000 1.0
C      1  0.5009440000000  0.5607930000000  0.4808430000000 1.0
C      1  0.5769370000000  0.4152090000000  0.5062310000000 1.0
C      1  0.4336010000000  0.5181910000000  0.4919690000000 1.0
C      1  0.4522820000000  0.5404110000000  0.5894120000000 1.0
C      1  0.5010820000000  0.4572620000000  0.5172140000000 1.0
C      1  0.3917460000000  0.5158060000000  0.4772480000000 1.0
C      1  0.5156340000000  0.4460990000000  0.6049740000000 1.0
C      1  0.5804700000000  0.4291430000000  0.5312660000000 1.0
C      1  0.5290240000000  0.4513290000000  0.4697290000000 1.0
C      1  0.5467570000000  0.5430660000000  0.4162700000000 1.0
C      1  0.3873150000000  0.4882380000000  0.4859190000000 1.0
C      1  0.4242730000000  0.5794320000000  0.4633610000000 1.0
C      1  0.4888620000000  0.5049140000000  0.4717680000000 1.0
C      1  0.5010650000000  0.5912920000000  0.5579450000000 1.0
C      1  0.4071370000000  0.5059790000000  0.4536040000000 1.0
C      1  0.5245780000000  0.5433420000000  0.4777240000000 1.0
C      1  0.4347340000000  0.4900920000000  0.4110990000000 1.0
C      1  0.5500610000000  0.5208160000000  0.4335570000000 1.0
C      1  0.4218730000000  0.4533420000000  0.5799280000000 1.0
C      1  0.5297550000000  0.6006200000000  0.5613380000000 1.0
C      1  0.5241050000000  0.5347500000000  0.4008200000000 1.0
C      1  0.4029770000000  0.4610970000000  0.5334550000000 1.0
C      1  0.4808030000000  0.4277920000000  0.5587370000000 1.0
C      1  0.5591350000000  0.4902440000000  0.4767860000000 1.0
C      1  0.4036330000000  0.4573670000000  0.4418110000000 1.0
C      1  0.6122690000000  0.5151390000000  0.4998600000000 1.0
C      1  0.6037840000000  0.4672410000000  0.4935910000000 1.0
C      1  0.4501300000000  0.5517790000000  0.5496810000000 1.0
C      1  0.5220450000000  0.4390290000000  0.5146010000000 1.0
C      1  0.5592500000000  0.4109560000000  0.5276590000000 1.0
C      1  0.4915790000000  0.5228210000000  0.4477270000000 1.0
C      1  0.4781540000000  0.5499970000000  0.4934060000000 1.0
C      1  0.4848500000000  0.6107390000000  0.5078160000000 1.0
C      1  0.4656800000000  0.4149540000000  0.5356890000000 1.0
C      1  0.5799940000000  0.5064640000000  0.5510680000000 1.0
C      1  0.4531490000000  0.4857130000000  0.4563050000000 1.0
C      1  0.4081110000000  0.4293110000000  0.4538820000000 1.0
C      1  0.4514740000000  0.5230840000000  0.5419750000000 1.0
C      1  0.5043190000000  0.5173600000000  0.5428680000000 1.0
C      1  0.5564020000000  0.4181190000000  0.4568650000000 1.0
C      1  0.5028260000000  0.4201350000000  0.4459220000000 1.0
C      1  0.5744460000000  0.4918660000000  0.5757180000000 1.0
C      1  0.4758870000000  0.4776240000000  0.4706170000000 1.0
C      1  0.5369280000000  0.5528620000000  0.5269450000000 1.0
C      1  0.5221280000000  0.5243970000000  0.4546570000000 1.0
C      1  0.4377170000000  0.4664870000000  0.6010090000000 1.0
C      1  0.5074060000000  0.5836520000000  0.4367160000000 1.0
C      1  0.5065630000000  0.4848660000000  0.3902290000000 1.0
C      1  0.4834590000000  0.4105840000000  0.4663820000000 1.0
C      1  0.4807490000000  0.4991730000000  0.3817100000000 1.0
C      1  0.4870030000000  0.4010150000000  0.5206410000000 1.0
C      1  0.4053710000000  0.4702030000000  0.5620320000000 1.0
C      1  0.4875660000000  0.5663100000000  0.4219050000000 1.0
C      1  0.5436520000000  0.5481490000000  0.4987150000000 1.0
C      1  0.5005500000000  0.5062980000000  0.5162950000000 1.0
C      1  0.5676880000000  0.4657530000000  0.5642580000000 1.0
C      1  0.5245860000000  0.5445500000000  0.6008940000000 1.0
C      1  0.4604060000000  0.5664810000000  0.4324900000000 1.0
C      1  0.5292850000000  0.4316270000000  0.4905370000000 1.0
C      1  0.4799720000000  0.4544240000000  0.5725180000000 1.0
C      1  0.4227910000000  0.4631230000000  0.4206270000000 1.0
C      1  0.6020980000000  0.5220960000000  0.5407900000000 1.0
C      1  0.4594230000000  0.5634900000000  0.5747930000000 1.0
C      1  0.5470880000000  0.4436560000000  0.4479490000000 1.0
C      1  0.4942460000000  0.3994800000000  0.4918800000000 1.0
C      1  0.4177440000000  0.4377760000000  0.5257280000000 1.0
C      1  0.5832590000000  0.4568240000000  0.5403760000000 1.0
C      1  0.4543420000000  0.4402950000000  0.4915880000000 1.0
C      1  0.5171220000000  0.4978890000000  0.4665630000000 1.0
C      1  0.4531870000000  0.5630490000000  0.5008590000000 1.0
C      1  0.4484000000000  0.5974040000000  0.5227500000000 1.0
C      1  0.5540110000000  0.4771820000000  0.4104600000000 1.0
C      1  0.5262360000000  0.4325960000000  0.5802980000000 1.0
C      1  0.4094380000000  0.5340010000000  0.4888560000000 1.0
C      1  0.4783120000000  0.5085580000000  0.5586780000000 1.0
C      1  0.5054500000000  0.4594150000000  0.4033370000000 1.0
C      1  0.4258130000000  0.5212960000000  0.4238950000000 1.0
C      1  0.4883200000000  0.4484130000000  0.6116840000000 1.0
C      1  0.4504860000000  0.5865610000000  0.4530640000000 1.0
C      1  0.4533700000000  0.4911950000000  0.3865670000000 1.0
C      1  0.4430500000000  0.5438060000000  0.4281510000000 1.0
C      1  0.4621360000000  0.4664230000000  0.4921230000000 1.0
C      1  0.5352880000000  0.4800680000000  0.4858240000000 1.0
C      1  0.5960220000000  0.4455860000000  0.4752350000000 1.0
C      1  0.5218810000000  0.4035300000000  0.4834340000000 1.0
C      1  0.5113870000000  0.4788150000000  0.4400980000000 1.0
C      1  0.4609890000000  0.4847820000000  0.4283560000000 1.0
C      1  0.4090420000000  0.5569860000000  0.4739420000000 1.0
C      1  0.4567430000000  0.5149850000000  0.5992060000000 1.0
C      1  0.4391420000000  0.4217750000000  0.5269420000000 1.0
C      1  0.4650230000000  0.4538400000000  0.6000150000000 1.0
C      1  0.4558910000000  0.6143000000000  0.5016980000000 1.0
C      1  0.3937100000000  0.4792720000000  0.4583540000000 1.0
C      1  0.5401800000000  0.5825640000000  0.5781250000000 1.0
C      1  0.5620240000000  0.5477230000000  0.5435580000000 1.0
C      1  0.4784530000000  0.5108230000000  0.4254850000000 1.0
C      1  0.5763290000000  0.4245190000000  0.4784520000000 1.0
C      1  0.4870020000000  0.5163680000000  0.5875940000000 1.0
C      1  0.5978030000000  0.5412360000000  0.5016990000000 1.0
C      1  0.5276230000000  0.5053970000000  0.3954460000000 1.0
C      1  0.4421930000000  0.4419990000000  0.4238570000000 1.0
C      1  0.5488810000000  0.5604640000000  0.5916430000000 1.0
C      1  0.4805120000000  0.5193800000000  0.4997580000000 1.0
C      1  0.5061380000000  0.4163430000000  0.5654400000000 1.0
C      1  0.5340520000000  0.5168320000000  0.6017850000000 1.0
C      1  0.3947220000000  0.4828140000000  0.5143390000000 1.0
C      1  0.4547490000000  0.4642130000000  0.5406600000000 1.0
C      1  0.4623070000000  0.6055250000000  0.4715340000000 1.0
C      1  0.5677100000000  0.5813570000000  0.5231510000000 1.0
C      1  0.5478260000000  0.5983750000000  0.5345530000000 1.0
C      1  0.5387530000000  0.4580800000000  0.5707350000000 1.0
C      1  0.5581730000000  0.4548180000000  0.4232940000000 1.0
C      1  0.6117950000000  0.4999970000000  0.5247270000000 1.0
C      1  0.5370920000000  0.4800810000000  0.5371820000000 1.0
C      1  0.5063430000000  0.5867510000000  0.4667200000000 1.0
C      1  0.4937810000000  0.4388080000000  0.4198970000000 1.0
C      1  0.4532170000000  0.5172780000000  0.5127670000000 1.0
C      1  0.5752980000000  0.5242460000000  0.4477530000000 1.0
C      1  0.4786460000000  0.5234940000000  0.3993160000000 1.0
C      1  0.4276780000000  0.5699230000000  0.4896620000000 1.0
C      1  0.4394000000000  0.4466650000000  0.5578800000000 1.0
C      1  0.5583140000000  0.4995720000000  0.5311940000000 1.0
C      1  0.5120620000000  0.4991910000000  0.5968200000000 1.0
C      1  0.4991900000000  0.5938570000000  0.5284720000000 1.0
C      1  0.5621110000000  0.5414450000000  0.5728940000000 1.0
C      1  0.5091520000000  0.4018850000000  0.5398720000000 1.0
C      1  0.4342470000000  0.5034970000000  0.4672600000000 1.0
END
