TITL C-4164235-1454-21 14.1108668316157 125000 -18718.5915668327 0 0 126 (C1) n - 1
REM
REM in /home/nfs/bkarasulu/CARBON/AIRSS/Generating-Clusters/ReaxFF-fromJPCA2015/Units_Real/with-SteepDescent/Only-C1/SD-CG/Try1-3A/FIRE-CG
REM
REM
REM
REM
REM
REM ./C.cell (11c1c37f851c82e70ff6c80c92926a4b)
REM
REM compiler GCC version 9.2.1 20190827 (Red Hat 9.2.1-1)
REM options -cpp -mtune=generic -march=x86-64 -g -O0 -fpre-include=/usr/include/finclude/math-vector-fortran.h
REM seed 625002219 -400015012 1745296106 -1712914172 1379026048 -561508008 753844456 -704949995 -246610118 -288847261 -1138334843 563895030 189393082 -723602834 716640344 1626997220 -991984904 1919946743 -678232472 170471547 -80696407 322399515 1273170900 -307066811 -1469570657 620154099 864527192 -675362350 -1006769766 -254566330 1693445761 -1336922076 1578702052
REM
CELL 1.54180   50.00000   50.00000   50.00000   90.00000   90.00000   90.00000
LATT -1
SFAC C  
C      1  0.4870260000000  0.4135650000000  0.4735160000000 1.0
C      1  0.5125620000000  0.4086640000000  0.4862790000000 1.0
C      1  0.5092030000000  0.4640450000000  0.5894780000000 1.0
C      1  0.4546000000000  0.5655290000000  0.5552340000000 1.0
C      1  0.4996940000000  0.4801470000000  0.5680640000000 1.0
C      1  0.4687810000000  0.5077860000000  0.3975410000000 1.0
C      1  0.5488890000000  0.4282790000000  0.5517380000000 1.0
C      1  0.5355520000000  0.4739150000000  0.5985290000000 1.0
C      1  0.5301180000000  0.4694340000000  0.4136440000000 1.0
C      1  0.5612470000000  0.4167480000000  0.4771530000000 1.0
C      1  0.4713350000000  0.5510400000000  0.4666800000000 1.0
C      1  0.4059320000000  0.5064790000000  0.4489440000000 1.0
C      1  0.4909760000000  0.5518600000000  0.4253160000000 1.0
C      1  0.4466690000000  0.4922250000000  0.4870980000000 1.0
C      1  0.5282820000000  0.5758820000000  0.5682510000000 1.0
C      1  0.4332490000000  0.4637950000000  0.5322320000000 1.0
C      1  0.4729090000000  0.4887820000000  0.4806360000000 1.0
C      1  0.4728660000000  0.5217620000000  0.5267250000000 1.0
C      1  0.4109650000000  0.5039670000000  0.5179480000000 1.0
C      1  0.5843570000000  0.5303310000000  0.5364490000000 1.0
C      1  0.4855670000000  0.5995160000000  0.4924790000000 1.0
C      1  0.4937440000000  0.5890370000000  0.5390930000000 1.0
C      1  0.4441950000000  0.4473620000000  0.4475760000000 1.0
C      1  0.4326090000000  0.4379210000000  0.5194210000000 1.0
C      1  0.4918420000000  0.5377130000000  0.5381510000000 1.0
C      1  0.5814640000000  0.4583140000000  0.4500920000000 1.0
C      1  0.4727750000000  0.4246400000000  0.5454190000000 1.0
C      1  0.4787190000000  0.4566380000000  0.4117030000000 1.0
C      1  0.5258330000000  0.4719850000000  0.5268260000000 1.0
C      1  0.4349580000000  0.4976150000000  0.5612430000000 1.0
C      1  0.4406000000000  0.4518300000000  0.5877780000000 1.0
C      1  0.5467930000000  0.5096570000000  0.5016560000000 1.0
C      1  0.3995900000000  0.4669000000000  0.4863520000000 1.0
C      1  0.4473260000000  0.5404500000000  0.5173100000000 1.0
C      1  0.4472870000000  0.5183040000000  0.4445900000000 1.0
C      1  0.4899830000000  0.4230760000000  0.4464590000000 1.0
C      1  0.4202610000000  0.4453450000000  0.4922540000000 1.0
C      1  0.5648990000000  0.4714220000000  0.4705700000000 1.0
C      1  0.5709270000000  0.4334340000000  0.4567690000000 1.0
C      1  0.4437640000000  0.4709320000000  0.5610920000000 1.0
C      1  0.5311370000000  0.5523350000000  0.4982590000000 1.0
C      1  0.4568940000000  0.4214680000000  0.5220600000000 1.0
C      1  0.4732420000000  0.5336730000000  0.5858960000000 1.0
C      1  0.4442360000000  0.5152310000000  0.4740120000000 1.0
C      1  0.5681760000000  0.4511710000000  0.5453580000000 1.0
C      1  0.4853680000000  0.5636420000000  0.5551260000000 1.0
C      1  0.5182020000000  0.4186040000000  0.5128680000000 1.0
C      1  0.5300840000000  0.5292300000000  0.5124580000000 1.0
C      1  0.5289140000000  0.5142030000000  0.5553460000000 1.0
C      1  0.4765810000000  0.5230200000000  0.4237680000000 1.0
C      1  0.4599830000000  0.4733490000000  0.4458120000000 1.0
C      1  0.5238420000000  0.4983370000000  0.4149540000000 1.0
C      1  0.5186250000000  0.5300740000000  0.5368260000000 1.0
C      1  0.5302490000000  0.4542070000000  0.4396790000000 1.0
C      1  0.4417410000000  0.4384140000000  0.4761520000000 1.0
C      1  0.5065710000000  0.4468190000000  0.5197700000000 1.0
C      1  0.4683310000000  0.4787570000000  0.3939010000000 1.0
C      1  0.5720400000000  0.4775340000000  0.5570650000000 1.0
C      1  0.4880330000000  0.5928800000000  0.4636840000000 1.0
C      1  0.5640320000000  0.5654450000000  0.4676730000000 1.0
C      1  0.4935970000000  0.5355570000000  0.4730810000000 1.0
C      1  0.4688020000000  0.4365890000000  0.4305960000000 1.0
C      1  0.5454020000000  0.4824930000000  0.5091730000000 1.0
C      1  0.5365340000000  0.4713220000000  0.4635400000000 1.0
C      1  0.4002720000000  0.4799520000000  0.4571930000000 1.0
C      1  0.5609240000000  0.4819770000000  0.5842830000000 1.0
C      1  0.5713930000000  0.5823200000000  0.4912770000000 1.0
C      1  0.4389780000000  0.4906010000000  0.4335230000000 1.0
C      1  0.4873630000000  0.4489970000000  0.5425300000000 1.0
C      1  0.5150250000000  0.6036390000000  0.4931270000000 1.0
C      1  0.5234170000000  0.4243830000000  0.5618130000000 1.0
C      1  0.4336850000000  0.4859330000000  0.5130290000000 1.0
C      1  0.4485250000000  0.5422510000000  0.5713080000000 1.0
C      1  0.5438520000000  0.5015650000000  0.5967690000000 1.0
C      1  0.4870190000000  0.4514430000000  0.4998600000000 1.0
C      1  0.3888780000000  0.4865450000000  0.5050850000000 1.0
C      1  0.5213930000000  0.5585710000000  0.4279820000000 1.0
C      1  0.5032620000000  0.5639700000000  0.5806350000000 1.0
C      1  0.4344570000000  0.5367110000000  0.4896420000000 1.0
C      1  0.5351670000000  0.5987230000000  0.5162750000000 1.0
C      1  0.4865000000000  0.4747560000000  0.4334660000000 1.0
C      1  0.5619000000000  0.5171730000000  0.4762700000000 1.0
C      1  0.5854450000000  0.4985560000000  0.5404740000000 1.0
C      1  0.5730680000000  0.5017200000000  0.4194130000000 1.0
C      1  0.4974470000000  0.5017210000000  0.4277720000000 1.0
C      1  0.5850510000000  0.4768820000000  0.4248280000000 1.0
C      1  0.5649500000000  0.4223530000000  0.5067570000000 1.0
C      1  0.5015920000000  0.5376780000000  0.5917020000000 1.0
C      1  0.5300040000000  0.5250730000000  0.5821610000000 1.0
C      1  0.5344170000000  0.5691710000000  0.4556200000000 1.0
C      1  0.5216800000000  0.4869940000000  0.5502020000000 1.0
C      1  0.5486230000000  0.5726970000000  0.5089040000000 1.0
C      1  0.4410100000000  0.5671100000000  0.4451730000000 1.0
C      1  0.5444320000000  0.5543430000000  0.5767640000000 1.0
C      1  0.5170780000000  0.5936290000000  0.4655530000000 1.0
C      1  0.5905630000000  0.4965470000000  0.5125210000000 1.0
C      1  0.4213710000000  0.5290790000000  0.5284390000000 1.0
C      1  0.4718020000000  0.5711590000000  0.4454490000000 1.0
C      1  0.4677220000000  0.4295390000000  0.4920820000000 1.0
C      1  0.4201320000000  0.4691010000000  0.4385290000000 1.0
C      1  0.5196270000000  0.4269840000000  0.4442480000000 1.0
C      1  0.4952970000000  0.5061500000000  0.4725980000000 1.0
C      1  0.5214920000000  0.5921570000000  0.5422650000000 1.0
C      1  0.4738870000000  0.5875930000000  0.5177100000000 1.0
C      1  0.4279270000000  0.5410720000000  0.4438180000000 1.0
C      1  0.4774440000000  0.4933750000000  0.5267920000000 1.0
C      1  0.5756730000000  0.4464240000000  0.5179130000000 1.0
C      1  0.4776380000000  0.4750170000000  0.5504080000000 1.0
C      1  0.4279450000000  0.5237350000000  0.5576540000000 1.0
C      1  0.4312510000000  0.5563790000000  0.4687430000000 1.0
C      1  0.4797480000000  0.4774210000000  0.5034280000000 1.0
C      1  0.5410830000000  0.5453620000000  0.4116940000000 1.0
C      1  0.5218240000000  0.4966960000000  0.4664660000000 1.0
C      1  0.5760470000000  0.5420890000000  0.4787330000000 1.0
C      1  0.4526950000000  0.5698320000000  0.5269310000000 1.0
C      1  0.5388170000000  0.5195750000000  0.4575160000000 1.0
C      1  0.5340500000000  0.4135400000000  0.4657570000000 1.0
C      1  0.5881990000000  0.5259120000000  0.5074420000000 1.0
C      1  0.4954390000000  0.4376110000000  0.5908210000000 1.0
C      1  0.4966320000000  0.4188620000000  0.5680180000000 1.0
C      1  0.5436790000000  0.4140490000000  0.5255900000000 1.0
C      1  0.5739820000000  0.4721250000000  0.5008640000000 1.0
C      1  0.5239710000000  0.5466360000000  0.4712320000000 1.0
C      1  0.5662240000000  0.6090040000000  0.5008770000000 1.0
C      1  0.4656930000000  0.4419980000000  0.5960630000000 1.0
C      1  0.5463770000000  0.5168580000000  0.4246580000000 1.0
END
