TITL C-4164246-3563-659 13.8006286253457 125000 -28227.9957778032 0 0 188 (C1) n - 1
REM
REM in /home/nfs/bkarasulu/CARBON/AIRSS/Generating-Clusters/ReaxFF-fromJPCA2015/Units_Real/with-SteepDescent/Only-C1/SD-CG/Try1-3A/FIRE-CG
REM
REM
REM
REM
REM
REM ./C.cell (11c1c37f851c82e70ff6c80c92926a4b)
REM
REM compiler GCC version 9.2.1 20190827 (Red Hat 9.2.1-1)
REM options -cpp -mtune=generic -march=x86-64 -g -O0 -fpre-include=/usr/include/finclude/math-vector-fortran.h
REM seed 1344260136 876748247 1156588656 -1685460837 -1533747679 178239886 904172045 -219960302 -58942096 -259666174 697827885 1648120765 1576176495 1831323289 -1122727395 -1005935965 -1775887680 336016387 50245808 880561299 -1613187685 -1942572402 -910119872 2007109581 -888471106 -1656486609 -493238865 1532464554 -212929874 -1702322806 1259652532 -1211839173 -1534071184
REM
CELL 1.54180   50.00000   50.00000   50.00000   90.00000   90.00000   90.00000
LATT -1
SFAC C  
C      1  0.3959450000000  0.4906310000000  0.5142930000000 1.0
C      1  0.5381860000000  0.4575680000000  0.4086000000000 1.0
C      1  0.6012420000000  0.4633240000000  0.4898990000000 1.0
C      1  0.5232110000000  0.4436070000000  0.5921680000000 1.0
C      1  0.5491560000000  0.4267530000000  0.5510840000000 1.0
C      1  0.4732500000000  0.5087670000000  0.5657460000000 1.0
C      1  0.5184860000000  0.5871870000000  0.5588850000000 1.0
C      1  0.4789460000000  0.5078870000000  0.4920620000000 1.0
C      1  0.4466460000000  0.5028880000000  0.5761840000000 1.0
C      1  0.3886110000000  0.5108850000000  0.4923850000000 1.0
C      1  0.5533040000000  0.5208990000000  0.5178340000000 1.0
C      1  0.4816950000000  0.5025730000000  0.5383480000000 1.0
C      1  0.4791170000000  0.5283690000000  0.4329790000000 1.0
C      1  0.5325110000000  0.3832710000000  0.5244300000000 1.0
C      1  0.4918380000000  0.5743050000000  0.4081540000000 1.0
C      1  0.4810850000000  0.4719180000000  0.4658330000000 1.0
C      1  0.4415970000000  0.4291190000000  0.4324340000000 1.0
C      1  0.5864560000000  0.4801270000000  0.4295900000000 1.0
C      1  0.4643290000000  0.3962720000000  0.5051030000000 1.0
C      1  0.5715780000000  0.5365040000000  0.5394290000000 1.0
C      1  0.5714320000000  0.5708030000000  0.4644390000000 1.0
C      1  0.4689760000000  0.4843910000000  0.4429830000000 1.0
C      1  0.5025510000000  0.4669910000000  0.5141980000000 1.0
C      1  0.5664360000000  0.4332380000000  0.5734010000000 1.0
C      1  0.5401490000000  0.5262790000000  0.4444410000000 1.0
C      1  0.4072490000000  0.5828030000000  0.5190140000000 1.0
C      1  0.4111250000000  0.5362720000000  0.5340130000000 1.0
C      1  0.5531710000000  0.4536150000000  0.5894040000000 1.0
C      1  0.5219340000000  0.5219980000000  0.4660970000000 1.0
C      1  0.5112670000000  0.4229580000000  0.5001900000000 1.0
C      1  0.4896500000000  0.5523180000000  0.4521350000000 1.0
C      1  0.5584460000000  0.5924340000000  0.4792240000000 1.0
C      1  0.4818640000000  0.5399280000000  0.6079430000000 1.0
C      1  0.4131250000000  0.4500620000000  0.5383200000000 1.0
C      1  0.6043590000000  0.4828160000000  0.4518360000000 1.0
C      1  0.4153870000000  0.4781600000000  0.4400830000000 1.0
C      1  0.4534890000000  0.5130900000000  0.4445610000000 1.0
C      1  0.4251050000000  0.4877230000000  0.5163080000000 1.0
C      1  0.4304380000000  0.5970980000000  0.5122340000000 1.0
C      1  0.5232320000000  0.6042460000000  0.5071920000000 1.0
C      1  0.4601080000000  0.4913030000000  0.3846090000000 1.0
C      1  0.6051670000000  0.4430690000000  0.5108310000000 1.0
C      1  0.5891080000000  0.4345240000000  0.5552410000000 1.0
C      1  0.5638210000000  0.5739990000000  0.4371240000000 1.0
C      1  0.4956990000000  0.4858480000000  0.4856340000000 1.0
C      1  0.4443430000000  0.5227220000000  0.4704680000000 1.0
C      1  0.5383130000000  0.5911540000000  0.4353980000000 1.0
C      1  0.5531650000000  0.4069140000000  0.4759360000000 1.0
C      1  0.4407260000000  0.5026760000000  0.6035090000000 1.0
C      1  0.5388570000000  0.5441660000000  0.4218530000000 1.0
C      1  0.5752010000000  0.5062290000000  0.5798950000000 1.0
C      1  0.5049700000000  0.5934200000000  0.5299840000000 1.0
C      1  0.4347340000000  0.5877720000000  0.5644910000000 1.0
C      1  0.4616220000000  0.5985940000000  0.4835080000000 1.0
C      1  0.4535460000000  0.5464400000000  0.4844240000000 1.0
C      1  0.4662930000000  0.4634400000000  0.3942810000000 1.0
C      1  0.5149390000000  0.5839930000000  0.4212590000000 1.0
C      1  0.4824900000000  0.5798700000000  0.4483450000000 1.0
C      1  0.4756750000000  0.5608860000000  0.5845520000000 1.0
C      1  0.5049910000000  0.3857300000000  0.5410160000000 1.0
C      1  0.4935360000000  0.4313490000000  0.4163790000000 1.0
C      1  0.4409340000000  0.4180290000000  0.4598610000000 1.0
C      1  0.5064380000000  0.3779680000000  0.5650330000000 1.0
C      1  0.5295750000000  0.5382760000000  0.5632860000000 1.0
C      1  0.5828550000000  0.4242980000000  0.5123670000000 1.0
C      1  0.3790880000000  0.4965090000000  0.4682430000000 1.0
C      1  0.4095780000000  0.5899970000000  0.5483910000000 1.0
C      1  0.5171370000000  0.4659750000000  0.3908730000000 1.0
C      1  0.5957230000000  0.4781350000000  0.5427910000000 1.0
C      1  0.4800620000000  0.4763410000000  0.5288690000000 1.0
C      1  0.5047350000000  0.4284580000000  0.4710190000000 1.0
C      1  0.5191850000000  0.4884880000000  0.4368690000000 1.0
C      1  0.5134030000000  0.4945720000000  0.3849250000000 1.0
C      1  0.6067800000000  0.4513040000000  0.5389880000000 1.0
C      1  0.5456160000000  0.5774200000000  0.5548460000000 1.0
C      1  0.4757510000000  0.4323040000000  0.5651160000000 1.0
C      1  0.5030550000000  0.4573580000000  0.6053330000000 1.0
C      1  0.5080040000000  0.5440010000000  0.5441950000000 1.0
C      1  0.4604470000000  0.5526180000000  0.5404460000000 1.0
C      1  0.4261560000000  0.5068250000000  0.4266140000000 1.0
C      1  0.6111630000000  0.5061990000000  0.4744150000000 1.0
C      1  0.5632100000000  0.4759510000000  0.4126880000000 1.0
C      1  0.5657760000000  0.4731570000000  0.5379820000000 1.0
C      1  0.5225320000000  0.4902990000000  0.5757880000000 1.0
C      1  0.6038910000000  0.5044250000000  0.5323630000000 1.0
C      1  0.4092030000000  0.5488210000000  0.4601510000000 1.0
C      1  0.4207540000000  0.5388780000000  0.4355150000000 1.0
C      1  0.3983540000000  0.5387470000000  0.4875610000000 1.0
C      1  0.4312910000000  0.4651740000000  0.4992880000000 1.0
C      1  0.5773160000000  0.4810450000000  0.4911140000000 1.0
C      1  0.4627610000000  0.3989940000000  0.4524700000000 1.0
C      1  0.4548920000000  0.4778350000000  0.6151890000000 1.0
C      1  0.4573320000000  0.4596600000000  0.5294110000000 1.0
C      1  0.4405020000000  0.5010560000000  0.4026220000000 1.0
C      1  0.4102410000000  0.5255400000000  0.5621770000000 1.0
C      1  0.5612790000000  0.5770590000000  0.5296470000000 1.0
C      1  0.4933730000000  0.5010670000000  0.4316920000000 1.0
C      1  0.5694360000000  0.4553000000000  0.4581700000000 1.0
C      1  0.5678500000000  0.5182710000000  0.4520230000000 1.0
C      1  0.4462610000000  0.5732810000000  0.4774000000000 1.0
C      1  0.5635390000000  0.4845320000000  0.4637660000000 1.0
C      1  0.5635190000000  0.4902240000000  0.5141440000000 1.0
C      1  0.5295040000000  0.5205570000000  0.5873830000000 1.0
C      1  0.5111320000000  0.5651480000000  0.5245970000000 1.0
C      1  0.4397950000000  0.4551600000000  0.6052910000000 1.0
C      1  0.5267920000000  0.5079890000000  0.5219770000000 1.0
C      1  0.4595270000000  0.4138230000000  0.5485290000000 1.0
C      1  0.4553120000000  0.4364570000000  0.4770970000000 1.0
C      1  0.5165230000000  0.3945540000000  0.5030500000000 1.0
C      1  0.4254050000000  0.5735750000000  0.4568220000000 1.0
C      1  0.5280790000000  0.3905450000000  0.4760000000000 1.0
C      1  0.5519510000000  0.5400840000000  0.4956030000000 1.0
C      1  0.5635510000000  0.4800830000000  0.5858590000000 1.0
C      1  0.4442620000000  0.5085030000000  0.5173810000000 1.0
C      1  0.5216480000000  0.5630500000000  0.5966820000000 1.0
C      1  0.5668710000000  0.5509930000000  0.4192300000000 1.0
C      1  0.4562190000000  0.6092740000000  0.5111020000000 1.0
C      1  0.4629800000000  0.5192050000000  0.6095010000000 1.0
C      1  0.5131690000000  0.4412170000000  0.5200630000000 1.0
C      1  0.4934970000000  0.5536200000000  0.4807530000000 1.0
C      1  0.4921870000000  0.4499190000000  0.3942670000000 1.0
C      1  0.5217780000000  0.4321530000000  0.5463630000000 1.0
C      1  0.6188490000000  0.5302100000000  0.4682210000000 1.0
C      1  0.5134500000000  0.6073440000000  0.4800530000000 1.0
C      1  0.4747660000000  0.6006100000000  0.5317570000000 1.0
C      1  0.4805370000000  0.4441260000000  0.4670050000000 1.0
C      1  0.4377180000000  0.5631360000000  0.4312040000000 1.0
C      1  0.4862910000000  0.5059640000000  0.3851970000000 1.0
C      1  0.5987980000000  0.4558230000000  0.4611470000000 1.0
C      1  0.5756950000000  0.5229670000000  0.4239190000000 1.0
C      1  0.4492610000000  0.4436790000000  0.5046350000000 1.0
C      1  0.5950440000000  0.5426570000000  0.4996010000000 1.0
C      1  0.5212550000000  0.4402150000000  0.4252710000000 1.0
C      1  0.5305250000000  0.5408410000000  0.4842430000000 1.0
C      1  0.4849440000000  0.4783110000000  0.6069760000000 1.0
C      1  0.5745840000000  0.5426710000000  0.4760980000000 1.0
C      1  0.5464510000000  0.5570670000000  0.5776510000000 1.0
C      1  0.4403050000000  0.4129080000000  0.5117060000000 1.0
C      1  0.5351070000000  0.5120490000000  0.3925610000000 1.0
C      1  0.5605380000000  0.5038320000000  0.4058750000000 1.0
C      1  0.5556750000000  0.3937140000000  0.5153450000000 1.0
C      1  0.4519660000000  0.5031570000000  0.4901500000000 1.0
C      1  0.5888930000000  0.5179780000000  0.5534380000000 1.0
C      1  0.6050940000000  0.5158540000000  0.5040790000000 1.0
C      1  0.4210910000000  0.4980850000000  0.5672830000000 1.0
C      1  0.5266970000000  0.5383050000000  0.3981970000000 1.0
C      1  0.4053220000000  0.4579430000000  0.4886230000000 1.0
C      1  0.4651060000000  0.5743470000000  0.4253260000000 1.0
C      1  0.4782880000000  0.5360460000000  0.4977780000000 1.0
C      1  0.4259580000000  0.5461480000000  0.5732910000000 1.0
C      1  0.4756180000000  0.3972140000000  0.5306080000000 1.0
C      1  0.5008820000000  0.5496640000000  0.3946570000000 1.0
C      1  0.4402720000000  0.5351520000000  0.5284480000000 1.0
C      1  0.5829990000000  0.5573560000000  0.5234080000000 1.0
C      1  0.4784430000000  0.5418630000000  0.5608480000000 1.0
C      1  0.4307850000000  0.4571360000000  0.4278490000000 1.0
C      1  0.5015910000000  0.5203320000000  0.5273000000000 1.0
C      1  0.4693840000000  0.4193180000000  0.4291300000000 1.0
C      1  0.5362860000000  0.4782820000000  0.5533430000000 1.0
C      1  0.5526060000000  0.4328010000000  0.4625570000000 1.0
C      1  0.5022600000000  0.5776160000000  0.5814170000000 1.0
C      1  0.5023350000000  0.3957840000000  0.4646370000000 1.0
C      1  0.5680940000000  0.4385170000000  0.5338260000000 1.0
C      1  0.4001840000000  0.5529650000000  0.5124760000000 1.0
C      1  0.4586910000000  0.5818930000000  0.5464770000000 1.0
C      1  0.5263280000000  0.4375070000000  0.4529980000000 1.0
C      1  0.5207330000000  0.4960060000000  0.4769700000000 1.0
C      1  0.5587110000000  0.5272030000000  0.5899780000000 1.0
C      1  0.4816570000000  0.5294360000000  0.4017730000000 1.0
C      1  0.5500570000000  0.5940890000000  0.5076920000000 1.0
C      1  0.3986920000000  0.4738180000000  0.4630230000000 1.0
C      1  0.5247620000000  0.4795560000000  0.5266300000000 1.0
C      1  0.5367980000000  0.6025870000000  0.4627470000000 1.0
C      1  0.5054960000000  0.4344120000000  0.5698900000000 1.0
C      1  0.4343830000000  0.4529430000000  0.5750290000000 1.0
C      1  0.5695370000000  0.4039210000000  0.4988200000000 1.0
C      1  0.5167430000000  0.5594960000000  0.4966300000000 1.0
C      1  0.4430080000000  0.5659930000000  0.5826700000000 1.0
C      1  0.5352970000000  0.4778130000000  0.4602810000000 1.0
C      1  0.4584820000000  0.4545700000000  0.5578700000000 1.0
C      1  0.4864060000000  0.6011460000000  0.4695740000000 1.0
C      1  0.5110770000000  0.5387530000000  0.6067190000000 1.0
C      1  0.4150760000000  0.4694400000000  0.5605080000000 1.0
C      1  0.4940360000000  0.4910510000000  0.5823780000000 1.0
C      1  0.3946470000000  0.4609850000000  0.5162280000000 1.0
C      1  0.4765540000000  0.3907660000000  0.4768290000000 1.0
C      1  0.4571620000000  0.4667910000000  0.4213710000000 1.0
C      1  0.4326640000000  0.4253560000000  0.5364010000000 1.0
END
