TITL C-4164246-3563-582 49.1961974003803 125000 -20196.8896803807 0 0 135 (C1) n - 1
REM
REM in /home/nfs/bkarasulu/CARBON/AIRSS/Generating-Clusters/ReaxFF-fromJPCA2015/Units_Real/with-SteepDescent/Only-C1/SD-CG/Try1-3A/FIRE-CG
REM
REM
REM
REM
REM
REM ./C.cell (11c1c37f851c82e70ff6c80c92926a4b)
REM
REM compiler GCC version 9.2.1 20190827 (Red Hat 9.2.1-1)
REM options -cpp -mtune=generic -march=x86-64 -g -O0 -fpre-include=/usr/include/finclude/math-vector-fortran.h
REM seed 1789180560 -974165575 278643875 -892041303 -2046083488 -108284862 705852852 518704326 1858194846 1483190461 479528249 -1684071263 1130968809 1794038853 1846996025 1376474120 93915192 744565341 -1118307496 -324991796 1127045351 1025969548 681424966 352597359 1436278640 1470235050 830340296 1049433922 1319999909 1825453596 -736778124 1323029755 9880611
REM
CELL 1.54180   50.00000   50.00000   50.00000   90.00000   90.00000   90.00000
LATT -1
SFAC C  
C      1  0.4991760000000  0.3952350000000  0.5102930000000 1.0
C      1  0.4495580000000  0.5963560000000  0.4743600000000 1.0
C      1  0.4902310000000  0.5586410000000  0.4173650000000 1.0
C      1  0.4243180000000  0.4882900000000  0.5661920000000 1.0
C      1  0.5777800000000  0.5068950000000  0.5027380000000 1.0
C      1  0.5112700000000  0.5301620000000  0.4655880000000 1.0
C      1  0.5049890000000  0.5855150000000  0.5525440000000 1.0
C      1  0.4121590000000  0.5684130000000  0.5036050000000 1.0
C      1  0.4926250000000  0.5532870000000  0.4651780000000 1.0
C      1  0.4732910000000  0.4648040000000  0.4842150000000 1.0
C      1  0.5544160000000  0.4960740000000  0.4148060000000 1.0
C      1  0.4328360000000  0.5092130000000  0.5304940000000 1.0
C      1  0.5001560000000  0.4021560000000  0.4608270000000 1.0
C      1  0.4864640000000  0.4444510000000  0.5873300000000 1.0
C      1  0.5118440000000  0.4504530000000  0.4229810000000 1.0
C      1  0.4880150000000  0.4890840000000  0.4013180000000 1.0
C      1  0.5120510000000  0.4857950000000  0.5301560000000 1.0
C      1  0.5032440000000  0.5861610000000  0.4597760000000 1.0
C      1  0.5604530000000  0.5755840000000  0.5096050000000 1.0
C      1  0.4648270000000  0.5153470000000  0.4943750000000 1.0
C      1  0.4086700000000  0.5029360000000  0.5458140000000 1.0
C      1  0.4602700000000  0.5065130000000  0.5397930000000 1.0
C      1  0.4425740000000  0.4475890000000  0.4485630000000 1.0
C      1  0.4380740000000  0.4200210000000  0.5027080000000 1.0
C      1  0.5579390000000  0.4817840000000  0.5759900000000 1.0
C      1  0.5329620000000  0.4652530000000  0.4682110000000 1.0
C      1  0.4493570000000  0.5360340000000  0.5825190000000 1.0
C      1  0.4619250000000  0.5939400000000  0.5270520000000 1.0
C      1  0.5874400000000  0.5004420000000  0.5293610000000 1.0
C      1  0.4254810000000  0.5473920000000  0.4842430000000 1.0
C      1  0.5216580000000  0.4414760000000  0.4781030000000 1.0
C      1  0.5067960000000  0.5096480000000  0.5202200000000 1.0
C      1  0.4906750000000  0.4698360000000  0.5427920000000 1.0
C      1  0.4915420000000  0.4796700000000  0.4636520000000 1.0
C      1  0.4210040000000  0.4645010000000  0.4596860000000 1.0
C      1  0.4221950000000  0.4413200000000  0.5129760000000 1.0
C      1  0.5103100000000  0.4228000000000  0.5478960000000 1.0
C      1  0.4584730000000  0.4134960000000  0.4835570000000 1.0
C      1  0.4995100000000  0.4465690000000  0.5609520000000 1.0
C      1  0.4538650000000  0.4886260000000  0.4900220000000 1.0
C      1  0.5738110000000  0.5477960000000  0.5376680000000 1.0
C      1  0.4788260000000  0.5424750000000  0.5433580000000 1.0
C      1  0.5107320000000  0.4710120000000  0.3996530000000 1.0
C      1  0.4415310000000  0.5811980000000  0.4551990000000 1.0
C      1  0.4596060000000  0.4522400000000  0.4247330000000 1.0
C      1  0.5854830000000  0.4896540000000  0.4809680000000 1.0
C      1  0.5393480000000  0.5296580000000  0.4750830000000 1.0
C      1  0.5671200000000  0.4784070000000  0.4342000000000 1.0
C      1  0.5202830000000  0.5791720000000  0.5076130000000 1.0
C      1  0.4628530000000  0.6032460000000  0.4979070000000 1.0
C      1  0.5713580000000  0.5479660000000  0.5083300000000 1.0
C      1  0.5508770000000  0.5263290000000  0.5021550000000 1.0
C      1  0.5230820000000  0.5324640000000  0.5223090000000 1.0
C      1  0.5074250000000  0.5125510000000  0.4005420000000 1.0
C      1  0.5123200000000  0.5397890000000  0.4102840000000 1.0
C      1  0.4750330000000  0.5236380000000  0.5938700000000 1.0
C      1  0.4194960000000  0.5594790000000  0.5301070000000 1.0
C      1  0.5812150000000  0.4961020000000  0.4528570000000 1.0
C      1  0.5827900000000  0.4599860000000  0.4896070000000 1.0
C      1  0.5610000000000  0.4501830000000  0.4419580000000 1.0
C      1  0.4890980000000  0.6009630000000  0.5331660000000 1.0
C      1  0.5205210000000  0.5308330000000  0.5571600000000 1.0
C      1  0.5333910000000  0.5816650000000  0.4618540000000 1.0
C      1  0.5386570000000  0.4805010000000  0.4914920000000 1.0
C      1  0.4707260000000  0.5467290000000  0.4396160000000 1.0
C      1  0.4698270000000  0.5008330000000  0.6115720000000 1.0
C      1  0.5360660000000  0.4368990000000  0.4351920000000 1.0
C      1  0.4748740000000  0.4915940000000  0.5590670000000 1.0
C      1  0.4635160000000  0.4796400000000  0.4154210000000 1.0
C      1  0.4488950000000  0.4984510000000  0.4321560000000 1.0
C      1  0.4975800000000  0.5123970000000  0.5738140000000 1.0
C      1  0.5592230000000  0.4150260000000  0.5256460000000 1.0
C      1  0.5169090000000  0.4743390000000  0.5067530000000 1.0
C      1  0.4798090000000  0.5177990000000  0.5232260000000 1.0
C      1  0.5713930000000  0.4392080000000  0.4672340000000 1.0
C      1  0.5126320000000  0.4452830000000  0.5057360000000 1.0
C      1  0.5819130000000  0.4320000000000  0.5280040000000 1.0
C      1  0.4577460000000  0.4554210000000  0.5842790000000 1.0
C      1  0.5626080000000  0.5099530000000  0.5706000000000 1.0
C      1  0.5037470000000  0.6018640000000  0.5080980000000 1.0
C      1  0.4921690000000  0.5084590000000  0.4579010000000 1.0
C      1  0.5768320000000  0.5238570000000  0.4436800000000 1.0
C      1  0.4594760000000  0.4406530000000  0.4713200000000 1.0
C      1  0.5536350000000  0.4008980000000  0.4993890000000 1.0
C      1  0.4108220000000  0.5162070000000  0.4560650000000 1.0
C      1  0.5387920000000  0.5459530000000  0.4207370000000 1.0
C      1  0.4645340000000  0.4831970000000  0.5865180000000 1.0
C      1  0.4958820000000  0.5815450000000  0.4320140000000 1.0
C      1  0.4877070000000  0.5624050000000  0.5510630000000 1.0
C      1  0.5333690000000  0.5771700000000  0.5561040000000 1.0
C      1  0.5299170000000  0.4930630000000  0.3984250000000 1.0
C      1  0.5074150000000  0.5541380000000  0.5097820000000 1.0
C      1  0.4130270000000  0.4590630000000  0.4887220000000 1.0
C      1  0.4828960000000  0.5538010000000  0.4933820000000 1.0
C      1  0.4289400000000  0.4788510000000  0.4978530000000 1.0
C      1  0.4419860000000  0.5586780000000  0.4393200000000 1.0
C      1  0.4342160000000  0.5126200000000  0.5762350000000 1.0
C      1  0.4047360000000  0.5206560000000  0.4837910000000 1.0
C      1  0.5307030000000  0.5532160000000  0.5721840000000 1.0
C      1  0.5328690000000  0.4754140000000  0.5928750000000 1.0
C      1  0.5411090000000  0.5278170000000  0.5752930000000 1.0
C      1  0.4843280000000  0.3982860000000  0.4845340000000 1.0
C      1  0.5569060000000  0.5727040000000  0.5391340000000 1.0
C      1  0.4494180000000  0.5600590000000  0.5657690000000 1.0
C      1  0.5291870000000  0.4195420000000  0.4595450000000 1.0
C      1  0.5570150000000  0.4157870000000  0.4735500000000 1.0
C      1  0.4833490000000  0.4527390000000  0.5138360000000 1.0
C      1  0.5780920000000  0.5206690000000  0.5484340000000 1.0
C      1  0.4206780000000  0.5455410000000  0.4539790000000 1.0
C      1  0.5111570000000  0.4540300000000  0.6004550000000 1.0
C      1  0.5149100000000  0.4930300000000  0.5845470000000 1.0
C      1  0.4248350000000  0.4910140000000  0.4473680000000 1.0
C      1  0.4407010000000  0.4435270000000  0.5376090000000 1.0
C      1  0.5269840000000  0.3966710000000  0.5058730000000 1.0
C      1  0.4882010000000  0.4109970000000  0.5336960000000 1.0
C      1  0.5593450000000  0.5246620000000  0.4203170000000 1.0
C      1  0.5606170000000  0.5428590000000  0.4589860000000 1.0
C      1  0.5971350000000  0.4525540000000  0.5167740000000 1.0
C      1  0.4391660000000  0.4598050000000  0.5620230000000 1.0
C      1  0.4135610000000  0.5300770000000  0.5328530000000 1.0
C      1  0.4558490000000  0.5415060000000  0.4927750000000 1.0
C      1  0.5581680000000  0.4670590000000  0.5070750000000 1.0
C      1  0.4883330000000  0.6038930000000  0.4843410000000 1.0
C      1  0.5406680000000  0.5835710000000  0.4897040000000 1.0
C      1  0.5689720000000  0.4640130000000  0.5556410000000 1.0
C      1  0.5336780000000  0.4323390000000  0.5311140000000 1.0
C      1  0.4677710000000  0.4320760000000  0.5280150000000 1.0
C      1  0.4441650000000  0.5751970000000  0.5419570000000 1.0
C      1  0.5129430000000  0.4691530000000  0.4479480000000 1.0
C      1  0.4691800000000  0.5173510000000  0.4427920000000 1.0
C      1  0.5495740000000  0.4580600000000  0.5337150000000 1.0
C      1  0.5463750000000  0.5635670000000  0.4434300000000 1.0
C      1  0.4890000000000  0.4167750000000  0.4418850000000 1.0
C      1  0.5918150000000  0.4718300000000  0.5380220000000 1.0
C      1  0.4831460000000  0.4348910000000  0.4233100000000 1.0
END
