TITL C-4164236-1577-744 14.6721029605461 125000 -16816.7258453788 0 0 113 (C1) n - 1
REM
REM in /home/nfs/bkarasulu/CARBON/AIRSS/Generating-Clusters/ReaxFF-fromJPCA2015/Units_Real/with-SteepDescent/Only-C1/SD-CG/Try1-3A/FIRE-CG
REM
REM
REM
REM
REM
REM ./C.cell (11c1c37f851c82e70ff6c80c92926a4b)
REM
REM compiler GCC version 9.2.1 20190827 (Red Hat 9.2.1-1)
REM options -cpp -mtune=generic -march=x86-64 -g -O0 -fpre-include=/usr/include/finclude/math-vector-fortran.h
REM seed -1756989037 -745079764 -474481607 319962880 2081842012 -311577796 -364397142 -239030083 2056326886 -1810330591 1368299692 305983998 1524733763 -1428016384 1854132834 -816909785 -1253302525 -974041879 -1540669585 -66127786 -140236659 -526473920 -463691152 -999880176 -1967927803 1305482838 -372607046 1615504561 -700662712 362374268 -600389474 1649771676 -1019586724
REM
CELL 1.54180   50.00000   50.00000   50.00000   90.00000   90.00000   90.00000
LATT -1
SFAC C  
C      1  0.5444490000000  0.5469510000000  0.5464420000000 1.0
C      1  0.5477190000000  0.4668830000000  0.5442900000000 1.0
C      1  0.4623850000000  0.3973710000000  0.5009990000000 1.0
C      1  0.5096490000000  0.5038010000000  0.4209550000000 1.0
C      1  0.4562390000000  0.4201360000000  0.4523070000000 1.0
C      1  0.4364410000000  0.4303640000000  0.5379230000000 1.0
C      1  0.5697050000000  0.5637230000000  0.4567330000000 1.0
C      1  0.4104530000000  0.5156260000000  0.5100580000000 1.0
C      1  0.5153570000000  0.5465070000000  0.4904700000000 1.0
C      1  0.4482050000000  0.5619910000000  0.5279410000000 1.0
C      1  0.5272410000000  0.4823650000000  0.4290120000000 1.0
C      1  0.4613270000000  0.4944680000000  0.5716490000000 1.0
C      1  0.4816900000000  0.4995360000000  0.4264880000000 1.0
C      1  0.5514040000000  0.5430520000000  0.4677400000000 1.0
C      1  0.5882390000000  0.4870280000000  0.5278030000000 1.0
C      1  0.4921650000000  0.4794680000000  0.4935740000000 1.0
C      1  0.4419940000000  0.4455320000000  0.4448160000000 1.0
C      1  0.4941160000000  0.5873980000000  0.5273510000000 1.0
C      1  0.5268350000000  0.4451460000000  0.5485500000000 1.0
C      1  0.5188000000000  0.5776580000000  0.4360010000000 1.0
C      1  0.4741810000000  0.5367790000000  0.5088540000000 1.0
C      1  0.4317730000000  0.4559280000000  0.5529450000000 1.0
C      1  0.4904330000000  0.4943760000000  0.5779430000000 1.0
C      1  0.4255390000000  0.4786470000000  0.5337190000000 1.0
C      1  0.4684280000000  0.4910620000000  0.5005510000000 1.0
C      1  0.5445230000000  0.4294710000000  0.5006880000000 1.0
C      1  0.5198150000000  0.5831010000000  0.4611410000000 1.0
C      1  0.5239760000000  0.4887280000000  0.5319260000000 1.0
C      1  0.5207250000000  0.5855640000000  0.5159970000000 1.0
C      1  0.5329410000000  0.4180940000000  0.4762670000000 1.0
C      1  0.5360800000000  0.4812540000000  0.4833180000000 1.0
C      1  0.4926140000000  0.5800110000000  0.5553070000000 1.0
C      1  0.4524820000000  0.4221430000000  0.5149780000000 1.0
C      1  0.4636180000000  0.5745440000000  0.4839850000000 1.0
C      1  0.5271470000000  0.4278700000000  0.5252920000000 1.0
C      1  0.5900980000000  0.5104770000000  0.4778010000000 1.0
C      1  0.5733590000000  0.5466470000000  0.4340500000000 1.0
C      1  0.4631650000000  0.5596510000000  0.4300090000000 1.0
C      1  0.5601810000000  0.5245050000000  0.4232040000000 1.0
C      1  0.5051890000000  0.4075210000000  0.4734010000000 1.0
C      1  0.4973050000000  0.4317220000000  0.4308770000000 1.0
C      1  0.5174390000000  0.4768530000000  0.5054390000000 1.0
C      1  0.5556650000000  0.4742500000000  0.4285960000000 1.0
C      1  0.4287970000000  0.5255390000000  0.5587040000000 1.0
C      1  0.4492820000000  0.5214650000000  0.5805670000000 1.0
C      1  0.4143070000000  0.4530380000000  0.4876900000000 1.0
C      1  0.5237120000000  0.4404500000000  0.4380350000000 1.0
C      1  0.4925640000000  0.3984470000000  0.4982880000000 1.0
C      1  0.4172030000000  0.4882880000000  0.4658590000000 1.0
C      1  0.4511160000000  0.4636830000000  0.5729800000000 1.0
C      1  0.4530490000000  0.4065030000000  0.4764310000000 1.0
C      1  0.5655650000000  0.4668350000000  0.4739430000000 1.0
C      1  0.4556990000000  0.4658380000000  0.4288670000000 1.0
C      1  0.4964420000000  0.5185110000000  0.5930000000000 1.0
C      1  0.4191390000000  0.5379510000000  0.4910470000000 1.0
C      1  0.4676840000000  0.5804450000000  0.5113060000000 1.0
C      1  0.5714870000000  0.4982280000000  0.4329310000000 1.0
C      1  0.5100960000000  0.4856040000000  0.5588090000000 1.0
C      1  0.5918610000000  0.5001410000000  0.5036260000000 1.0
C      1  0.5691070000000  0.5308170000000  0.5496970000000 1.0
C      1  0.5655710000000  0.4495220000000  0.4999600000000 1.0
C      1  0.4602980000000  0.4836150000000  0.5274190000000 1.0
C      1  0.4081670000000  0.4689270000000  0.5096340000000 1.0
C      1  0.4660300000000  0.5168830000000  0.4907800000000 1.0
C      1  0.5177120000000  0.5753160000000  0.4876460000000 1.0
C      1  0.5111800000000  0.5961730000000  0.5662670000000 1.0
C      1  0.4807920000000  0.4584130000000  0.4808120000000 1.0
C      1  0.5407990000000  0.4950770000000  0.5856030000000 1.0
C      1  0.5456300000000  0.4278470000000  0.4514000000000 1.0
C      1  0.4547700000000  0.4954100000000  0.4333870000000 1.0
C      1  0.4211460000000  0.4582560000000  0.4612980000000 1.0
C      1  0.5444030000000  0.5727760000000  0.5282950000000 1.0
C      1  0.4789050000000  0.4590200000000  0.5316170000000 1.0
C      1  0.5249920000000  0.5213870000000  0.5861950000000 1.0
C      1  0.4576280000000  0.5518750000000  0.4617680000000 1.0
C      1  0.4862890000000  0.4144270000000  0.4515200000000 1.0
C      1  0.4874970000000  0.5598110000000  0.4184670000000 1.0
C      1  0.5790970000000  0.5034250000000  0.5526100000000 1.0
C      1  0.5277420000000  0.5337010000000  0.4544470000000 1.0
C      1  0.4505350000000  0.5340180000000  0.5411570000000 1.0
C      1  0.5198130000000  0.4684100000000  0.4543120000000 1.0
C      1  0.4923980000000  0.4651420000000  0.4564140000000 1.0
C      1  0.5005410000000  0.4190210000000  0.5168030000000 1.0
C      1  0.5625450000000  0.4520990000000  0.4480050000000 1.0
C      1  0.4757550000000  0.4505400000000  0.5708230000000 1.0
C      1  0.4337590000000  0.5079940000000  0.4527460000000 1.0
C      1  0.5813540000000  0.4893930000000  0.4588070000000 1.0
C      1  0.4958250000000  0.4467440000000  0.5528890000000 1.0
C      1  0.4749450000000  0.5351510000000  0.5823890000000 1.0
C      1  0.5281410000000  0.5294430000000  0.4245170000000 1.0
C      1  0.5244400000000  0.4723880000000  0.5792740000000 1.0
C      1  0.4790600000000  0.4399830000000  0.5090850000000 1.0
C      1  0.4776140000000  0.5296610000000  0.4687620000000 1.0
C      1  0.4633070000000  0.5077610000000  0.5441450000000 1.0
C      1  0.4329170000000  0.5577440000000  0.5050250000000 1.0
C      1  0.5647060000000  0.5251060000000  0.4846160000000 1.0
C      1  0.4840230000000  0.4583430000000  0.4301830000000 1.0
C      1  0.4176190000000  0.5077630000000  0.5371380000000 1.0
C      1  0.4328120000000  0.5339220000000  0.4648900000000 1.0
C      1  0.5050950000000  0.5332500000000  0.4696980000000 1.0
C      1  0.5229520000000  0.5412450000000  0.5661320000000 1.0
C      1  0.5614590000000  0.5740990000000  0.5067730000000 1.0
C      1  0.4907430000000  0.5368400000000  0.5309130000000 1.0
C      1  0.5453390000000  0.5062690000000  0.4963800000000 1.0
C      1  0.4933650000000  0.5486230000000  0.5607970000000 1.0
C      1  0.5608610000000  0.4855170000000  0.5664080000000 1.0
C      1  0.5280010000000  0.6108110000000  0.5761990000000 1.0
C      1  0.5735260000000  0.5725480000000  0.4836410000000 1.0
C      1  0.5148330000000  0.5342960000000  0.5161600000000 1.0
C      1  0.4045900000000  0.4929320000000  0.4925950000000 1.0
C      1  0.5153000000000  0.5572840000000  0.4169760000000 1.0
C      1  0.5345810000000  0.5145180000000  0.5225500000000 1.0
C      1  0.5704010000000  0.4632910000000  0.5245010000000 1.0
END
