TITL C-4164243-3780-489 2.3617227930929 125000 -9466.71843566493 0 0 66 (C1) n - 1
REM
REM in /home/nfs/bkarasulu/CARBON/AIRSS/Generating-Clusters/ReaxFF-fromJPCA2015/Units_Real/with-SteepDescent/Only-C1/SD-CG/Try1-3A/FIRE-CG
REM
REM
REM
REM
REM
REM ./C.cell (11c1c37f851c82e70ff6c80c92926a4b)
REM
REM compiler GCC version 9.2.1 20190827 (Red Hat 9.2.1-1)
REM options -cpp -mtune=generic -march=x86-64 -g -O0 -fpre-include=/usr/include/finclude/math-vector-fortran.h
REM seed 923521170 1859928027 1272539694 -23641992 813596467 1501195410 1885825674 431576372 685550830 1111303173 -115837189 263025978 974564485 -600597238 1083073415 -685985756 1206659938 1143356287 1239643563 -1776974200 -472943393 1618986230 -685388267 -730293428 -537055386 1288526745 446665654 203388755 820109708 -1865847575 -62709121 -253505723 1250398862
REM
CELL 1.54180   50.00000   50.00000   50.00000   90.00000   90.00000   90.00000
LATT -1
SFAC C  
C      1  0.5318380000000  0.5100920000000  0.4793080000000 1.0
C      1  0.4758910000000  0.4294030000000  0.4917630000000 1.0
C      1  0.4515540000000  0.5530000000000  0.4954590000000 1.0
C      1  0.5686960000000  0.4773230000000  0.4731230000000 1.0
C      1  0.5491450000000  0.4344530000000  0.4998130000000 1.0
C      1  0.4981200000000  0.4246960000000  0.4491140000000 1.0
C      1  0.4659140000000  0.4841140000000  0.5515810000000 1.0
C      1  0.4640090000000  0.5241150000000  0.4409400000000 1.0
C      1  0.5139180000000  0.5098040000000  0.5724470000000 1.0
C      1  0.4635730000000  0.4416630000000  0.5175050000000 1.0
C      1  0.5386270000000  0.5461860000000  0.5475350000000 1.0
C      1  0.5155230000000  0.5666390000000  0.4661360000000 1.0
C      1  0.5036230000000  0.4219070000000  0.5002630000000 1.0
C      1  0.5236600000000  0.4353250000000  0.4532520000000 1.0
C      1  0.5571640000000  0.5490610000000  0.5007480000000 1.0
C      1  0.4860130000000  0.5022020000000  0.4526400000000 1.0
C      1  0.4846450000000  0.5195260000000  0.4963980000000 1.0
C      1  0.4537280000000  0.4921450000000  0.5258970000000 1.0
C      1  0.5201690000000  0.5283550000000  0.4328180000000 1.0
C      1  0.5161830000000  0.5100270000000  0.4549050000000 1.0
C      1  0.4448810000000  0.5439570000000  0.5228440000000 1.0
C      1  0.5019870000000  0.5701670000000  0.5326220000000 1.0
C      1  0.5086000000000  0.4279900000000  0.5278760000000 1.0
C      1  0.4728630000000  0.5539900000000  0.5682110000000 1.0
C      1  0.5388220000000  0.4347170000000  0.5288750000000 1.0
C      1  0.4722490000000  0.5001740000000  0.4795640000000 1.0
C      1  0.4464450000000  0.5031090000000  0.5516560000000 1.0
C      1  0.5076250000000  0.4684570000000  0.4958380000000 1.0
C      1  0.5507200000000  0.4926060000000  0.4916510000000 1.0
C      1  0.4861250000000  0.4765060000000  0.4366700000000 1.0
C      1  0.5415370000000  0.5606550000000  0.4792760000000 1.0
C      1  0.4835490000000  0.4594430000000  0.4832750000000 1.0
C      1  0.4929070000000  0.4729560000000  0.5451660000000 1.0
C      1  0.4441870000000  0.4625660000000  0.5128960000000 1.0
C      1  0.4790800000000  0.5741110000000  0.5486240000000 1.0
C      1  0.4436500000000  0.4989360000000  0.4737520000000 1.0
C      1  0.4375460000000  0.5145600000000  0.4463400000000 1.0
C      1  0.5554370000000  0.5097380000000  0.5384730000000 1.0
C      1  0.5593600000000  0.5371240000000  0.5279480000000 1.0
C      1  0.5171280000000  0.5050760000000  0.4135960000000 1.0
C      1  0.5444390000000  0.4867330000000  0.5214780000000 1.0
C      1  0.4886960000000  0.5303550000000  0.5796650000000 1.0
C      1  0.4679330000000  0.5632550000000  0.4739460000000 1.0
C      1  0.4761110000000  0.5497030000000  0.4482570000000 1.0
C      1  0.4740320000000  0.4571970000000  0.4551490000000 1.0
C      1  0.4943600000000  0.5760790000000  0.5110390000000 1.0
C      1  0.4859970000000  0.4442400000000  0.5357640000000 1.0
C      1  0.5225980000000  0.4394180000000  0.4852280000000 1.0
C      1  0.4559260000000  0.5583400000000  0.5461300000000 1.0
C      1  0.5528290000000  0.4665570000000  0.4513070000000 1.0
C      1  0.5117230000000  0.5246540000000  0.4923070000000 1.0
C      1  0.5396440000000  0.5198220000000  0.5611420000000 1.0
C      1  0.5032350000000  0.5180400000000  0.5181160000000 1.0
C      1  0.5112340000000  0.4852030000000  0.5193020000000 1.0
C      1  0.5504920000000  0.4592080000000  0.5366480000000 1.0
C      1  0.5111630000000  0.4770640000000  0.4224240000000 1.0
C      1  0.4726210000000  0.4276750000000  0.4589980000000 1.0
C      1  0.4371240000000  0.5165350000000  0.5297630000000 1.0
C      1  0.4935010000000  0.5758230000000  0.4835170000000 1.0
C      1  0.5325140000000  0.4575540000000  0.4353150000000 1.0
C      1  0.5134570000000  0.5454280000000  0.5331570000000 1.0
C      1  0.4392820000000  0.4785280000000  0.4907110000000 1.0
C      1  0.5045970000000  0.5516930000000  0.4437110000000 1.0
C      1  0.4745320000000  0.5285250000000  0.6004570000000 1.0
C      1  0.5659650000000  0.4536840000000  0.4885220000000 1.0
C      1  0.5093000000000  0.4818130000000  0.5711500000000 1.0
END
