TITL C-4164235-1454-59 25.1214849131404 125000 -27692.3078721111 0 0 183 (C1) n - 1
REM
REM in /home/nfs/bkarasulu/CARBON/AIRSS/Generating-Clusters/ReaxFF-fromJPCA2015/Units_Real/with-SteepDescent/Only-C1/SD-CG/Try1-3A/FIRE-CG
REM
REM
REM
REM
REM
REM ./C.cell (11c1c37f851c82e70ff6c80c92926a4b)
REM
REM compiler GCC version 9.2.1 20190827 (Red Hat 9.2.1-1)
REM options -cpp -mtune=generic -march=x86-64 -g -O0 -fpre-include=/usr/include/finclude/math-vector-fortran.h
REM seed 2067931631 1410483801 1029039803 949472996 -1341801572 -44105040 -47236174 -202088993 825455257 1765883587 253279185 1501470677 1052738156 -1161240711 1827696359 1475197184 1688407044 -1115059234 -310484869 -1572361505 -678462726 1247305148 889664139 -796930402 1899972188 -1250423787 -360885355 421674778 1966156971 913371253 1854093663 323743269 -932428678
REM
CELL 1.54180   50.00000   50.00000   50.00000   90.00000   90.00000   90.00000
LATT -1
SFAC C  
C      1  0.5535310000000  0.4806270000000  0.4688160000000 1.0
C      1  0.4755970000000  0.5987800000000  0.5350320000000 1.0
C      1  0.5913010000000  0.5227720000000  0.4454210000000 1.0
C      1  0.4751630000000  0.4003660000000  0.4674240000000 1.0
C      1  0.5064260000000  0.4393240000000  0.4908600000000 1.0
C      1  0.4421760000000  0.4721930000000  0.5095380000000 1.0
C      1  0.5441360000000  0.4990450000000  0.4458640000000 1.0
C      1  0.5555040000000  0.5884560000000  0.5258980000000 1.0
C      1  0.5429640000000  0.3972830000000  0.5088670000000 1.0
C      1  0.5346780000000  0.5069830000000  0.4019800000000 1.0
C      1  0.5290720000000  0.5417990000000  0.5259490000000 1.0
C      1  0.4555240000000  0.4410420000000  0.5104010000000 1.0
C      1  0.5423020000000  0.5018520000000  0.6221900000000 1.0
C      1  0.5577140000000  0.4976990000000  0.4169670000000 1.0
C      1  0.3944880000000  0.5017760000000  0.5110940000000 1.0
C      1  0.4956470000000  0.5322850000000  0.4653900000000 1.0
C      1  0.4810970000000  0.4541330000000  0.4093750000000 1.0
C      1  0.4386700000000  0.5146470000000  0.5222740000000 1.0
C      1  0.5857870000000  0.4773820000000  0.5631600000000 1.0
C      1  0.4571720000000  0.5309140000000  0.4477210000000 1.0
C      1  0.5309210000000  0.5032840000000  0.5552480000000 1.0
C      1  0.5021810000000  0.4782980000000  0.5080780000000 1.0
C      1  0.4899670000000  0.5618920000000  0.5743980000000 1.0
C      1  0.4771030000000  0.5383720000000  0.5225840000000 1.0
C      1  0.4802930000000  0.4637990000000  0.5440460000000 1.0
C      1  0.4961030000000  0.5275150000000  0.3967420000000 1.0
C      1  0.4507940000000  0.5155690000000  0.4961320000000 1.0
C      1  0.5943170000000  0.4511850000000  0.4936930000000 1.0
C      1  0.3978140000000  0.4744290000000  0.5485490000000 1.0
C      1  0.4619730000000  0.4898750000000  0.4974030000000 1.0
C      1  0.5163220000000  0.5554650000000  0.5041360000000 1.0
C      1  0.5363120000000  0.5333440000000  0.6230080000000 1.0
C      1  0.5265220000000  0.4327960000000  0.3878620000000 1.0
C      1  0.5227090000000  0.4787550000000  0.5680290000000 1.0
C      1  0.4310520000000  0.5605070000000  0.4423810000000 1.0
C      1  0.4418990000000  0.5678890000000  0.5336930000000 1.0
C      1  0.4355660000000  0.4506240000000  0.5706290000000 1.0
C      1  0.5179920000000  0.4871110000000  0.4413780000000 1.0
C      1  0.4500460000000  0.5404430000000  0.5291580000000 1.0
C      1  0.5718600000000  0.5712790000000  0.4644820000000 1.0
C      1  0.4451370000000  0.5117360000000  0.4681300000000 1.0
C      1  0.4077800000000  0.5507990000000  0.5084390000000 1.0
C      1  0.4240820000000  0.4347810000000  0.5511170000000 1.0
C      1  0.5146760000000  0.6078790000000  0.5019060000000 1.0
C      1  0.6088110000000  0.5312180000000  0.5168490000000 1.0
C      1  0.5576860000000  0.4328780000000  0.5568900000000 1.0
C      1  0.6093070000000  0.5420430000000  0.4889640000000 1.0
C      1  0.4352260000000  0.5324560000000  0.4214760000000 1.0
C      1  0.5005730000000  0.6028210000000  0.4771150000000 1.0
C      1  0.5204230000000  0.4382210000000  0.5396680000000 1.0
C      1  0.5164500000000  0.4874810000000  0.6192870000000 1.0
C      1  0.4799490000000  0.5539540000000  0.4751690000000 1.0
C      1  0.5400890000000  0.5867420000000  0.5513050000000 1.0
C      1  0.4838080000000  0.5228080000000  0.4422510000000 1.0
C      1  0.4667690000000  0.5418340000000  0.5808030000000 1.0
C      1  0.5631740000000  0.4191160000000  0.5095520000000 1.0
C      1  0.5675040000000  0.4549220000000  0.5721560000000 1.0
C      1  0.4035740000000  0.4382130000000  0.4653470000000 1.0
C      1  0.5506300000000  0.4015030000000  0.4595210000000 1.0
C      1  0.4700750000000  0.4387000000000  0.5348500000000 1.0
C      1  0.4991880000000  0.4173160000000  0.5670170000000 1.0
C      1  0.5370190000000  0.4584120000000  0.3938800000000 1.0
C      1  0.5287380000000  0.5563610000000  0.4782580000000 1.0
C      1  0.4880830000000  0.4858540000000  0.4828100000000 1.0
C      1  0.4528430000000  0.5905170000000  0.5184040000000 1.0
C      1  0.5053400000000  0.5103790000000  0.4812860000000 1.0
C      1  0.4712470000000  0.5202770000000  0.3870780000000 1.0
C      1  0.5209720000000  0.4480680000000  0.4692520000000 1.0
C      1  0.5440680000000  0.5341970000000  0.4774740000000 1.0
C      1  0.5161330000000  0.5322290000000  0.6026460000000 1.0
C      1  0.5500650000000  0.5281290000000  0.4508060000000 1.0
C      1  0.5528720000000  0.4943780000000  0.4928880000000 1.0
C      1  0.5575800000000  0.5414180000000  0.5257870000000 1.0
C      1  0.5028960000000  0.4202380000000  0.4301610000000 1.0
C      1  0.5627080000000  0.4989930000000  0.6036030000000 1.0
C      1  0.5227350000000  0.3970080000000  0.5291970000000 1.0
C      1  0.4263540000000  0.4214660000000  0.4763830000000 1.0
C      1  0.6002450000000  0.5562370000000  0.5318340000000 1.0
C      1  0.4229030000000  0.5673820000000  0.4893630000000 1.0
C      1  0.4887220000000  0.5177650000000  0.5399190000000 1.0
C      1  0.5409340000000  0.4615200000000  0.5831900000000 1.0
C      1  0.4056160000000  0.5035920000000  0.4467740000000 1.0
C      1  0.4117940000000  0.5540570000000  0.4657820000000 1.0
C      1  0.5172380000000  0.5274090000000  0.5484460000000 1.0
C      1  0.4308990000000  0.4996390000000  0.4293750000000 1.0
C      1  0.4443120000000  0.4810500000000  0.4096970000000 1.0
C      1  0.4115550000000  0.4293030000000  0.5261280000000 1.0
C      1  0.6050430000000  0.5025400000000  0.5165660000000 1.0
C      1  0.5249490000000  0.4612980000000  0.6094560000000 1.0
C      1  0.5522570000000  0.4818560000000  0.5187200000000 1.0
C      1  0.4803140000000  0.4030400000000  0.4962030000000 1.0
C      1  0.3985620000000  0.4503110000000  0.4379890000000 1.0
C      1  0.5504250000000  0.5922040000000  0.4740830000000 1.0
C      1  0.5970460000000  0.4800080000000  0.5362230000000 1.0
C      1  0.5735740000000  0.4335420000000  0.5335450000000 1.0
C      1  0.4048650000000  0.5490010000000  0.5386070000000 1.0
C      1  0.4467580000000  0.5373230000000  0.3954860000000 1.0
C      1  0.4947720000000  0.3970360000000  0.5217880000000 1.0
C      1  0.5170060000000  0.5492610000000  0.5754410000000 1.0
C      1  0.4662450000000  0.4915720000000  0.3933800000000 1.0
C      1  0.4881960000000  0.5550650000000  0.5030090000000 1.0
C      1  0.4231520000000  0.5229650000000  0.5784450000000 1.0
C      1  0.4498390000000  0.4162480000000  0.4579180000000 1.0
C      1  0.5982960000000  0.4719440000000  0.4734060000000 1.0
C      1  0.4918970000000  0.4956840000000  0.4389080000000 1.0
C      1  0.5010600000000  0.6111010000000  0.5277280000000 1.0
C      1  0.5789950000000  0.4282820000000  0.4868840000000 1.0
C      1  0.5829040000000  0.4980910000000  0.4313030000000 1.0
C      1  0.4023250000000  0.5258030000000  0.4658520000000 1.0
C      1  0.4970780000000  0.5083470000000  0.6067770000000 1.0
C      1  0.4854250000000  0.4956860000000  0.5817780000000 1.0
C      1  0.5278760000000  0.4142460000000  0.5553870000000 1.0
C      1  0.4349010000000  0.5479480000000  0.5755360000000 1.0
C      1  0.5275110000000  0.4389370000000  0.5114130000000 1.0
C      1  0.5873880000000  0.4714860000000  0.4453310000000 1.0
C      1  0.6072080000000  0.5197350000000  0.4698170000000 1.0
C      1  0.5910180000000  0.5612190000000  0.4791760000000 1.0
C      1  0.3960270000000  0.4637610000000  0.4777930000000 1.0
C      1  0.4716260000000  0.5960650000000  0.4720690000000 1.0
C      1  0.4306880000000  0.4234430000000  0.5043360000000 1.0
C      1  0.4996100000000  0.4012610000000  0.4510320000000 1.0
C      1  0.5762800000000  0.5253880000000  0.5678590000000 1.0
C      1  0.4990990000000  0.4531970000000  0.6032830000000 1.0
C      1  0.4553240000000  0.5565700000000  0.4616390000000 1.0
C      1  0.4042850000000  0.5244010000000  0.5549210000000 1.0
C      1  0.4648560000000  0.5224930000000  0.6050690000000 1.0
C      1  0.4867380000000  0.4876420000000  0.5296620000000 1.0
C      1  0.4754900000000  0.4757530000000  0.4529300000000 1.0
C      1  0.5247160000000  0.5951030000000  0.4607840000000 1.0
C      1  0.4926620000000  0.4469970000000  0.4337970000000 1.0
C      1  0.5687330000000  0.5205060000000  0.5410580000000 1.0
C      1  0.5253450000000  0.3902450000000  0.4584910000000 1.0
C      1  0.4227380000000  0.5652350000000  0.5553930000000 1.0
C      1  0.5409300000000  0.3867770000000  0.4814740000000 1.0
C      1  0.3920670000000  0.5021420000000  0.5398480000000 1.0
C      1  0.5286320000000  0.4675150000000  0.5115200000000 1.0
C      1  0.5733700000000  0.5655130000000  0.5213650000000 1.0
C      1  0.4495380000000  0.4341460000000  0.4369600000000 1.0
C      1  0.5721390000000  0.5453660000000  0.4462520000000 1.0
C      1  0.5916610000000  0.5616500000000  0.5582480000000 1.0
C      1  0.5653080000000  0.4280380000000  0.4611110000000 1.0
C      1  0.3932410000000  0.4777030000000  0.4520360000000 1.0
C      1  0.5428240000000  0.5654090000000  0.5707610000000 1.0
C      1  0.5172930000000  0.4589280000000  0.4420380000000 1.0
C      1  0.5813420000000  0.4997200000000  0.5824240000000 1.0
C      1  0.5195110000000  0.5343310000000  0.4058430000000 1.0
C      1  0.5066750000000  0.4592210000000  0.5541720000000 1.0
C      1  0.4485920000000  0.5853630000000  0.4899790000000 1.0
C      1  0.4604010000000  0.4529120000000  0.5879840000000 1.0
C      1  0.5712560000000  0.4487140000000  0.4372480000000 1.0
C      1  0.4257250000000  0.4762420000000  0.5574260000000 1.0
C      1  0.5201860000000  0.4831630000000  0.3927290000000 1.0
C      1  0.4399570000000  0.4881940000000  0.5343980000000 1.0
C      1  0.4065800000000  0.4745730000000  0.5039560000000 1.0
C      1  0.5533360000000  0.4986350000000  0.5405330000000 1.0
C      1  0.3978700000000  0.5258310000000  0.4950380000000 1.0
C      1  0.4748820000000  0.5832320000000  0.4004290000000 1.0
C      1  0.4762310000000  0.5176520000000  0.5653720000000 1.0
C      1  0.5487760000000  0.4528110000000  0.4714400000000 1.0
C      1  0.5697870000000  0.5539680000000  0.5752010000000 1.0
C      1  0.6060690000000  0.4962180000000  0.4874040000000 1.0
C      1  0.4886220000000  0.5865280000000  0.5600930000000 1.0
C      1  0.5918890000000  0.4549860000000  0.5229830000000 1.0
C      1  0.4556730000000  0.5980350000000  0.4219320000000 1.0
C      1  0.4826830000000  0.4140080000000  0.5434320000000 1.0
C      1  0.5150470000000  0.5580490000000  0.4245630000000 1.0
C      1  0.4612730000000  0.4818740000000  0.5924220000000 1.0
C      1  0.4911680000000  0.4762060000000  0.3940780000000 1.0
C      1  0.4289950000000  0.5878540000000  0.4279950000000 1.0
C      1  0.4523100000000  0.4526340000000  0.4151200000000 1.0
C      1  0.5279550000000  0.4228010000000  0.4143770000000 1.0
C      1  0.4783220000000  0.4319020000000  0.4930700000000 1.0
C      1  0.4752470000000  0.5957360000000  0.4436330000000 1.0
C      1  0.4431660000000  0.5061100000000  0.5956730000000 1.0
C      1  0.4852990000000  0.4354880000000  0.5876120000000 1.0
C      1  0.5138860000000  0.6003480000000  0.5521070000000 1.0
C      1  0.3976690000000  0.4558480000000  0.5261740000000 1.0
C      1  0.4930000000000  0.5772420000000  0.4218290000000 1.0
C      1  0.5249680000000  0.5674470000000  0.4507440000000 1.0
C      1  0.5430930000000  0.5992040000000  0.5016250000000 1.0
C      1  0.5310750000000  0.5129930000000  0.4910840000000 1.0
C      1  0.5449330000000  0.4483040000000  0.4229740000000 1.0
C      1  0.4489730000000  0.4875140000000  0.4529310000000 1.0
END
