TITL C-4164236-1577-156 -0.144186242891296 125000 -7546.98971853941 0 0 51 (C1) n - 1
REM
REM in /home/nfs/bkarasulu/CARBON/AIRSS/Generating-Clusters/ReaxFF-fromJPCA2015/Units_Real/with-SteepDescent/Only-C1/SD-CG/Try1-3A/FIRE-CG
REM
REM
REM
REM
REM
REM ./C.cell (11c1c37f851c82e70ff6c80c92926a4b)
REM
REM compiler GCC version 9.2.1 20190827 (Red Hat 9.2.1-1)
REM options -cpp -mtune=generic -march=x86-64 -g -O0 -fpre-include=/usr/include/finclude/math-vector-fortran.h
REM seed 1379032061 2106142026 -908887373 -1649438091 -775563819 -2069054476 527739254 228017650 -495382158 -490755006 -1523556377 -1982381913 741946369 -952665706 1014451641 -447315535 -29233814 -355380994 1645763580 -885750971 1140444090 1241733116 -1148150561 -1546541722 1710869754 -1207914764 1200961885 -780701877 1023710029 1802765615 -1450193204 1195295531 2061281369
REM
CELL 1.54180   50.00000   50.00000   50.00000   90.00000   90.00000   90.00000
LATT -1
SFAC C  
C      1  0.5608090000000  0.4816410000000  0.4803000000000 1.0
C      1  0.4717350000000  0.5760050000000  0.4604750000000 1.0
C      1  0.4394710000000  0.4773670000000  0.5410250000000 1.0
C      1  0.4831400000000  0.4955190000000  0.5695300000000 1.0
C      1  0.5625510000000  0.4733350000000  0.5066880000000 1.0
C      1  0.5134100000000  0.5074450000000  0.5073000000000 1.0
C      1  0.4612240000000  0.5144770000000  0.5193410000000 1.0
C      1  0.4369640000000  0.4988030000000  0.5243170000000 1.0
C      1  0.4829130000000  0.4562370000000  0.5550790000000 1.0
C      1  0.5426580000000  0.4511760000000  0.5097110000000 1.0
C      1  0.5340740000000  0.4718140000000  0.4421980000000 1.0
C      1  0.4624660000000  0.4759590000000  0.5584720000000 1.0
C      1  0.5395270000000  0.5158480000000  0.5056310000000 1.0
C      1  0.5503420000000  0.5199010000000  0.4562800000000 1.0
C      1  0.4560640000000  0.4910640000000  0.4699130000000 1.0
C      1  0.5101430000000  0.4850580000000  0.4297310000000 1.0
C      1  0.4899910000000  0.5551760000000  0.4482740000000 1.0
C      1  0.4843810000000  0.4201520000000  0.5159980000000 1.0
C      1  0.5288630000000  0.5313380000000  0.4400500000000 1.0
C      1  0.4871300000000  0.5710880000000  0.5223760000000 1.0
C      1  0.5485550000000  0.5332200000000  0.4821560000000 1.0
C      1  0.5048250000000  0.5140200000000  0.4331360000000 1.0
C      1  0.5571640000000  0.4983050000000  0.5227000000000 1.0
C      1  0.5057800000000  0.4261990000000  0.4805410000000 1.0
C      1  0.4572720000000  0.5164590000000  0.4593640000000 1.0
C      1  0.4361650000000  0.4736450000000  0.5138670000000 1.0
C      1  0.4551540000000  0.4375950000000  0.4769810000000 1.0
C      1  0.5193140000000  0.5553710000000  0.4522710000000 1.0
C      1  0.4524420000000  0.5657480000000  0.4805440000000 1.0
C      1  0.5076240000000  0.5616700000000  0.5270900000000 1.0
C      1  0.5249220000000  0.4532270000000  0.5310980000000 1.0
C      1  0.5342780000000  0.5206460000000  0.5503280000000 1.0
C      1  0.4421830000000  0.5401430000000  0.4721760000000 1.0
C      1  0.4814340000000  0.5277850000000  0.4433840000000 1.0
C      1  0.5030930000000  0.4720360000000  0.5684310000000 1.0
C      1  0.5462850000000  0.4950880000000  0.5496480000000 1.0
C      1  0.5561200000000  0.4905750000000  0.4552260000000 1.0
C      1  0.4876160000000  0.4983770000000  0.5092820000000 1.0
C      1  0.5331980000000  0.5579100000000  0.4788580000000 1.0
C      1  0.4588910000000  0.5411930000000  0.5175360000000 1.0
C      1  0.5320000000000  0.4365980000000  0.4840070000000 1.0
C      1  0.4829040000000  0.4700850000000  0.5057990000000 1.0
C      1  0.4610710000000  0.5678350000000  0.5115630000000 1.0
C      1  0.5218620000000  0.5593240000000  0.5040550000000 1.0
C      1  0.4777460000000  0.4205620000000  0.4866730000000 1.0
C      1  0.4946240000000  0.5195300000000  0.5603550000000 1.0
C      1  0.5123840000000  0.5384690000000  0.5506090000000 1.0
C      1  0.5282350000000  0.4707360000000  0.5534260000000 1.0
C      1  0.4926890000000  0.4490530000000  0.5255040000000 1.0
C      1  0.4564310000000  0.4677340000000  0.4905170000000 1.0
C      1  0.5298820000000  0.4514600000000  0.4601870000000 1.0
END
