TITL C-4164242-3624-453 -14.5106550897784 125000 -21507.1326233198 0 0 143 (C1) n - 1
REM
REM in /home/nfs/bkarasulu/CARBON/AIRSS/Generating-Clusters/ReaxFF-fromJPCA2015/Units_Real/with-SteepDescent/Only-C1/SD-CG/Try1-3A/FIRE-CG
REM
REM
REM
REM
REM
REM ./C.cell (11c1c37f851c82e70ff6c80c92926a4b)
REM
REM compiler GCC version 9.2.1 20190827 (Red Hat 9.2.1-1)
REM options -cpp -mtune=generic -march=x86-64 -g -O0 -fpre-include=/usr/include/finclude/math-vector-fortran.h
REM seed 147690827 1612099637 -1006194920 -581756676 -1542780292 659998011 34740653 1119565607 1980311231 30872469 -509665507 -1262246518 -536448581 -481664592 491975611 -764993534 659312051 -267166254 1494070919 17733544 152109565 -1022462441 1856045516 -1559289570 2113224918 -701517616 -1508020503 756093117 813950856 237065667 -1341930448 1740679578 -1965639886
REM
CELL 1.54180   50.00000   50.00000   50.00000   90.00000   90.00000   90.00000
LATT -1
SFAC C  
C      1  0.4862880000000  0.4382230000000  0.5875810000000 1.0
C      1  0.5414560000000  0.5903400000000  0.5019170000000 1.0
C      1  0.5339490000000  0.5322060000000  0.5182090000000 1.0
C      1  0.4401530000000  0.4299860000000  0.4719280000000 1.0
C      1  0.4148060000000  0.4407860000000  0.4648100000000 1.0
C      1  0.4570940000000  0.4633870000000  0.4382660000000 1.0
C      1  0.5293450000000  0.5549880000000  0.5661040000000 1.0
C      1  0.5450750000000  0.4984130000000  0.5879390000000 1.0
C      1  0.5225760000000  0.4769870000000  0.5437660000000 1.0
C      1  0.4569650000000  0.5677020000000  0.5226520000000 1.0
C      1  0.5139860000000  0.5745020000000  0.4600340000000 1.0
C      1  0.4433880000000  0.6081870000000  0.5025530000000 1.0
C      1  0.4882850000000  0.4035710000000  0.5223470000000 1.0
C      1  0.5978450000000  0.5221310000000  0.5333080000000 1.0
C      1  0.4775700000000  0.5506930000000  0.5387030000000 1.0
C      1  0.5379070000000  0.4831840000000  0.4614530000000 1.0
C      1  0.5738980000000  0.4614780000000  0.5656170000000 1.0
C      1  0.4783300000000  0.4169620000000  0.4477080000000 1.0
C      1  0.4805410000000  0.4515160000000  0.4935540000000 1.0
C      1  0.4453330000000  0.4576390000000  0.5665070000000 1.0
C      1  0.5167160000000  0.4239790000000  0.5483930000000 1.0
C      1  0.4436570000000  0.5501490000000  0.4990330000000 1.0
C      1  0.5524820000000  0.5434120000000  0.5602580000000 1.0
C      1  0.5042130000000  0.4635050000000  0.4185120000000 1.0
C      1  0.4906570000000  0.5091070000000  0.6005160000000 1.0
C      1  0.4611240000000  0.5499590000000  0.4297460000000 1.0
C      1  0.5815680000000  0.4936280000000  0.4413590000000 1.0
C      1  0.5156940000000  0.4115290000000  0.4654980000000 1.0
C      1  0.5099540000000  0.4599630000000  0.5000580000000 1.0
C      1  0.4748530000000  0.5158660000000  0.4702120000000 1.0
C      1  0.4869640000000  0.4030850000000  0.4722610000000 1.0
C      1  0.4215300000000  0.5332150000000  0.5113780000000 1.0
C      1  0.5388430000000  0.5778140000000  0.5274230000000 1.0
C      1  0.5589950000000  0.4945280000000  0.5159330000000 1.0
C      1  0.5133220000000  0.5208260000000  0.4395780000000 1.0
C      1  0.5412720000000  0.4901740000000  0.4085150000000 1.0
C      1  0.5935740000000  0.4799190000000  0.5538130000000 1.0
C      1  0.4796370000000  0.4806480000000  0.5266310000000 1.0
C      1  0.3923290000000  0.4861070000000  0.5350090000000 1.0
C      1  0.4198750000000  0.5979650000000  0.5522370000000 1.0
C      1  0.4697360000000  0.4758730000000  0.4819110000000 1.0
C      1  0.5557260000000  0.5762160000000  0.4812350000000 1.0
C      1  0.5801180000000  0.5210890000000  0.4321440000000 1.0
C      1  0.5605770000000  0.4325360000000  0.5214800000000 1.0
C      1  0.5831040000000  0.5412140000000  0.5180240000000 1.0
C      1  0.5127030000000  0.4865600000000  0.4055040000000 1.0
C      1  0.5873250000000  0.5079950000000  0.5566020000000 1.0
C      1  0.6020960000000  0.4760650000000  0.5258150000000 1.0
C      1  0.4758220000000  0.5880190000000  0.4712070000000 1.0
C      1  0.5042910000000  0.4834240000000  0.5680270000000 1.0
C      1  0.4129410000000  0.4980410000000  0.5522470000000 1.0
C      1  0.4728770000000  0.4138190000000  0.5458180000000 1.0
C      1  0.5352230000000  0.4605560000000  0.4811360000000 1.0
C      1  0.4196990000000  0.4746780000000  0.4999440000000 1.0
C      1  0.5441270000000  0.5126140000000  0.5020450000000 1.0
C      1  0.4628210000000  0.4409800000000  0.4570420000000 1.0
C      1  0.4983450000000  0.5536030000000  0.4824390000000 1.0
C      1  0.5544880000000  0.5134900000000  0.4006560000000 1.0
C      1  0.4931090000000  0.4952570000000  0.4816460000000 1.0
C      1  0.4161010000000  0.5490730000000  0.4554940000000 1.0
C      1  0.4278470000000  0.5098480000000  0.4456630000000 1.0
C      1  0.4334710000000  0.4812940000000  0.4401580000000 1.0
C      1  0.4750620000000  0.4840370000000  0.6015150000000 1.0
C      1  0.5019440000000  0.5998090000000  0.4715390000000 1.0
C      1  0.5788790000000  0.4741630000000  0.5078690000000 1.0
C      1  0.5546490000000  0.5507280000000  0.5301030000000 1.0
C      1  0.5453020000000  0.5782650000000  0.4553680000000 1.0
C      1  0.4504630000000  0.5170690000000  0.5415770000000 1.0
C      1  0.4736880000000  0.5716080000000  0.4458860000000 1.0
C      1  0.4769460000000  0.4535650000000  0.5230620000000 1.0
C      1  0.4675680000000  0.4870570000000  0.3929920000000 1.0
C      1  0.5941730000000  0.4863680000000  0.4659250000000 1.0
C      1  0.5169360000000  0.5039060000000  0.5868000000000 1.0
C      1  0.5021580000000  0.4881090000000  0.5089700000000 1.0
C      1  0.4816800000000  0.5497630000000  0.5680660000000 1.0
C      1  0.4460670000000  0.4173170000000  0.4973890000000 1.0
C      1  0.4543010000000  0.4377590000000  0.5422580000000 1.0
C      1  0.5529760000000  0.4172350000000  0.4823430000000 1.0
C      1  0.4876790000000  0.5065690000000  0.3994870000000 1.0
C      1  0.4066120000000  0.4631470000000  0.4767210000000 1.0
C      1  0.4725350000000  0.4045320000000  0.4975080000000 1.0
C      1  0.4601210000000  0.5130050000000  0.5142250000000 1.0
C      1  0.4701300000000  0.5917630000000  0.5027150000000 1.0
C      1  0.4115880000000  0.4644750000000  0.4495040000000 1.0
C      1  0.6099020000000  0.5015110000000  0.5139340000000 1.0
C      1  0.4715660000000  0.5423210000000  0.4825960000000 1.0
C      1  0.4293490000000  0.5919150000000  0.4846130000000 1.0
C      1  0.5466710000000  0.5203880000000  0.4755640000000 1.0
C      1  0.5669160000000  0.4362760000000  0.4610950000000 1.0
C      1  0.5124310000000  0.5830830000000  0.5379140000000 1.0
C      1  0.4339010000000  0.4835600000000  0.5664420000000 1.0
C      1  0.4757930000000  0.4664310000000  0.4159070000000 1.0
C      1  0.4344570000000  0.4291220000000  0.5214870000000 1.0
C      1  0.5148580000000  0.6046090000000  0.4974510000000 1.0
C      1  0.4080730000000  0.5222730000000  0.4642370000000 1.0
C      1  0.5108800000000  0.4533450000000  0.5304530000000 1.0
C      1  0.5535050000000  0.4476770000000  0.4380980000000 1.0
C      1  0.4844920000000  0.5284110000000  0.5211320000000 1.0
C      1  0.5598880000000  0.4536640000000  0.5024110000000 1.0
C      1  0.5345820000000  0.4492770000000  0.5877370000000 1.0
C      1  0.5799970000000  0.5449060000000  0.4504680000000 1.0
C      1  0.4960310000000  0.5978120000000  0.5178420000000 1.0
C      1  0.5255820000000  0.5079300000000  0.4624820000000 1.0
C      1  0.5000270000000  0.5680440000000  0.4338670000000 1.0
C      1  0.5169810000000  0.5458030000000  0.4252520000000 1.0
C      1  0.5425510000000  0.4115260000000  0.5086550000000 1.0
C      1  0.4786630000000  0.5285040000000  0.4182240000000 1.0
C      1  0.5171760000000  0.4062440000000  0.5243630000000 1.0
C      1  0.4856450000000  0.5147490000000  0.4425570000000 1.0
C      1  0.5421430000000  0.4977900000000  0.5390520000000 1.0
C      1  0.4396670000000  0.5767980000000  0.5455650000000 1.0
C      1  0.5612560000000  0.5627600000000  0.4370770000000 1.0
C      1  0.5833440000000  0.4594180000000  0.4653410000000 1.0
C      1  0.3917040000000  0.4555110000000  0.5382670000000 1.0
C      1  0.4223940000000  0.5228480000000  0.5388460000000 1.0
C      1  0.4037130000000  0.5188870000000  0.4939770000000 1.0
C      1  0.5447230000000  0.5496110000000  0.4166620000000 1.0
C      1  0.5584120000000  0.5132250000000  0.5642930000000 1.0
C      1  0.6003450000000  0.5080310000000  0.4875000000000 1.0
C      1  0.5636630000000  0.4379090000000  0.5512330000000 1.0
C      1  0.5542960000000  0.4777470000000  0.4362170000000 1.0
C      1  0.4264580000000  0.5660790000000  0.4783330000000 1.0
C      1  0.5078290000000  0.5390880000000  0.5055700000000 1.0
C      1  0.5645850000000  0.5449320000000  0.4751400000000 1.0
C      1  0.4796840000000  0.4915500000000  0.5519430000000 1.0
C      1  0.5891030000000  0.5351480000000  0.4902760000000 1.0
C      1  0.5406940000000  0.4303370000000  0.5661450000000 1.0
C      1  0.4639600000000  0.4592640000000  0.5894530000000 1.0
C      1  0.5236670000000  0.4399020000000  0.4646460000000 1.0
C      1  0.3975930000000  0.4936550000000  0.5072650000000 1.0
C      1  0.5062530000000  0.4156380000000  0.4375500000000 1.0
C      1  0.4140270000000  0.4498890000000  0.5197370000000 1.0
C      1  0.4914090000000  0.4190970000000  0.5663120000000 1.0
C      1  0.5055400000000  0.5688290000000  0.5645800000000 1.0
C      1  0.4746870000000  0.5265010000000  0.5831960000000 1.0
C      1  0.4287170000000  0.6135620000000  0.5275190000000 1.0
C      1  0.4511040000000  0.4884560000000  0.5009850000000 1.0
C      1  0.5543140000000  0.5244450000000  0.4214630000000 1.0
C      1  0.4350490000000  0.5376850000000  0.4359750000000 1.0
C      1  0.5547090000000  0.4708810000000  0.5859380000000 1.0
C      1  0.4592400000000  0.5048140000000  0.5655740000000 1.0
C      1  0.5068880000000  0.4578280000000  0.5894750000000 1.0
C      1  0.5228550000000  0.4417510000000  0.4347390000000 1.0
END
