TITL C-4164238-4211-544 77.6294496786674 125000 -29739.7060429272 0 0 199 (C1) n - 1
REM
REM in /home/nfs/bkarasulu/CARBON/AIRSS/Generating-Clusters/ReaxFF-fromJPCA2015/Units_Real/with-SteepDescent/Only-C1/SD-CG/Try1-3A/FIRE-CG
REM
REM
REM
REM
REM
REM ./C.cell (11c1c37f851c82e70ff6c80c92926a4b)
REM
REM compiler GCC version 9.2.1 20190827 (Red Hat 9.2.1-1)
REM options -cpp -mtune=generic -march=x86-64 -g -O0 -fpre-include=/usr/include/finclude/math-vector-fortran.h
REM seed -745941118 -1290356736 -521079071 1230233109 -1993356225 -972637417 1822108599 -1813041375 425938579 -1107368058 265678720 107949493 555468518 -1716279453 1463923642 -958777074 -1477048663 29838219 576283070 -1509749934 5458321 1769859702 -144876504 223490705 1008114263 2087049577 960650783 383399246 -713562207 -1908557037 -1623122769 -1367082382 -638913790
REM
CELL 1.54180   50.00000   50.00000   50.00000   90.00000   90.00000   90.00000
LATT -1
SFAC C  
C      1  0.4100570000000  0.5573210000000  0.4494950000000 1.0
C      1  0.4811080000000  0.5228780000000  0.3913980000000 1.0
C      1  0.4238520000000  0.4265130000000  0.5752140000000 1.0
C      1  0.5573440000000  0.5641590000000  0.4887540000000 1.0
C      1  0.4985620000000  0.4454480000000  0.4741980000000 1.0
C      1  0.4961530000000  0.5618580000000  0.4550410000000 1.0
C      1  0.5541070000000  0.4943920000000  0.3904310000000 1.0
C      1  0.5499180000000  0.4986170000000  0.6207700000000 1.0
C      1  0.4553080000000  0.6082980000000  0.5503710000000 1.0
C      1  0.4527020000000  0.5859040000000  0.4391500000000 1.0
C      1  0.4905900000000  0.5302070000000  0.4581160000000 1.0
C      1  0.4560200000000  0.4891980000000  0.5432040000000 1.0
C      1  0.5847750000000  0.4231110000000  0.4773960000000 1.0
C      1  0.4323590000000  0.4905500000000  0.5286060000000 1.0
C      1  0.4890640000000  0.5058680000000  0.5805900000000 1.0
C      1  0.5556170000000  0.5479480000000  0.5128390000000 1.0
C      1  0.5951740000000  0.5489740000000  0.5230960000000 1.0
C      1  0.5819720000000  0.4184080000000  0.5054470000000 1.0
C      1  0.5976460000000  0.4331580000000  0.5256050000000 1.0
C      1  0.4988710000000  0.4946460000000  0.4264370000000 1.0
C      1  0.5279220000000  0.4814480000000  0.4873170000000 1.0
C      1  0.5001370000000  0.4138350000000  0.5479150000000 1.0
C      1  0.4683500000000  0.4686140000000  0.5078660000000 1.0
C      1  0.4300700000000  0.5774640000000  0.4631710000000 1.0
C      1  0.4563360000000  0.5447140000000  0.4423250000000 1.0
C      1  0.4854920000000  0.4757320000000  0.4425420000000 1.0
C      1  0.4038750000000  0.4516720000000  0.4856120000000 1.0
C      1  0.4203090000000  0.5479030000000  0.4242950000000 1.0
C      1  0.5260510000000  0.4976330000000  0.3837350000000 1.0
C      1  0.4667830000000  0.4691110000000  0.3914410000000 1.0
C      1  0.5694750000000  0.4537490000000  0.4210280000000 1.0
C      1  0.4628840000000  0.4995640000000  0.3902910000000 1.0
C      1  0.4700490000000  0.5202910000000  0.4403040000000 1.0
C      1  0.5919410000000  0.5214560000000  0.5668020000000 1.0
C      1  0.4465790000000  0.4825090000000  0.6089580000000 1.0
C      1  0.5820220000000  0.5294390000000  0.5427810000000 1.0
C      1  0.4960130000000  0.3805260000000  0.5151930000000 1.0
C      1  0.5523970000000  0.5204010000000  0.5075520000000 1.0
C      1  0.3985570000000  0.5392160000000  0.4691800000000 1.0
C      1  0.5571330000000  0.4208900000000  0.5244290000000 1.0
C      1  0.5354610000000  0.4662050000000  0.4488130000000 1.0
C      1  0.4033520000000  0.5111710000000  0.4611610000000 1.0
C      1  0.5548400000000  0.4291450000000  0.4292170000000 1.0
C      1  0.5487660000000  0.5292530000000  0.5857480000000 1.0
C      1  0.4653190000000  0.5716050000000  0.5242340000000 1.0
C      1  0.5111690000000  0.3926410000000  0.4662160000000 1.0
C      1  0.5846080000000  0.5750310000000  0.5173080000000 1.0
C      1  0.4499680000000  0.4284930000000  0.4944740000000 1.0
C      1  0.4704730000000  0.4866210000000  0.6255440000000 1.0
C      1  0.5463340000000  0.4468280000000  0.4653610000000 1.0
C      1  0.6137280000000  0.4585740000000  0.5210100000000 1.0
C      1  0.5440900000000  0.5585220000000  0.5369960000000 1.0
C      1  0.4364550000000  0.4027080000000  0.5320700000000 1.0
C      1  0.6045900000000  0.4845390000000  0.5326350000000 1.0
C      1  0.5461080000000  0.4538320000000  0.4931500000000 1.0
C      1  0.5290050000000  0.4905190000000  0.4605960000000 1.0
C      1  0.5441550000000  0.5811950000000  0.5758830000000 1.0
C      1  0.4789960000000  0.5855260000000  0.4566700000000 1.0
C      1  0.4595610000000  0.5167680000000  0.5784750000000 1.0
C      1  0.6080400000000  0.5324890000000  0.5016130000000 1.0
C      1  0.5041270000000  0.5267250000000  0.5059830000000 1.0
C      1  0.5111460000000  0.5208850000000  0.3924790000000 1.0
C      1  0.5085950000000  0.5165770000000  0.5611030000000 1.0
C      1  0.5217910000000  0.3864340000000  0.5257340000000 1.0
C      1  0.4935960000000  0.6189890000000  0.5230540000000 1.0
C      1  0.4536610000000  0.4038630000000  0.4532420000000 1.0
C      1  0.5313610000000  0.4793520000000  0.5777030000000 1.0
C      1  0.5047250000000  0.4351840000000  0.5003270000000 1.0
C      1  0.5784520000000  0.5051820000000  0.4349740000000 1.0
C      1  0.5144030000000  0.5140890000000  0.4433850000000 1.0
C      1  0.5462780000000  0.5842500000000  0.4435690000000 1.0
C      1  0.5263140000000  0.5230530000000  0.4174230000000 1.0
C      1  0.4969950000000  0.5474170000000  0.5255940000000 1.0
C      1  0.4147160000000  0.4708840000000  0.4389150000000 1.0
C      1  0.5367750000000  0.5074650000000  0.5662370000000 1.0
C      1  0.4350570000000  0.5887260000000  0.5570470000000 1.0
C      1  0.4067280000000  0.4991290000000  0.4342490000000 1.0
C      1  0.4648520000000  0.6155760000000  0.5238650000000 1.0
C      1  0.4306850000000  0.5893540000000  0.4908180000000 1.0
C      1  0.5583490000000  0.5157380000000  0.4121090000000 1.0
C      1  0.4512870000000  0.4534990000000  0.4119910000000 1.0
C      1  0.4383580000000  0.5031880000000  0.4055310000000 1.0
C      1  0.4132850000000  0.4522660000000  0.5853560000000 1.0
C      1  0.4234220000000  0.5449330000000  0.5544170000000 1.0
C      1  0.4931820000000  0.5219730000000  0.6059990000000 1.0
C      1  0.5305210000000  0.4400790000000  0.5134240000000 1.0
C      1  0.5936880000000  0.4695630000000  0.4629300000000 1.0
C      1  0.4735460000000  0.3844610000000  0.5360290000000 1.0
C      1  0.5357520000000  0.5547030000000  0.5859010000000 1.0
C      1  0.5274330000000  0.4641980000000  0.5309990000000 1.0
C      1  0.5006660000000  0.4407680000000  0.5847580000000 1.0
C      1  0.4187110000000  0.5709050000000  0.5411960000000 1.0
C      1  0.4890570000000  0.4391400000000  0.5383720000000 1.0
C      1  0.5223210000000  0.4996230000000  0.6269040000000 1.0
C      1  0.4780210000000  0.6047210000000  0.4796590000000 1.0
C      1  0.3885320000000  0.4695410000000  0.5006850000000 1.0
C      1  0.5614140000000  0.5768230000000  0.5521760000000 1.0
C      1  0.5786190000000  0.4815980000000  0.4852070000000 1.0
C      1  0.4068350000000  0.5214800000000  0.5506300000000 1.0
C      1  0.4650250000000  0.5800220000000  0.5562890000000 1.0
C      1  0.5243140000000  0.5660590000000  0.4556550000000 1.0
C      1  0.5672160000000  0.5946090000000  0.5292250000000 1.0
C      1  0.5894550000000  0.4993180000000  0.5829920000000 1.0
C      1  0.4891360000000  0.4521310000000  0.3958500000000 1.0
C      1  0.5300640000000  0.6166620000000  0.4959110000000 1.0
C      1  0.5368200000000  0.5488140000000  0.4748310000000 1.0
C      1  0.5099150000000  0.5499390000000  0.5692690000000 1.0
C      1  0.4729830000000  0.5337250000000  0.5394200000000 1.0
C      1  0.4184220000000  0.5684010000000  0.5099770000000 1.0
C      1  0.4484020000000  0.5607830000000  0.4184230000000 1.0
C      1  0.5030180000000  0.4705070000000  0.5768060000000 1.0
C      1  0.5169900000000  0.5558740000000  0.5430130000000 1.0
C      1  0.5039010000000  0.4613160000000  0.5486600000000 1.0
C      1  0.5764760000000  0.4340670000000  0.5447760000000 1.0
C      1  0.4786620000000  0.4133860000000  0.4408160000000 1.0
C      1  0.4450170000000  0.5532530000000  0.5128950000000 1.0
C      1  0.5970820000000  0.5404250000000  0.4748070000000 1.0
C      1  0.5172640000000  0.4847340000000  0.5132440000000 1.0
C      1  0.4173990000000  0.4459460000000  0.5301440000000 1.0
C      1  0.5741070000000  0.5751210000000  0.4488700000000 1.0
C      1  0.4766450000000  0.4231750000000  0.5800170000000 1.0
C      1  0.4833280000000  0.5654830000000  0.5778660000000 1.0
C      1  0.5664420000000  0.4698070000000  0.5074450000000 1.0
C      1  0.5046990000000  0.5064370000000  0.5273990000000 1.0
C      1  0.4191620000000  0.4963820000000  0.4796980000000 1.0
C      1  0.5682420000000  0.5123420000000  0.5997710000000 1.0
C      1  0.5291180000000  0.5272370000000  0.4919400000000 1.0
C      1  0.4539490000000  0.6050320000000  0.4972620000000 1.0
C      1  0.5131800000000  0.4392970000000  0.4034760000000 1.0
C      1  0.5432260000000  0.3976890000000  0.5392020000000 1.0
C      1  0.5192540000000  0.6118190000000  0.5395360000000 1.0
C      1  0.4524480000000  0.5377320000000  0.5595460000000 1.0
C      1  0.4791200000000  0.5192910000000  0.4866150000000 1.0
C      1  0.3853100000000  0.4866040000000  0.5220270000000 1.0
C      1  0.4164690000000  0.5202500000000  0.4157690000000 1.0
C      1  0.5073080000000  0.4057680000000  0.4391990000000 1.0
C      1  0.4940220000000  0.5038890000000  0.6300970000000 1.0
C      1  0.5301890000000  0.4624230000000  0.4153980000000 1.0
C      1  0.5135060000000  0.4830050000000  0.4051640000000 1.0
C      1  0.6235370000000  0.4528530000000  0.4937720000000 1.0
C      1  0.5563830000000  0.4671520000000  0.3992300000000 1.0
C      1  0.4907330000000  0.4730170000000  0.4704950000000 1.0
C      1  0.5309530000000  0.5627150000000  0.4015970000000 1.0
C      1  0.5582350000000  0.5458460000000  0.4104100000000 1.0
C      1  0.5418050000000  0.6090120000000  0.5214920000000 1.0
C      1  0.6049650000000  0.4434230000000  0.4718530000000 1.0
C      1  0.4208260000000  0.5050690000000  0.5071910000000 1.0
C      1  0.4760670000000  0.5070790000000  0.5350860000000 1.0
C      1  0.5905420000000  0.4804670000000  0.5592900000000 1.0
C      1  0.3959040000000  0.4662950000000  0.5406760000000 1.0
C      1  0.5552900000000  0.4816400000000  0.5302770000000 1.0
C      1  0.4267180000000  0.4464050000000  0.4268420000000 1.0
C      1  0.5592140000000  0.4207790000000  0.4585450000000 1.0
C      1  0.5263940000000  0.4218200000000  0.4233590000000 1.0
C      1  0.5381650000000  0.3981600000000  0.4683080000000 1.0
C      1  0.4583390000000  0.4708160000000  0.4351470000000 1.0
C      1  0.5267830000000  0.4100910000000  0.5608530000000 1.0
C      1  0.4371890000000  0.4550380000000  0.6024410000000 1.0
C      1  0.4888220000000  0.5740320000000  0.5077570000000 1.0
C      1  0.3977430000000  0.5165980000000  0.5218610000000 1.0
C      1  0.4754920000000  0.4884860000000  0.4892100000000 1.0
C      1  0.3977820000000  0.5435930000000  0.4995710000000 1.0
C      1  0.4813620000000  0.5469080000000  0.5981230000000 1.0
C      1  0.5737630000000  0.4564710000000  0.5631800000000 1.0
C      1  0.4479490000000  0.5524560000000  0.4675240000000 1.0
C      1  0.5762460000000  0.5510260000000  0.4323250000000 1.0
C      1  0.4528090000000  0.3883440000000  0.5159530000000 1.0
C      1  0.4349560000000  0.4256130000000  0.4475880000000 1.0
C      1  0.5474430000000  0.4561180000000  0.5770880000000 1.0
C      1  0.5571940000000  0.5089700000000  0.5386270000000 1.0
C      1  0.5882590000000  0.5285830000000  0.4486750000000 1.0
C      1  0.4482540000000  0.4673400000000  0.5278800000000 1.0
C      1  0.5826280000000  0.4766700000000  0.4371510000000 1.0
C      1  0.4223200000000  0.4365300000000  0.5026490000000 1.0
C      1  0.5432860000000  0.6159760000000  0.4709360000000 1.0
C      1  0.4881760000000  0.3894980000000  0.4879780000000 1.0
C      1  0.4765100000000  0.4371990000000  0.4574250000000 1.0
C      1  0.4787560000000  0.3995740000000  0.5612870000000 1.0
C      1  0.5000980000000  0.6163660000000  0.4956870000000 1.0
C      1  0.6007670000000  0.5052490000000  0.5110860000000 1.0
C      1  0.4498230000000  0.4313840000000  0.5888640000000 1.0
C      1  0.4027690000000  0.4739150000000  0.5679240000000 1.0
C      1  0.4742900000000  0.5500740000000  0.4004500000000 1.0
C      1  0.5839190000000  0.5665740000000  0.4760180000000 1.0
C      1  0.4541220000000  0.4986430000000  0.4309610000000 1.0
C      1  0.4486810000000  0.4426470000000  0.4679400000000 1.0
C      1  0.5240730000000  0.6015470000000  0.5666850000000 1.0
C      1  0.5296740000000  0.5869120000000  0.3943020000000 1.0
C      1  0.5000600000000  0.5603400000000  0.4004430000000 1.0
C      1  0.4608040000000  0.3986710000000  0.4845180000000 1.0
C      1  0.4786850000000  0.4416620000000  0.5111610000000 1.0
C      1  0.4551180000000  0.5378290000000  0.4902420000000 1.0
C      1  0.5532700000000  0.6104250000000  0.4505220000000 1.0
C      1  0.4129450000000  0.5012440000000  0.5710930000000 1.0
C      1  0.4221650000000  0.4689280000000  0.4674740000000 1.0
C      1  0.4367120000000  0.5027330000000  0.5888530000000 1.0
C      1  0.5764490000000  0.5076970000000  0.4951700000000 1.0
C      1  0.5282430000000  0.4327900000000  0.5792500000000 1.0
C      1  0.4204060000000  0.4203270000000  0.5463700000000 1.0
END
