TITL C-4164239-2837-732 22.7158966813184 125000 -14736.982002254 0 0 100 (C1) n - 1
REM
REM in /home/nfs/bkarasulu/CARBON/AIRSS/Generating-Clusters/ReaxFF-fromJPCA2015/Units_Real/with-SteepDescent/Only-C1/SD-CG/Try1-3A/FIRE-CG
REM
REM
REM
REM
REM
REM ./C.cell (11c1c37f851c82e70ff6c80c92926a4b)
REM
REM compiler GCC version 9.2.1 20190827 (Red Hat 9.2.1-1)
REM options -cpp -mtune=generic -march=x86-64 -g -O0 -fpre-include=/usr/include/finclude/math-vector-fortran.h
REM seed -1514050022 814694589 -463124677 1098100326 269936793 -1882512568 -523780887 346907049 -2105785997 266091634 -625545704 -588513761 -1876456764 565863155 20472714 689834491 1469745507 -1429477175 1043962009 -1948151184 2141575835 1315070981 1826790020 1978685750 423927541 1056070084 1676739527 -633822313 -466247914 1195589878 1204001513 619539636 -1544778198
REM
CELL 1.54180   50.00000   50.00000   50.00000   90.00000   90.00000   90.00000
LATT -1
SFAC C  
C      1  0.4955600000000  0.4429070000000  0.5061550000000 1.0
C      1  0.4573570000000  0.4496770000000  0.5467810000000 1.0
C      1  0.5529460000000  0.4633770000000  0.4464150000000 1.0
C      1  0.5012420000000  0.4907490000000  0.4062400000000 1.0
C      1  0.5742950000000  0.4867980000000  0.5430730000000 1.0
C      1  0.4839540000000  0.4220440000000  0.4618840000000 1.0
C      1  0.5067770000000  0.4974100000000  0.5742690000000 1.0
C      1  0.4618590000000  0.5716720000000  0.5345470000000 1.0
C      1  0.5387910000000  0.5078310000000  0.5105010000000 1.0
C      1  0.5297090000000  0.4857030000000  0.4089160000000 1.0
C      1  0.5430290000000  0.5075830000000  0.4661620000000 1.0
C      1  0.4222430000000  0.5046740000000  0.5432410000000 1.0
C      1  0.5223160000000  0.5501300000000  0.4928580000000 1.0
C      1  0.4672290000000  0.4921860000000  0.5534760000000 1.0
C      1  0.5153370000000  0.5588480000000  0.5645020000000 1.0
C      1  0.4748760000000  0.5851560000000  0.5573360000000 1.0
C      1  0.5825730000000  0.5059260000000  0.4792950000000 1.0
C      1  0.5082240000000  0.4498050000000  0.5306570000000 1.0
C      1  0.4054080000000  0.4819010000000  0.5054030000000 1.0
C      1  0.4954890000000  0.5014960000000  0.4699600000000 1.0
C      1  0.4526400000000  0.5219760000000  0.5840450000000 1.0
C      1  0.4868760000000  0.4721680000000  0.4201880000000 1.0
C      1  0.4619220000000  0.4837100000000  0.4152600000000 1.0
C      1  0.5624770000000  0.5701900000000  0.5035590000000 1.0
C      1  0.5247500000000  0.4115860000000  0.5090580000000 1.0
C      1  0.4693060000000  0.5103180000000  0.4747190000000 1.0
C      1  0.4761670000000  0.5072310000000  0.4046170000000 1.0
C      1  0.4108490000000  0.5241960000000  0.5238350000000 1.0
C      1  0.5003960000000  0.4088810000000  0.5258000000000 1.0
C      1  0.4417570000000  0.5141480000000  0.4401020000000 1.0
C      1  0.5794850000000  0.4777440000000  0.5166480000000 1.0
C      1  0.4891460000000  0.5643500000000  0.5747070000000 1.0
C      1  0.5378520000000  0.5473470000000  0.5487930000000 1.0
C      1  0.5108740000000  0.5393220000000  0.4402990000000 1.0
C      1  0.5169880000000  0.4445510000000  0.4388470000000 1.0
C      1  0.4191870000000  0.4780470000000  0.5308540000000 1.0
C      1  0.4465810000000  0.4447370000000  0.4779290000000 1.0
C      1  0.5222060000000  0.4848260000000  0.5049670000000 1.0
C      1  0.4230470000000  0.5483180000000  0.5120780000000 1.0
C      1  0.4639290000000  0.5254140000000  0.4238620000000 1.0
C      1  0.5501860000000  0.5229500000000  0.5631230000000 1.0
C      1  0.4816750000000  0.5446970000000  0.4377870000000 1.0
C      1  0.5357540000000  0.5020190000000  0.5774840000000 1.0
C      1  0.5518060000000  0.4669380000000  0.5492490000000 1.0
C      1  0.5570890000000  0.4771740000000  0.4703090000000 1.0
C      1  0.4557490000000  0.4679130000000  0.4978690000000 1.0
C      1  0.5373870000000  0.4603290000000  0.4235710000000 1.0
C      1  0.4840410000000  0.4642980000000  0.4952810000000 1.0
C      1  0.5747610000000  0.5432550000000  0.4964770000000 1.0
C      1  0.4999320000000  0.5740310000000  0.4593720000000 1.0
C      1  0.5276130000000  0.4323180000000  0.4864930000000 1.0
C      1  0.4965610000000  0.5280210000000  0.5307980000000 1.0
C      1  0.5030410000000  0.4782460000000  0.4821440000000 1.0
C      1  0.5587210000000  0.4388160000000  0.5352210000000 1.0
C      1  0.4286710000000  0.5422060000000  0.5560280000000 1.0
C      1  0.5562930000000  0.5453250000000  0.4472760000000 1.0
C      1  0.4407130000000  0.4588130000000  0.5268160000000 1.0
C      1  0.4920850000000  0.4468410000000  0.5682420000000 1.0
C      1  0.5498600000000  0.5346340000000  0.4748780000000 1.0
C      1  0.5677360000000  0.4511810000000  0.5102840000000 1.0
C      1  0.5323890000000  0.5604140000000  0.4397150000000 1.0
C      1  0.5132820000000  0.4262190000000  0.4615300000000 1.0
C      1  0.5239170000000  0.5326290000000  0.5194840000000 1.0
C      1  0.5978200000000  0.5292740000000  0.4765870000000 1.0
C      1  0.4915950000000  0.5067370000000  0.5503580000000 1.0
C      1  0.4662760000000  0.5361970000000  0.4619040000000 1.0
C      1  0.4488920000000  0.4946860000000  0.4871030000000 1.0
C      1  0.4331060000000  0.5610550000000  0.5359250000000 1.0
C      1  0.4758940000000  0.5473210000000  0.5233590000000 1.0
C      1  0.5774220000000  0.5384300000000  0.5269940000000 1.0
C      1  0.4206730000000  0.4968730000000  0.4858310000000 1.0
C      1  0.4394300000000  0.5487280000000  0.4877690000000 1.0
C      1  0.4676280000000  0.5464430000000  0.5873290000000 1.0
C      1  0.4679670000000  0.5554430000000  0.4965310000000 1.0
C      1  0.5277380000000  0.5807920000000  0.4612210000000 1.0
C      1  0.5722580000000  0.5156760000000  0.5466290000000 1.0
C      1  0.4647880000000  0.4220190000000  0.4838910000000 1.0
C      1  0.4371740000000  0.5357530000000  0.4610760000000 1.0
C      1  0.4411240000000  0.5456970000000  0.5796010000000 1.0
C      1  0.4472480000000  0.4580780000000  0.4522250000000 1.0
C      1  0.5260500000000  0.4710400000000  0.5294290000000 1.0
C      1  0.5046720000000  0.4273820000000  0.5494820000000 1.0
C      1  0.5513160000000  0.4517440000000  0.4863560000000 1.0
C      1  0.4450750000000  0.5067820000000  0.5607800000000 1.0
C      1  0.4787750000000  0.4199880000000  0.5094440000000 1.0
C      1  0.4949410000000  0.4632520000000  0.4458350000000 1.0
C      1  0.5613340000000  0.5613330000000  0.5316360000000 1.0
C      1  0.5669130000000  0.5010790000000  0.5036240000000 1.0
C      1  0.4725660000000  0.4439920000000  0.4460870000000 1.0
C      1  0.4690020000000  0.4648890000000  0.5651640000000 1.0
C      1  0.5394930000000  0.4187500000000  0.5316210000000 1.0
C      1  0.5393060000000  0.4723570000000  0.5765430000000 1.0
C      1  0.4434720000000  0.4847520000000  0.4379240000000 1.0
C      1  0.4941740000000  0.5581470000000  0.4823150000000 1.0
C      1  0.5496260000000  0.5069660000000  0.4097110000000 1.0
C      1  0.5645930000000  0.5275340000000  0.4248820000000 1.0
C      1  0.5104360000000  0.4679170000000  0.5780510000000 1.0
C      1  0.5373150000000  0.5750100000000  0.4889900000000 1.0
C      1  0.5168910000000  0.5142010000000  0.4550180000000 1.0
C      1  0.4021050000000  0.5094860000000  0.5015100000000 1.0
END
