TITL C-4164240-4114-446 1.0068835698331 125000 -19359.9346353628 0 0 131 (C1) n - 1
REM
REM in /home/nfs/bkarasulu/CARBON/AIRSS/Generating-Clusters/ReaxFF-fromJPCA2015/Units_Real/with-SteepDescent/Only-C1/SD-CG/Try1-3A/FIRE-CG
REM
REM
REM
REM
REM
REM ./C.cell (11c1c37f851c82e70ff6c80c92926a4b)
REM
REM compiler GCC version 9.2.1 20190827 (Red Hat 9.2.1-1)
REM options -cpp -mtune=generic -march=x86-64 -g -O0 -fpre-include=/usr/include/finclude/math-vector-fortran.h
REM seed 264571109 -965674864 -1911004243 2076395263 2105896046 -1064008623 382279911 -1825892574 645857205 -457497066 1287026531 580551158 330475179 947230648 -1923836947 477320630 -898356963 698023583 -1408255166 -1701021427 -1647747555 -695547293 -1413265127 340955286 1067568533 -963783584 2052193673 1657434409 -1481565674 791942480 -1698494535 -1713696066 -1539836841
REM
CELL 1.54180   50.00000   50.00000   50.00000   90.00000   90.00000   90.00000
LATT -1
SFAC C  
C      1  0.5513470000000  0.5435070000000  0.5605850000000 1.0
C      1  0.5805400000000  0.5026310000000  0.4441790000000 1.0
C      1  0.5619590000000  0.4875730000000  0.5508140000000 1.0
C      1  0.4992760000000  0.4863660000000  0.4919840000000 1.0
C      1  0.5487920000000  0.4679070000000  0.5678120000000 1.0
C      1  0.5286820000000  0.4312120000000  0.5606960000000 1.0
C      1  0.5051420000000  0.5674130000000  0.5880980000000 1.0
C      1  0.4117890000000  0.5026310000000  0.5264400000000 1.0
C      1  0.4353640000000  0.4220200000000  0.4645570000000 1.0
C      1  0.4417250000000  0.4229290000000  0.5267720000000 1.0
C      1  0.5302000000000  0.4515740000000  0.5819950000000 1.0
C      1  0.5669790000000  0.4556270000000  0.4422850000000 1.0
C      1  0.4768430000000  0.4022140000000  0.4849560000000 1.0
C      1  0.5246820000000  0.5189630000000  0.6026850000000 1.0
C      1  0.4306050000000  0.4334440000000  0.4887500000000 1.0
C      1  0.5050610000000  0.4039870000000  0.4829950000000 1.0
C      1  0.5948450000000  0.5162210000000  0.5213310000000 1.0
C      1  0.5175010000000  0.5880700000000  0.4559460000000 1.0
C      1  0.5292100000000  0.4860700000000  0.4326000000000 1.0
C      1  0.4264570000000  0.4834630000000  0.5436840000000 1.0
C      1  0.4615850000000  0.4058610000000  0.4595340000000 1.0
C      1  0.5059280000000  0.5501770000000  0.5278740000000 1.0
C      1  0.4087210000000  0.4631460000000  0.4631950000000 1.0
C      1  0.4908130000000  0.4432980000000  0.4512130000000 1.0
C      1  0.4739900000000  0.4438290000000  0.4256420000000 1.0
C      1  0.5784050000000  0.5285460000000  0.4650920000000 1.0
C      1  0.4386100000000  0.4438740000000  0.5462860000000 1.0
C      1  0.4679260000000  0.4617900000000  0.5250180000000 1.0
C      1  0.5875450000000  0.4754960000000  0.4506830000000 1.0
C      1  0.5628950000000  0.5502300000000  0.4249620000000 1.0
C      1  0.5585570000000  0.5039270000000  0.5042490000000 1.0
C      1  0.4900590000000  0.5585460000000  0.4296320000000 1.0
C      1  0.4999630000000  0.5127480000000  0.5668190000000 1.0
C      1  0.4238510000000  0.5562880000000  0.4871570000000 1.0
C      1  0.5149750000000  0.4696960000000  0.5396240000000 1.0
C      1  0.5275210000000  0.5594570000000  0.5461140000000 1.0
C      1  0.5585400000000  0.5001270000000  0.4251420000000 1.0
C      1  0.5237430000000  0.5480540000000  0.6015730000000 1.0
C      1  0.4791020000000  0.4908530000000  0.4117710000000 1.0
C      1  0.4515630000000  0.4883370000000  0.4260350000000 1.0
C      1  0.4361400000000  0.5114290000000  0.4382500000000 1.0
C      1  0.5040440000000  0.4937410000000  0.4516950000000 1.0
C      1  0.4715080000000  0.4949850000000  0.4867190000000 1.0
C      1  0.5443610000000  0.5038980000000  0.5343000000000 1.0
C      1  0.5877250000000  0.4898160000000  0.5331370000000 1.0
C      1  0.4092540000000  0.5188040000000  0.4880540000000 1.0
C      1  0.4854160000000  0.4775080000000  0.5941650000000 1.0
C      1  0.5211140000000  0.5249410000000  0.4908360000000 1.0
C      1  0.5157270000000  0.4055400000000  0.5101480000000 1.0
C      1  0.4288180000000  0.5423650000000  0.5640520000000 1.0
C      1  0.4453450000000  0.5745360000000  0.4789480000000 1.0
C      1  0.5746100000000  0.4590470000000  0.4717440000000 1.0
C      1  0.4914980000000  0.5809180000000  0.4496570000000 1.0
C      1  0.5367830000000  0.4277330000000  0.5120900000000 1.0
C      1  0.4191840000000  0.5085870000000  0.4615340000000 1.0
C      1  0.4589710000000  0.4738200000000  0.5810090000000 1.0
C      1  0.5457860000000  0.4638750000000  0.4762830000000 1.0
C      1  0.5268420000000  0.4449320000000  0.4861920000000 1.0
C      1  0.4728140000000  0.5367590000000  0.4374260000000 1.0
C      1  0.5335520000000  0.4188440000000  0.4382320000000 1.0
C      1  0.4721730000000  0.4113050000000  0.4332440000000 1.0
C      1  0.4977230000000  0.5233540000000  0.5231610000000 1.0
C      1  0.5784130000000  0.5544830000000  0.4500360000000 1.0
C      1  0.5010160000000  0.5032390000000  0.5939810000000 1.0
C      1  0.4966630000000  0.5142460000000  0.4120000000000 1.0
C      1  0.5355010000000  0.4404150000000  0.4201930000000 1.0
C      1  0.5655340000000  0.5244670000000  0.4130810000000 1.0
C      1  0.5482970000000  0.6008210000000  0.4925210000000 1.0
C      1  0.5011460000000  0.4192120000000  0.5563530000000 1.0
C      1  0.4275640000000  0.5237710000000  0.5106970000000 1.0
C      1  0.4435970000000  0.5603810000000  0.5408090000000 1.0
C      1  0.4681670000000  0.5765410000000  0.5557810000000 1.0
C      1  0.5128280000000  0.5811750000000  0.5641950000000 1.0
C      1  0.5491970000000  0.5268310000000  0.4590380000000 1.0
C      1  0.4915720000000  0.4645100000000  0.4102050000000 1.0
C      1  0.4720570000000  0.4162590000000  0.5118720000000 1.0
C      1  0.3986590000000  0.4950280000000  0.5021860000000 1.0
C      1  0.5002990000000  0.4538030000000  0.5884400000000 1.0
C      1  0.4746300000000  0.5308030000000  0.5690140000000 1.0
C      1  0.5201900000000  0.4638820000000  0.4132790000000 1.0
C      1  0.5417010000000  0.5115640000000  0.4812530000000 1.0
C      1  0.5299670000000  0.5947780000000  0.5147750000000 1.0
C      1  0.4568110000000  0.4476600000000  0.5687360000000 1.0
C      1  0.4703960000000  0.5200660000000  0.5225730000000 1.0
C      1  0.5765660000000  0.5275280000000  0.4998340000000 1.0
C      1  0.5132530000000  0.4257680000000  0.4622810000000 1.0
C      1  0.5012030000000  0.5958230000000  0.5202060000000 1.0
C      1  0.4849630000000  0.4718400000000  0.4556490000000 1.0
C      1  0.5334400000000  0.4456680000000  0.5359420000000 1.0
C      1  0.5369970000000  0.5414120000000  0.4365950000000 1.0
C      1  0.4427840000000  0.4748010000000  0.5212290000000 1.0
C      1  0.5431180000000  0.5950120000000  0.4635500000000 1.0
C      1  0.5862640000000  0.5282040000000  0.5451070000000 1.0
C      1  0.5701950000000  0.5813520000000  0.4932810000000 1.0
C      1  0.5800960000000  0.4770160000000  0.5081860000000 1.0
C      1  0.5414690000000  0.4666890000000  0.4492390000000 1.0
C      1  0.4478230000000  0.4604840000000  0.4312680000000 1.0
C      1  0.4624600000000  0.5372610000000  0.5428350000000 1.0
C      1  0.4530810000000  0.5026290000000  0.5080230000000 1.0
C      1  0.5458260000000  0.5348010000000  0.5877400000000 1.0
C      1  0.4350150000000  0.5522070000000  0.5124350000000 1.0
C      1  0.5413590000000  0.5697960000000  0.5231420000000 1.0
C      1  0.4912230000000  0.5925790000000  0.5478300000000 1.0
C      1  0.4305700000000  0.4822600000000  0.4661630000000 1.0
C      1  0.5667210000000  0.5579610000000  0.5130830000000 1.0
C      1  0.4594610000000  0.4789180000000  0.4684730000000 1.0
C      1  0.4836900000000  0.4353810000000  0.5732770000000 1.0
C      1  0.4443580000000  0.5382890000000  0.4417510000000 1.0
C      1  0.4744160000000  0.5778690000000  0.4747900000000 1.0
C      1  0.4953530000000  0.4077490000000  0.5303590000000 1.0
C      1  0.5103090000000  0.5388530000000  0.4205040000000 1.0
C      1  0.5774010000000  0.4495130000000  0.5114370000000 1.0
C      1  0.4920800000000  0.5693530000000  0.5107540000000 1.0
C      1  0.5186970000000  0.4982170000000  0.5482760000000 1.0
C      1  0.5733420000000  0.5524930000000  0.5440390000000 1.0
C      1  0.5022420000000  0.4575020000000  0.4954790000000 1.0
C      1  0.5013720000000  0.5368320000000  0.4740520000000 1.0
C      1  0.4325200000000  0.5569440000000  0.4601740000000 1.0
C      1  0.4881920000000  0.5587840000000  0.4855480000000 1.0
C      1  0.5699950000000  0.5778160000000  0.4645410000000 1.0
C      1  0.4897160000000  0.4725620000000  0.5351200000000 1.0
C      1  0.4798240000000  0.4443190000000  0.5072740000000 1.0
C      1  0.4016690000000  0.4678640000000  0.4913160000000 1.0
C      1  0.4782710000000  0.5611430000000  0.5775430000000 1.0
C      1  0.4276370000000  0.4457650000000  0.4483320000000 1.0
C      1  0.4214470000000  0.4529960000000  0.5072010000000 1.0
C      1  0.4397710000000  0.4918920000000  0.5685100000000 1.0
C      1  0.4917180000000  0.5201880000000  0.4535670000000 1.0
C      1  0.5696050000000  0.4226580000000  0.5115170000000 1.0
C      1  0.4435640000000  0.5205410000000  0.5745360000000 1.0
C      1  0.5140360000000  0.5056880000000  0.5093420000000 1.0
END
