TITL C-4164247-2821-513 18.5288292207831 125000 -18143.7188817724 0 0 121 (C1) n - 1
REM
REM in /home/nfs/bkarasulu/CARBON/AIRSS/Generating-Clusters/ReaxFF-fromJPCA2015/Units_Real/with-SteepDescent/Only-C1/SD-CG/Try1-3A/FIRE-CG
REM
REM
REM
REM
REM
REM ./C.cell (11c1c37f851c82e70ff6c80c92926a4b)
REM
REM compiler GCC version 9.2.1 20190827 (Red Hat 9.2.1-1)
REM options -cpp -mtune=generic -march=x86-64 -g -O0 -fpre-include=/usr/include/finclude/math-vector-fortran.h
REM seed -1166696302 1945666050 -85104192 2063548733 -446914533 1476453452 1895155557 -202416885 -1107760109 131818707 1111834164 1795917469 -1294473586 1241835203 -202894396 1569728070 -1163749428 -1469964375 1999809099 -1371128249 -269733604 1496972302 -1132351235 -1892633555 1761759524 -1073839253 -837430974 -1472176797 -980001548 -407795655 -1714921032 -837012959 1851728579
REM
CELL 1.54180   50.00000   50.00000   50.00000   90.00000   90.00000   90.00000
LATT -1
SFAC C  
C      1  0.5224540000000  0.5109470000000  0.4398540000000 1.0
C      1  0.5087850000000  0.5824050000000  0.5405550000000 1.0
C      1  0.5652120000000  0.4952090000000  0.4735240000000 1.0
C      1  0.5330310000000  0.5061600000000  0.4683460000000 1.0
C      1  0.4374010000000  0.5623020000000  0.5424370000000 1.0
C      1  0.4886730000000  0.4593040000000  0.4678090000000 1.0
C      1  0.5101260000000  0.4072360000000  0.5346260000000 1.0
C      1  0.4735450000000  0.5033110000000  0.4665540000000 1.0
C      1  0.4530300000000  0.4861980000000  0.5298600000000 1.0
C      1  0.5493580000000  0.4544450000000  0.4353060000000 1.0
C      1  0.4952190000000  0.4119330000000  0.4951110000000 1.0
C      1  0.5191390000000  0.5355700000000  0.4030250000000 1.0
C      1  0.4366520000000  0.5563230000000  0.4854580000000 1.0
C      1  0.5009300000000  0.4462520000000  0.4450860000000 1.0
C      1  0.4617530000000  0.4396120000000  0.4420980000000 1.0
C      1  0.4220340000000  0.5044570000000  0.4517170000000 1.0
C      1  0.4136380000000  0.4593500000000  0.4615580000000 1.0
C      1  0.4967760000000  0.4363070000000  0.5710520000000 1.0
C      1  0.4876480000000  0.5587230000000  0.4269550000000 1.0
C      1  0.5468830000000  0.4192710000000  0.5038870000000 1.0
C      1  0.4872300000000  0.5812120000000  0.4700590000000 1.0
C      1  0.5431030000000  0.5834350000000  0.4529280000000 1.0
C      1  0.5753030000000  0.5499750000000  0.4717990000000 1.0
C      1  0.5231810000000  0.4866950000000  0.5352080000000 1.0
C      1  0.4547750000000  0.5021600000000  0.4880730000000 1.0
C      1  0.5547060000000  0.4264390000000  0.4767030000000 1.0
C      1  0.5939470000000  0.5089720000000  0.5274970000000 1.0
C      1  0.5594230000000  0.5628170000000  0.4934780000000 1.0
C      1  0.4703760000000  0.4392210000000  0.5609620000000 1.0
C      1  0.4560260000000  0.5420050000000  0.5851950000000 1.0
C      1  0.4247600000000  0.5181070000000  0.5509830000000 1.0
C      1  0.4288520000000  0.5110830000000  0.4941890000000 1.0
C      1  0.4976030000000  0.5963660000000  0.5145220000000 1.0
C      1  0.4705460000000  0.4926690000000  0.4348750000000 1.0
C      1  0.5240070000000  0.6008650000000  0.5056360000000 1.0
C      1  0.5421040000000  0.5582260000000  0.4394450000000 1.0
C      1  0.5574630000000  0.4383260000000  0.5237770000000 1.0
C      1  0.5433200000000  0.5559660000000  0.5616030000000 1.0
C      1  0.4229300000000  0.5392170000000  0.5312170000000 1.0
C      1  0.5555770000000  0.4539130000000  0.4813610000000 1.0
C      1  0.4929560000000  0.4841990000000  0.4798050000000 1.0
C      1  0.4380970000000  0.4379190000000  0.5226120000000 1.0
C      1  0.4669210000000  0.4121840000000  0.4871080000000 1.0
C      1  0.4519670000000  0.4895580000000  0.5804160000000 1.0
C      1  0.4822060000000  0.5569130000000  0.5823060000000 1.0
C      1  0.4782850000000  0.5300730000000  0.4715510000000 1.0
C      1  0.5773440000000  0.5309800000000  0.5344640000000 1.0
C      1  0.4352590000000  0.4713750000000  0.5645680000000 1.0
C      1  0.4638220000000  0.5077660000000  0.5138120000000 1.0
C      1  0.4753830000000  0.5907940000000  0.4944800000000 1.0
C      1  0.5316020000000  0.4643620000000  0.4926170000000 1.0
C      1  0.4101080000000  0.5021930000000  0.4801380000000 1.0
C      1  0.4938100000000  0.5206850000000  0.4025360000000 1.0
C      1  0.5212890000000  0.4052140000000  0.5079590000000 1.0
C      1  0.4866730000000  0.5759980000000  0.5587630000000 1.0
C      1  0.4922550000000  0.4550000000000  0.5197620000000 1.0
C      1  0.4888920000000  0.5191040000000  0.5227410000000 1.0
C      1  0.5390220000000  0.5281620000000  0.5138480000000 1.0
C      1  0.4797000000000  0.4846960000000  0.5879250000000 1.0
C      1  0.4966730000000  0.5077470000000  0.5907190000000 1.0
C      1  0.5274050000000  0.4713000000000  0.5866470000000 1.0
C      1  0.5467720000000  0.4913910000000  0.4084680000000 1.0
C      1  0.4747030000000  0.5374950000000  0.4124470000000 1.0
C      1  0.4960930000000  0.4948460000000  0.5377510000000 1.0
C      1  0.4382140000000  0.5257970000000  0.4426200000000 1.0
C      1  0.4421360000000  0.5178290000000  0.5758290000000 1.0
C      1  0.5621760000000  0.5149080000000  0.5543860000000 1.0
C      1  0.4860220000000  0.4220690000000  0.5223670000000 1.0
C      1  0.5942090000000  0.5338350000000  0.4854070000000 1.0
C      1  0.4852410000000  0.4228980000000  0.4406000000000 1.0
C      1  0.5000940000000  0.4620760000000  0.5851390000000 1.0
C      1  0.4721350000000  0.5681600000000  0.4489710000000 1.0
C      1  0.5131350000000  0.4203350000000  0.4501580000000 1.0
C      1  0.5405950000000  0.4298530000000  0.4511500000000 1.0
C      1  0.5629230000000  0.5370380000000  0.4486480000000 1.0
C      1  0.5386100000000  0.5184950000000  0.4171880000000 1.0
C      1  0.5240190000000  0.4984100000000  0.5995690000000 1.0
C      1  0.4233790000000  0.4503450000000  0.5008870000000 1.0
C      1  0.5203290000000  0.4636350000000  0.5189810000000 1.0
C      1  0.5613540000000  0.4817960000000  0.4317280000000 1.0
C      1  0.5199320000000  0.4845420000000  0.4776310000000 1.0
C      1  0.5355300000000  0.5780980000000  0.4840020000000 1.0
C      1  0.5564150000000  0.5516980000000  0.5205370000000 1.0
C      1  0.4543910000000  0.4676650000000  0.4352120000000 1.0
C      1  0.5353900000000  0.5699060000000  0.5415230000000 1.0
C      1  0.5405830000000  0.5188590000000  0.5919500000000 1.0
C      1  0.4575610000000  0.5177490000000  0.4227660000000 1.0
C      1  0.5679550000000  0.4839510000000  0.5585230000000 1.0
C      1  0.5484310000000  0.4643600000000  0.5671840000000 1.0
C      1  0.4445480000000  0.4459670000000  0.5512040000000 1.0
C      1  0.5203270000000  0.4785900000000  0.4074430000000 1.0
C      1  0.5443180000000  0.4401490000000  0.5500430000000 1.0
C      1  0.5011960000000  0.4979600000000  0.4222390000000 1.0
C      1  0.4084980000000  0.4728380000000  0.4866180000000 1.0
C      1  0.5242420000000  0.5263530000000  0.4888300000000 1.0
C      1  0.4682990000000  0.5603290000000  0.5425710000000 1.0
C      1  0.5166440000000  0.5566660000000  0.4221340000000 1.0
C      1  0.5752630000000  0.4718520000000  0.4872670000000 1.0
C      1  0.4325420000000  0.5780680000000  0.5198910000000 1.0
C      1  0.5685200000000  0.5070220000000  0.4479300000000 1.0
C      1  0.4273020000000  0.4900100000000  0.5436740000000 1.0
C      1  0.5406730000000  0.5096560000000  0.5336860000000 1.0
C      1  0.4521580000000  0.4261190000000  0.4653550000000 1.0
C      1  0.4989890000000  0.5384330000000  0.4889460000000 1.0
C      1  0.4218070000000  0.5359420000000  0.5005600000000 1.0
C      1  0.4774990000000  0.4732760000000  0.5387280000000 1.0
C      1  0.4277220000000  0.4382960000000  0.4747590000000 1.0
C      1  0.4570020000000  0.4173080000000  0.5137650000000 1.0
C      1  0.4955890000000  0.5319330000000  0.5733840000000 1.0
C      1  0.5746370000000  0.4613130000000  0.5152510000000 1.0
C      1  0.4534520000000  0.5470260000000  0.4613570000000 1.0
C      1  0.5834210000000  0.4807850000000  0.5349700000000 1.0
C      1  0.5242530000000  0.4548510000000  0.4222110000000 1.0
C      1  0.4840170000000  0.5356430000000  0.5464760000000 1.0
C      1  0.5202960000000  0.4247080000000  0.5554680000000 1.0
C      1  0.5547740000000  0.5372870000000  0.5789590000000 1.0
C      1  0.4464620000000  0.5824540000000  0.4958100000000 1.0
C      1  0.6015800000000  0.5206750000000  0.5031790000000 1.0
C      1  0.5087440000000  0.5634330000000  0.4798670000000 1.0
C      1  0.4279950000000  0.4768950000000  0.4428440000000 1.0
C      1  0.4817170000000  0.4609170000000  0.4938560000000 1.0
END
