TITL C-4164244-2836-407 34.4121251044495 125000 -22308.2307711302 0 0 150 (C1) n - 1
REM
REM in /home/nfs/bkarasulu/CARBON/AIRSS/Generating-Clusters/ReaxFF-fromJPCA2015/Units_Real/with-SteepDescent/Only-C1/SD-CG/Try1-3A/FIRE-CG
REM
REM
REM
REM
REM
REM ./C.cell (11c1c37f851c82e70ff6c80c92926a4b)
REM
REM compiler GCC version 9.2.1 20190827 (Red Hat 9.2.1-1)
REM options -cpp -mtune=generic -march=x86-64 -g -O0 -fpre-include=/usr/include/finclude/math-vector-fortran.h
REM seed -604000095 1377713636 -581298283 1156467741 1846590540 -1853243169 1979108084 -1520840463 -21361787 1091741733 1135011930 783460041 1162368545 799332913 -645519566 -1211322703 756074615 1948824018 -366047461 -2112309325 -768652894 -426178898 81670293 -11104324 2088101398 1023381761 33412613 1417921789 -331908896 1368269533 217481069 -1729941473 -1998259790
REM
CELL 1.54180   50.00000   50.00000   50.00000   90.00000   90.00000   90.00000
LATT -1
SFAC C  
C      1  0.5364780000000  0.4944930000000  0.5707560000000 1.0
C      1  0.5629000000000  0.4527280000000  0.5672550000000 1.0
C      1  0.5564870000000  0.4891640000000  0.4138930000000 1.0
C      1  0.5530100000000  0.5034080000000  0.4983100000000 1.0
C      1  0.4897530000000  0.5762310000000  0.5486750000000 1.0
C      1  0.4547080000000  0.5127820000000  0.4840090000000 1.0
C      1  0.5939370000000  0.5390280000000  0.5284410000000 1.0
C      1  0.5196950000000  0.5315170000000  0.4016290000000 1.0
C      1  0.5559120000000  0.5655130000000  0.4454720000000 1.0
C      1  0.4452130000000  0.4486890000000  0.5687020000000 1.0
C      1  0.5105140000000  0.4155710000000  0.5310400000000 1.0
C      1  0.4860470000000  0.5438010000000  0.6013610000000 1.0
C      1  0.4353050000000  0.4578460000000  0.4400130000000 1.0
C      1  0.5638230000000  0.5731900000000  0.5057270000000 1.0
C      1  0.4466200000000  0.4246590000000  0.5221400000000 1.0
C      1  0.5114810000000  0.5541480000000  0.5913060000000 1.0
C      1  0.5586460000000  0.5415220000000  0.5705280000000 1.0
C      1  0.4863140000000  0.5014090000000  0.4071170000000 1.0
C      1  0.5746030000000  0.5492230000000  0.4921190000000 1.0
C      1  0.4557290000000  0.4439930000000  0.5419300000000 1.0
C      1  0.5243060000000  0.4011170000000  0.4711730000000 1.0
C      1  0.4742770000000  0.5930060000000  0.4964700000000 1.0
C      1  0.4102910000000  0.4977520000000  0.4553570000000 1.0
C      1  0.5289680000000  0.4781390000000  0.4558890000000 1.0
C      1  0.3987480000000  0.5528710000000  0.5126840000000 1.0
C      1  0.4464200000000  0.5213850000000  0.5803480000000 1.0
C      1  0.5335780000000  0.4820880000000  0.4887750000000 1.0
C      1  0.4760980000000  0.4914100000000  0.6103230000000 1.0
C      1  0.5323280000000  0.5349520000000  0.5876730000000 1.0
C      1  0.5895280000000  0.4377130000000  0.5057610000000 1.0
C      1  0.5702240000000  0.4403730000000  0.4584690000000 1.0
C      1  0.5911940000000  0.4953130000000  0.4662140000000 1.0
C      1  0.5546950000000  0.4231680000000  0.4782520000000 1.0
C      1  0.4661720000000  0.4365390000000  0.5855330000000 1.0
C      1  0.4187300000000  0.4875890000000  0.5293860000000 1.0
C      1  0.5378600000000  0.5486570000000  0.4125490000000 1.0
C      1  0.6008430000000  0.5057410000000  0.4916550000000 1.0
C      1  0.4855570000000  0.4777240000000  0.5612240000000 1.0
C      1  0.4813410000000  0.4150390000000  0.5778770000000 1.0
C      1  0.5638770000000  0.5104860000000  0.5749810000000 1.0
C      1  0.5261500000000  0.4722460000000  0.5924200000000 1.0
C      1  0.4874860000000  0.5569180000000  0.5095920000000 1.0
C      1  0.5106460000000  0.5012280000000  0.5232110000000 1.0
C      1  0.4091930000000  0.5578880000000  0.4858630000000 1.0
C      1  0.4324100000000  0.4580450000000  0.4893620000000 1.0
C      1  0.4732140000000  0.5312850000000  0.4698870000000 1.0
C      1  0.4142030000000  0.5644710000000  0.5368390000000 1.0
C      1  0.5338480000000  0.4236220000000  0.5743620000000 1.0
C      1  0.5691480000000  0.5325430000000  0.5399190000000 1.0
C      1  0.5817560000000  0.4672900000000  0.4663910000000 1.0
C      1  0.4884550000000  0.5669430000000  0.4232030000000 1.0
C      1  0.5884100000000  0.5183250000000  0.4448680000000 1.0
C      1  0.5312410000000  0.5738060000000  0.4680400000000 1.0
C      1  0.4393710000000  0.4308740000000  0.4937700000000 1.0
C      1  0.5156640000000  0.5512460000000  0.4816090000000 1.0
C      1  0.4744930000000  0.4010240000000  0.4669370000000 1.0
C      1  0.4754090000000  0.4657680000000  0.4692040000000 1.0
C      1  0.4722620000000  0.5333960000000  0.5761030000000 1.0
C      1  0.4383700000000  0.5324460000000  0.4387570000000 1.0
C      1  0.4322530000000  0.5159040000000  0.4621110000000 1.0
C      1  0.5486210000000  0.5776770000000  0.5322890000000 1.0
C      1  0.4385530000000  0.4727980000000  0.5131450000000 1.0
C      1  0.4363180000000  0.5832900000000  0.5327860000000 1.0
C      1  0.4877270000000  0.4583990000000  0.5825170000000 1.0
C      1  0.4955360000000  0.5839750000000  0.5202670000000 1.0
C      1  0.4812470000000  0.5905750000000  0.4681930000000 1.0
C      1  0.4242370000000  0.5834740000000  0.4877610000000 1.0
C      1  0.4603220000000  0.4271230000000  0.4725080000000 1.0
C      1  0.5348880000000  0.4262820000000  0.4258150000000 1.0
C      1  0.4719620000000  0.5386060000000  0.5247500000000 1.0
C      1  0.4876260000000  0.5517570000000  0.4832130000000 1.0
C      1  0.5642570000000  0.4415140000000  0.5205920000000 1.0
C      1  0.5324570000000  0.5068710000000  0.4139800000000 1.0
C      1  0.4893910000000  0.4969510000000  0.4354700000000 1.0
C      1  0.4361890000000  0.4759600000000  0.5769850000000 1.0
C      1  0.5308160000000  0.5045170000000  0.4434830000000 1.0
C      1  0.5134460000000  0.5243200000000  0.4724800000000 1.0
C      1  0.3931370000000  0.5257700000000  0.5086610000000 1.0
C      1  0.5039610000000  0.4370890000000  0.4972020000000 1.0
C      1  0.4697430000000  0.5742850000000  0.4449150000000 1.0
C      1  0.4893180000000  0.4474270000000  0.4257360000000 1.0
C      1  0.5989830000000  0.5348350000000  0.5010830000000 1.0
C      1  0.4913690000000  0.5419130000000  0.4075230000000 1.0
C      1  0.4505690000000  0.5240780000000  0.5115460000000 1.0
C      1  0.4921730000000  0.5200900000000  0.4523570000000 1.0
C      1  0.4998100000000  0.4009960000000  0.5685840000000 1.0
C      1  0.3946790000000  0.4979630000000  0.5086680000000 1.0
C      1  0.5384210000000  0.5256970000000  0.4600870000000 1.0
C      1  0.5137990000000  0.5636850000000  0.5619340000000 1.0
C      1  0.4699960000000  0.5237520000000  0.4017620000000 1.0
C      1  0.4499260000000  0.5709440000000  0.5560460000000 1.0
C      1  0.4811270000000  0.5186120000000  0.6131380000000 1.0
C      1  0.5175580000000  0.5115520000000  0.5802350000000 1.0
C      1  0.5427320000000  0.5885380000000  0.4921810000000 1.0
C      1  0.5073580000000  0.4973230000000  0.4949380000000 1.0
C      1  0.4672070000000  0.4065570000000  0.5115550000000 1.0
C      1  0.5307150000000  0.4389220000000  0.4862480000000 1.0
C      1  0.4668260000000  0.4772760000000  0.5141850000000 1.0
C      1  0.4784300000000  0.4281410000000  0.4947120000000 1.0
C      1  0.5082890000000  0.5909670000000  0.4565850000000 1.0
C      1  0.4276690000000  0.5513880000000  0.5585730000000 1.0
C      1  0.5432520000000  0.4475350000000  0.5874780000000 1.0
C      1  0.4804090000000  0.4770830000000  0.3932080000000 1.0
C      1  0.5004410000000  0.4721810000000  0.6051030000000 1.0
C      1  0.5529110000000  0.4704880000000  0.4377530000000 1.0
C      1  0.4809530000000  0.4620970000000  0.5357330000000 1.0
C      1  0.5692600000000  0.4211620000000  0.5016130000000 1.0
C      1  0.5115310000000  0.5836960000000  0.4288340000000 1.0
C      1  0.4914230000000  0.5066050000000  0.5671340000000 1.0
C      1  0.5794640000000  0.4560280000000  0.5466850000000 1.0
C      1  0.4943820000000  0.5188110000000  0.5365100000000 1.0
C      1  0.4343440000000  0.4915530000000  0.4099840000000 1.0
C      1  0.5370990000000  0.4569040000000  0.5086040000000 1.0
C      1  0.4528910000000  0.4716320000000  0.3992710000000 1.0
C      1  0.3997180000000  0.4951660000000  0.4811960000000 1.0
C      1  0.4219180000000  0.5711210000000  0.4621210000000 1.0
C      1  0.4983080000000  0.3944180000000  0.4839170000000 1.0
C      1  0.5561730000000  0.4434840000000  0.4350420000000 1.0
C      1  0.4179840000000  0.4899790000000  0.5598100000000 1.0
C      1  0.5249920000000  0.4045400000000  0.5552830000000 1.0
C      1  0.5552090000000  0.5094810000000  0.5264630000000 1.0
C      1  0.5332120000000  0.4970510000000  0.5401470000000 1.0
C      1  0.6015020000000  0.4841410000000  0.5104180000000 1.0
C      1  0.5824840000000  0.4961940000000  0.5593250000000 1.0
C      1  0.4435080000000  0.5193500000000  0.4130670000000 1.0
C      1  0.4720640000000  0.5547800000000  0.5523700000000 1.0
C      1  0.4520180000000  0.4954630000000  0.5928460000000 1.0
C      1  0.5397540000000  0.5743510000000  0.4223080000000 1.0
C      1  0.4474460000000  0.5897420000000  0.5055450000000 1.0
C      1  0.5099450000000  0.4451980000000  0.5246880000000 1.0
C      1  0.4189500000000  0.4797210000000  0.4319570000000 1.0
C      1  0.4466350000000  0.4660980000000  0.4652680000000 1.0
C      1  0.4959010000000  0.4706920000000  0.4478360000000 1.0
C      1  0.4283210000000  0.5181880000000  0.5577150000000 1.0
C      1  0.4436660000000  0.5613190000000  0.4449520000000 1.0
C      1  0.5953930000000  0.4805610000000  0.5399370000000 1.0
C      1  0.5967260000000  0.4621210000000  0.4915120000000 1.0
C      1  0.5270280000000  0.5897420000000  0.5166600000000 1.0
C      1  0.4558100000000  0.4464560000000  0.4182440000000 1.0
C      1  0.5282270000000  0.4119890000000  0.4486850000000 1.0
C      1  0.5180960000000  0.5358460000000  0.5428710000000 1.0
C      1  0.5738970000000  0.5087350000000  0.4232320000000 1.0
C      1  0.5576010000000  0.5266110000000  0.4823720000000 1.0
C      1  0.5734500000000  0.5434630000000  0.4448560000000 1.0
C      1  0.5440930000000  0.5644860000000  0.5578070000000 1.0
C      1  0.4352710000000  0.5111540000000  0.5299280000000 1.0
C      1  0.5000800000000  0.4568400000000  0.3996440000000 1.0
C      1  0.5098410000000  0.4344330000000  0.4123500000000 1.0
C      1  0.4946710000000  0.3979420000000  0.5137940000000 1.0
C      1  0.4781680000000  0.4862410000000  0.4897750000000 1.0
END
