TITL C-4164246-3563-65 4.45021850800198 125000 -27706.8047106357 0 0 186 (C1) n - 1
REM
REM in /home/nfs/bkarasulu/CARBON/AIRSS/Generating-Clusters/ReaxFF-fromJPCA2015/Units_Real/with-SteepDescent/Only-C1/SD-CG/Try1-3A/FIRE-CG
REM
REM
REM
REM
REM
REM ./C.cell (11c1c37f851c82e70ff6c80c92926a4b)
REM
REM compiler GCC version 9.2.1 20190827 (Red Hat 9.2.1-1)
REM options -cpp -mtune=generic -march=x86-64 -g -O0 -fpre-include=/usr/include/finclude/math-vector-fortran.h
REM seed 147354090 1314797293 -1353932900 -373477440 -130712353 -561775128 1544770689 -2003212094 1784920897 -1866905438 349242907 1162690710 -676786140 1813465563 1493148251 1339831519 1724144333 -2006411452 -1151834482 -1645380934 -980390879 -867538244 -597034681 -748750165 -1498612199 -1516512843 344897246 -720378573 1563755777 1175735803 -1992589293 1282687312 2115277242
REM
CELL 1.54180   50.00000   50.00000   50.00000   90.00000   90.00000   90.00000
LATT -1
SFAC C  
C      1  0.4851430000000  0.5009800000000  0.6125640000000 1.0
C      1  0.3958360000000  0.5004530000000  0.4939300000000 1.0
C      1  0.5172720000000  0.4381870000000  0.5400660000000 1.0
C      1  0.5326900000000  0.4242520000000  0.5600970000000 1.0
C      1  0.5327800000000  0.3946950000000  0.5260850000000 1.0
C      1  0.5815940000000  0.5352680000000  0.5538490000000 1.0
C      1  0.4062090000000  0.4975520000000  0.4444150000000 1.0
C      1  0.4206560000000  0.5397680000000  0.5048350000000 1.0
C      1  0.5771880000000  0.4466500000000  0.5589510000000 1.0
C      1  0.5007480000000  0.5479660000000  0.4521960000000 1.0
C      1  0.4180280000000  0.4974170000000  0.5835980000000 1.0
C      1  0.5292590000000  0.4205000000000  0.4551250000000 1.0
C      1  0.5602550000000  0.5302220000000  0.4982580000000 1.0
C      1  0.5250670000000  0.4819730000000  0.4132910000000 1.0
C      1  0.4848670000000  0.5720660000000  0.4949580000000 1.0
C      1  0.6078170000000  0.5071410000000  0.4669850000000 1.0
C      1  0.4406920000000  0.5832700000000  0.5498940000000 1.0
C      1  0.5806060000000  0.4741310000000  0.4363130000000 1.0
C      1  0.6020140000000  0.4976280000000  0.4942980000000 1.0
C      1  0.4858480000000  0.4167850000000  0.5700630000000 1.0
C      1  0.4502160000000  0.4833130000000  0.5545680000000 1.0
C      1  0.5420640000000  0.4777010000000  0.5545810000000 1.0
C      1  0.5323450000000  0.4503960000000  0.4540790000000 1.0
C      1  0.4517060000000  0.5363280000000  0.5184700000000 1.0
C      1  0.5059790000000  0.4085370000000  0.4403210000000 1.0
C      1  0.4235340000000  0.5103870000000  0.4248070000000 1.0
C      1  0.4517530000000  0.5914860000000  0.5246010000000 1.0
C      1  0.5901750000000  0.4503780000000  0.4508440000000 1.0
C      1  0.5696520000000  0.4039570000000  0.4832490000000 1.0
C      1  0.4635680000000  0.5698280000000  0.5670420000000 1.0
C      1  0.4571020000000  0.4071080000000  0.4582840000000 1.0
C      1  0.5125620000000  0.4250270000000  0.5812770000000 1.0
C      1  0.5524480000000  0.5645690000000  0.4653910000000 1.0
C      1  0.5684630000000  0.5807800000000  0.5342970000000 1.0
C      1  0.4684070000000  0.5770800000000  0.4277810000000 1.0
C      1  0.4136500000000  0.4763450000000  0.4919920000000 1.0
C      1  0.4881780000000  0.4296060000000  0.3916790000000 1.0
C      1  0.5048730000000  0.4575460000000  0.4932190000000 1.0
C      1  0.5541190000000  0.4974690000000  0.5387710000000 1.0
C      1  0.5803890000000  0.4267330000000  0.4344600000000 1.0
C      1  0.4018480000000  0.4498300000000  0.5020290000000 1.0
C      1  0.4996070000000  0.5269270000000  0.4931740000000 1.0
C      1  0.4546620000000  0.5330220000000  0.5997870000000 1.0
C      1  0.4849900000000  0.4611100000000  0.5853460000000 1.0
C      1  0.4873840000000  0.4177330000000  0.4198970000000 1.0
C      1  0.5485140000000  0.5275600000000  0.4033360000000 1.0
C      1  0.4742730000000  0.5157140000000  0.5085390000000 1.0
C      1  0.4678030000000  0.4491760000000  0.3968650000000 1.0
C      1  0.4897590000000  0.6073510000000  0.4624730000000 1.0
C      1  0.4635250000000  0.4663820000000  0.4199130000000 1.0
C      1  0.5771500000000  0.4837720000000  0.5004670000000 1.0
C      1  0.5090420000000  0.5154850000000  0.6081240000000 1.0
C      1  0.4456970000000  0.4940550000000  0.4551720000000 1.0
C      1  0.4548860000000  0.4464400000000  0.5249430000000 1.0
C      1  0.5223650000000  0.4433230000000  0.5121490000000 1.0
C      1  0.4937660000000  0.4159230000000  0.4763760000000 1.0
C      1  0.4688270000000  0.4670780000000  0.5401190000000 1.0
C      1  0.4944780000000  0.5215280000000  0.4441800000000 1.0
C      1  0.4317040000000  0.5376910000000  0.5644090000000 1.0
C      1  0.5182700000000  0.6090550000000  0.5400370000000 1.0
C      1  0.5215200000000  0.3954830000000  0.4998620000000 1.0
C      1  0.5398770000000  0.4044340000000  0.4774350000000 1.0
C      1  0.5316260000000  0.4972160000000  0.6038710000000 1.0
C      1  0.4800320000000  0.5658100000000  0.5447080000000 1.0
C      1  0.4676630000000  0.5652860000000  0.5189700000000 1.0
C      1  0.4654470000000  0.4812200000000  0.4707200000000 1.0
C      1  0.5084500000000  0.5357770000000  0.5673810000000 1.0
C      1  0.4900900000000  0.5051100000000  0.5349370000000 1.0
C      1  0.5941900000000  0.4430190000000  0.5093500000000 1.0
C      1  0.5747220000000  0.5861820000000  0.5060340000000 1.0
C      1  0.5776160000000  0.5271730000000  0.4460600000000 1.0
C      1  0.4824480000000  0.4033150000000  0.5439500000000 1.0
C      1  0.5671240000000  0.5373990000000  0.4209470000000 1.0
C      1  0.5390980000000  0.5861900000000  0.5280040000000 1.0
C      1  0.5067740000000  0.5078450000000  0.4675860000000 1.0
C      1  0.5371040000000  0.5823350000000  0.4438200000000 1.0
C      1  0.5085150000000  0.3967450000000  0.5393700000000 1.0
C      1  0.3996770000000  0.5207460000000  0.5145940000000 1.0
C      1  0.4517690000000  0.5257830000000  0.5457230000000 1.0
C      1  0.5522220000000  0.4682290000000  0.4191280000000 1.0
C      1  0.4665730000000  0.4370390000000  0.5789570000000 1.0
C      1  0.5748040000000  0.4908260000000  0.5768300000000 1.0
C      1  0.4798270000000  0.5185290000000  0.5580680000000 1.0
C      1  0.5354870000000  0.5246580000000  0.5687590000000 1.0
C      1  0.4320190000000  0.4411030000000  0.5432090000000 1.0
C      1  0.4273010000000  0.5527440000000  0.4528820000000 1.0
C      1  0.4933720000000  0.4049690000000  0.4991050000000 1.0
C      1  0.5120950000000  0.4500880000000  0.5961840000000 1.0
C      1  0.5235770000000  0.5603670000000  0.5247930000000 1.0
C      1  0.4280080000000  0.5239910000000  0.5902740000000 1.0
C      1  0.4454500000000  0.5991660000000  0.4745920000000 1.0
C      1  0.4407070000000  0.4461330000000  0.5709450000000 1.0
C      1  0.4913620000000  0.4744670000000  0.5564240000000 1.0
C      1  0.4261760000000  0.5841220000000  0.4881370000000 1.0
C      1  0.4073140000000  0.4521150000000  0.5313200000000 1.0
C      1  0.5918170000000  0.4860100000000  0.5526320000000 1.0
C      1  0.5602520000000  0.4426160000000  0.4208850000000 1.0
C      1  0.5099940000000  0.5580150000000  0.4981740000000 1.0
C      1  0.5518190000000  0.5247640000000  0.5456000000000 1.0
C      1  0.5920950000000  0.4986540000000  0.4436120000000 1.0
C      1  0.4396030000000  0.4757190000000  0.5816000000000 1.0
C      1  0.5007730000000  0.4497330000000  0.3754600000000 1.0
C      1  0.4705290000000  0.4152900000000  0.5171460000000 1.0
C      1  0.4208220000000  0.4765290000000  0.4597390000000 1.0
C      1  0.5053780000000  0.5213840000000  0.3871780000000 1.0
C      1  0.4598920000000  0.4188990000000  0.4314310000000 1.0
C      1  0.5885250000000  0.5399730000000  0.5037600000000 1.0
C      1  0.5517950000000  0.5082980000000  0.5854790000000 1.0
C      1  0.5497660000000  0.4406050000000  0.5078710000000 1.0
C      1  0.5545760000000  0.5672140000000  0.5818910000000 1.0
C      1  0.5778960000000  0.5731270000000  0.4797170000000 1.0
C      1  0.4473560000000  0.4329330000000  0.4691060000000 1.0
C      1  0.4452220000000  0.4436840000000  0.4309390000000 1.0
C      1  0.4165000000000  0.5325940000000  0.4729050000000 1.0
C      1  0.4663020000000  0.4530680000000  0.4704190000000 1.0
C      1  0.5071240000000  0.5616220000000  0.5498900000000 1.0
C      1  0.5325890000000  0.5740970000000  0.4842070000000 1.0
C      1  0.5138200000000  0.5901590000000  0.5614600000000 1.0
C      1  0.4918140000000  0.4436670000000  0.4717280000000 1.0
C      1  0.5166270000000  0.6017820000000  0.4524390000000 1.0
C      1  0.4440300000000  0.5189170000000  0.4697370000000 1.0
C      1  0.4857400000000  0.5006920000000  0.3800080000000 1.0
C      1  0.4229350000000  0.4159980000000  0.4953100000000 1.0
C      1  0.5577720000000  0.4666180000000  0.5782350000000 1.0
C      1  0.5038470000000  0.5428650000000  0.5949550000000 1.0
C      1  0.5912730000000  0.4592730000000  0.5379340000000 1.0
C      1  0.4329640000000  0.4920080000000  0.5333920000000 1.0
C      1  0.4749710000000  0.5285660000000  0.4171150000000 1.0
C      1  0.5759800000000  0.4106130000000  0.4571130000000 1.0
C      1  0.4137270000000  0.5689530000000  0.5083590000000 1.0
C      1  0.5830340000000  0.4160200000000  0.5083340000000 1.0
C      1  0.5108900000000  0.4827570000000  0.4871280000000 1.0
C      1  0.4457400000000  0.4937110000000  0.4150960000000 1.0
C      1  0.4794190000000  0.5583760000000  0.4690360000000 1.0
C      1  0.5388650000000  0.5363300000000  0.5216160000000 1.0
C      1  0.4698730000000  0.5077820000000  0.5902440000000 1.0
C      1  0.5337100000000  0.4683690000000  0.5989560000000 1.0
C      1  0.4615490000000  0.4920080000000  0.4966490000000 1.0
C      1  0.3950670000000  0.5221450000000  0.5435530000000 1.0
C      1  0.4539720000000  0.5525580000000  0.4203370000000 1.0
C      1  0.5931080000000  0.4517630000000  0.4811220000000 1.0
C      1  0.5273920000000  0.5083850000000  0.4007960000000 1.0
C      1  0.4162380000000  0.5718060000000  0.5385670000000 1.0
C      1  0.4854990000000  0.3978860000000  0.4598680000000 1.0
C      1  0.4284800000000  0.5401460000000  0.4266140000000 1.0
C      1  0.5582700000000  0.4159820000000  0.5260810000000 1.0
C      1  0.5469310000000  0.5930840000000  0.5015410000000 1.0
C      1  0.5539220000000  0.5262140000000  0.4687010000000 1.0
C      1  0.4090950000000  0.4329600000000  0.4795260000000 1.0
C      1  0.5645940000000  0.4614730000000  0.4880110000000 1.0
C      1  0.5321440000000  0.5872550000000  0.5833880000000 1.0
C      1  0.5439160000000  0.5527980000000  0.4150500000000 1.0
C      1  0.4951900000000  0.4741440000000  0.3755970000000 1.0
C      1  0.4924410000000  0.5688310000000  0.4128450000000 1.0
C      1  0.5062750000000  0.4579950000000  0.4432510000000 1.0
C      1  0.6043660000000  0.5352320000000  0.4596090000000 1.0
C      1  0.5022720000000  0.6165470000000  0.5178890000000 1.0
C      1  0.4852360000000  0.6067110000000  0.4944130000000 1.0
C      1  0.6049070000000  0.5182500000000  0.5148740000000 1.0
C      1  0.4682870000000  0.4802610000000  0.6012200000000 1.0
C      1  0.4540850000000  0.5452870000000  0.4641280000000 1.0
C      1  0.4416520000000  0.4760590000000  0.5099310000000 1.0
C      1  0.4487430000000  0.4075020000000  0.4988200000000 1.0
C      1  0.5279370000000  0.4920960000000  0.5065400000000 1.0
C      1  0.5450880000000  0.4734580000000  0.4660020000000 1.0
C      1  0.5731440000000  0.5626140000000  0.5572920000000 1.0
C      1  0.5184930000000  0.5632450000000  0.4289180000000 1.0
C      1  0.5169850000000  0.4658910000000  0.5468080000000 1.0
C      1  0.3967970000000  0.5117930000000  0.4674460000000 1.0
C      1  0.4662330000000  0.5951420000000  0.4516540000000 1.0
C      1  0.5983870000000  0.5140930000000  0.5431920000000 1.0
C      1  0.4247390000000  0.4458350000000  0.4534000000000 1.0
C      1  0.5385230000000  0.5018350000000  0.4633130000000 1.0
C      1  0.4653640000000  0.5077240000000  0.3997940000000 1.0
C      1  0.4055810000000  0.4806330000000  0.5388120000000 1.0
C      1  0.4908900000000  0.5438230000000  0.3987360000000 1.0
C      1  0.5560960000000  0.4981010000000  0.5108840000000 1.0
C      1  0.6003690000000  0.5543910000000  0.4810430000000 1.0
C      1  0.4556350000000  0.6089720000000  0.5009130000000 1.0
C      1  0.5300000000000  0.5613100000000  0.5960940000000 1.0
C      1  0.4722390000000  0.5534880000000  0.5897970000000 1.0
C      1  0.5154900000000  0.5160470000000  0.5168310000000 1.0
C      1  0.5613830000000  0.4231790000000  0.5554120000000 1.0
C      1  0.3992610000000  0.4982050000000  0.5613910000000 1.0
C      1  0.4067020000000  0.5478230000000  0.5525460000000 1.0
C      1  0.4990390000000  0.4724930000000  0.4232090000000 1.0
END
