TITL C-4164242-3624-419 35.7763940779023 125000 -21601.6342944691 0 0 143 (C1) n - 1
REM
REM in /home/nfs/bkarasulu/CARBON/AIRSS/Generating-Clusters/ReaxFF-fromJPCA2015/Units_Real/with-SteepDescent/Only-C1/SD-CG/Try1-3A/FIRE-CG
REM
REM
REM
REM
REM
REM ./C.cell (11c1c37f851c82e70ff6c80c92926a4b)
REM
REM compiler GCC version 9.2.1 20190827 (Red Hat 9.2.1-1)
REM options -cpp -mtune=generic -march=x86-64 -g -O0 -fpre-include=/usr/include/finclude/math-vector-fortran.h
REM seed -421289813 -2007639657 1142434672 2104474686 -1716592344 992285898 1220419415 322882180 -946512361 2141614929 -2102365001 306784298 -917520077 611247223 -515579299 92112935 -552657365 -1855190319 1085228361 1304101230 2024398954 1068102654 -198501349 -1283316620 405449511 -2049562309 1745270261 1461243691 -710310450 1533536496 148244184 1021199149 2119297497
REM
CELL 1.54180   50.00000   50.00000   50.00000   90.00000   90.00000   90.00000
LATT -1
SFAC C  
C      1  0.4740090000000  0.5683300000000  0.4753090000000 1.0
C      1  0.4660940000000  0.4754640000000  0.4070900000000 1.0
C      1  0.5430430000000  0.4837500000000  0.6030950000000 1.0
C      1  0.4974720000000  0.5891440000000  0.4752080000000 1.0
C      1  0.5211430000000  0.4502360000000  0.4820250000000 1.0
C      1  0.4319020000000  0.5231220000000  0.5556410000000 1.0
C      1  0.5671070000000  0.5614720000000  0.4430250000000 1.0
C      1  0.4895010000000  0.4194330000000  0.5561100000000 1.0
C      1  0.4374890000000  0.5806840000000  0.5412120000000 1.0
C      1  0.5375240000000  0.4348750000000  0.4201950000000 1.0
C      1  0.5169840000000  0.4040020000000  0.4999870000000 1.0
C      1  0.4780110000000  0.4613250000000  0.5444200000000 1.0
C      1  0.4959120000000  0.5588080000000  0.5867350000000 1.0
C      1  0.4849620000000  0.5148870000000  0.4403750000000 1.0
C      1  0.4298790000000  0.4537320000000  0.4354710000000 1.0
C      1  0.5061530000000  0.5960410000000  0.5016780000000 1.0
C      1  0.4068710000000  0.4612980000000  0.5060820000000 1.0
C      1  0.4305990000000  0.4425700000000  0.4625800000000 1.0
C      1  0.5157150000000  0.5062550000000  0.4942730000000 1.0
C      1  0.4825880000000  0.5775220000000  0.5669470000000 1.0
C      1  0.5836670000000  0.5399630000000  0.4744420000000 1.0
C      1  0.4003590000000  0.5100460000000  0.5327440000000 1.0
C      1  0.4854810000000  0.4460490000000  0.5679600000000 1.0
C      1  0.5489390000000  0.4732470000000  0.4060250000000 1.0
C      1  0.4961530000000  0.5253990000000  0.4845050000000 1.0
C      1  0.5746680000000  0.5093310000000  0.4370540000000 1.0
C      1  0.5575150000000  0.5471930000000  0.5334780000000 1.0
C      1  0.5207330000000  0.5697450000000  0.5801310000000 1.0
C      1  0.5417660000000  0.5589520000000  0.4294020000000 1.0
C      1  0.5556750000000  0.4772720000000  0.5266440000000 1.0
C      1  0.6052320000000  0.4971660000000  0.4897840000000 1.0
C      1  0.5141430000000  0.4836180000000  0.5978290000000 1.0
C      1  0.5717340000000  0.4527220000000  0.5289470000000 1.0
C      1  0.5690120000000  0.4692060000000  0.4273460000000 1.0
C      1  0.5382810000000  0.4092220000000  0.4560700000000 1.0
C      1  0.4726310000000  0.4327960000000  0.4289410000000 1.0
C      1  0.5007660000000  0.4572350000000  0.5918810000000 1.0
C      1  0.5448670000000  0.5094230000000  0.4338170000000 1.0
C      1  0.5406810000000  0.5023400000000  0.4046700000000 1.0
C      1  0.4449060000000  0.5747880000000  0.4688410000000 1.0
C      1  0.5254110000000  0.4435170000000  0.5948550000000 1.0
C      1  0.5847710000000  0.4543310000000  0.4791260000000 1.0
C      1  0.5236330000000  0.4223620000000  0.4783650000000 1.0
C      1  0.4334360000000  0.5722090000000  0.4950470000000 1.0
C      1  0.4630820000000  0.5538290000000  0.4297080000000 1.0
C      1  0.4766090000000  0.4904710000000  0.4516290000000 1.0
C      1  0.5231970000000  0.5531410000000  0.5004050000000 1.0
C      1  0.4715010000000  0.4839780000000  0.4776820000000 1.0
C      1  0.4509330000000  0.5019470000000  0.4839350000000 1.0
C      1  0.4946160000000  0.5801790000000  0.5390230000000 1.0
C      1  0.4391300000000  0.5596870000000  0.4445250000000 1.0
C      1  0.5400760000000  0.5222610000000  0.5415630000000 1.0
C      1  0.5725730000000  0.4309790000000  0.4877400000000 1.0
C      1  0.5010370000000  0.5303010000000  0.4556660000000 1.0
C      1  0.5301650000000  0.4635800000000  0.5309020000000 1.0
C      1  0.5004750000000  0.5376980000000  0.4028470000000 1.0
C      1  0.4417220000000  0.5340650000000  0.5812620000000 1.0
C      1  0.5828150000000  0.5364320000000  0.4469490000000 1.0
C      1  0.5114310000000  0.4664660000000  0.4337730000000 1.0
C      1  0.4091870000000  0.4580520000000  0.4777340000000 1.0
C      1  0.5236490000000  0.5138220000000  0.4508500000000 1.0
C      1  0.5130550000000  0.4581540000000  0.5083980000000 1.0
C      1  0.4228350000000  0.5355130000000  0.4531620000000 1.0
C      1  0.4880980000000  0.4054130000000  0.4939740000000 1.0
C      1  0.5292130000000  0.5630790000000  0.4737750000000 1.0
C      1  0.5116980000000  0.5760200000000  0.4531130000000 1.0
C      1  0.5243000000000  0.4580650000000  0.4087740000000 1.0
C      1  0.5973270000000  0.4864950000000  0.5574630000000 1.0
C      1  0.5604560000000  0.5056900000000  0.5289260000000 1.0
C      1  0.4014680000000  0.4824290000000  0.4633040000000 1.0
C      1  0.4318270000000  0.4943940000000  0.4210660000000 1.0
C      1  0.5303180000000  0.4958500000000  0.4703000000000 1.0
C      1  0.4492600000000  0.4687660000000  0.5154170000000 1.0
C      1  0.5368800000000  0.5174760000000  0.5721360000000 1.0
C      1  0.5356170000000  0.5755430000000  0.5614570000000 1.0
C      1  0.5839440000000  0.5247590000000  0.5254130000000 1.0
C      1  0.4888910000000  0.5368010000000  0.5366300000000 1.0
C      1  0.4116970000000  0.5505630000000  0.4980270000000 1.0
C      1  0.4042860000000  0.5403120000000  0.5249930000000 1.0
C      1  0.5979640000000  0.4651870000000  0.5354380000000 1.0
C      1  0.4125890000000  0.5014580000000  0.5573600000000 1.0
C      1  0.4543060000000  0.5022210000000  0.4077870000000 1.0
C      1  0.4666990000000  0.4599040000000  0.4924390000000 1.0
C      1  0.4862060000000  0.5599900000000  0.4471460000000 1.0
C      1  0.5207210000000  0.4150510000000  0.4336510000000 1.0
C      1  0.5068740000000  0.5566530000000  0.5253650000000 1.0
C      1  0.4338610000000  0.4544430000000  0.5601110000000 1.0
C      1  0.5483680000000  0.4417470000000  0.5784710000000 1.0
C      1  0.4026280000000  0.5328980000000  0.4761160000000 1.0
C      1  0.3973950000000  0.5043480000000  0.4812120000000 1.0
C      1  0.4757590000000  0.5421220000000  0.4933400000000 1.0
C      1  0.4586400000000  0.4928990000000  0.5750460000000 1.0
C      1  0.4772220000000  0.4890680000000  0.5530310000000 1.0
C      1  0.4767260000000  0.4158750000000  0.4682300000000 1.0
C      1  0.4291270000000  0.4478480000000  0.5196810000000 1.0
C      1  0.5185400000000  0.5545410000000  0.4175230000000 1.0
C      1  0.5315850000000  0.4442460000000  0.5534340000000 1.0
C      1  0.4035630000000  0.4919100000000  0.5087690000000 1.0
C      1  0.5280580000000  0.4674730000000  0.4598740000000 1.0
C      1  0.4186380000000  0.5605970000000  0.5373060000000 1.0
C      1  0.4536050000000  0.4501530000000  0.4175720000000 1.0
C      1  0.5956650000000  0.4774430000000  0.4685800000000 1.0
C      1  0.4901910000000  0.5299440000000  0.5893310000000 1.0
C      1  0.5470360000000  0.5786990000000  0.5368390000000 1.0
C      1  0.5574860000000  0.5053830000000  0.5883040000000 1.0
C      1  0.4640640000000  0.4161500000000  0.5413420000000 1.0
C      1  0.4534020000000  0.5793120000000  0.5674260000000 1.0
C      1  0.6102430000000  0.4799100000000  0.5132040000000 1.0
C      1  0.4380880000000  0.4320560000000  0.5445240000000 1.0
C      1  0.4561250000000  0.4354760000000  0.4743370000000 1.0
C      1  0.6022030000000  0.5135390000000  0.5470010000000 1.0
C      1  0.4633270000000  0.5180040000000  0.5899190000000 1.0
C      1  0.4139960000000  0.4787260000000  0.4357460000000 1.0
C      1  0.4496690000000  0.5560140000000  0.5809800000000 1.0
C      1  0.4865020000000  0.4509330000000  0.5159440000000 1.0
C      1  0.5579850000000  0.5810960000000  0.4969800000000 1.0
C      1  0.4906980000000  0.4164360000000  0.4406030000000 1.0
C      1  0.5193420000000  0.5052360000000  0.5230610000000 1.0
C      1  0.5571600000000  0.5703950000000  0.4696870000000 1.0
C      1  0.4382750000000  0.4961960000000  0.5120920000000 1.0
C      1  0.4957220000000  0.5085020000000  0.5397250000000 1.0
C      1  0.5598180000000  0.4292540000000  0.5154550000000 1.0
C      1  0.5191950000000  0.5184840000000  0.3981360000000 1.0
C      1  0.4644000000000  0.5384530000000  0.5199390000000 1.0
C      1  0.5512750000000  0.5531450000000  0.5058000000000 1.0
C      1  0.4319250000000  0.4808590000000  0.5698490000000 1.0
C      1  0.5117290000000  0.5109400000000  0.5852600000000 1.0
C      1  0.5625560000000  0.4635360000000  0.5928490000000 1.0
C      1  0.4850440000000  0.4737550000000  0.4301000000000 1.0
C      1  0.5934770000000  0.5239560000000  0.4944750000000 1.0
C      1  0.5864230000000  0.4852250000000  0.4417430000000 1.0
C      1  0.5356380000000  0.5915880000000  0.5125190000000 1.0
C      1  0.4723990000000  0.5282390000000  0.4166940000000 1.0
C      1  0.4397570000000  0.5183100000000  0.4657820000000 1.0
C      1  0.5784100000000  0.4853260000000  0.5803580000000 1.0
C      1  0.5536880000000  0.4483990000000  0.4432010000000 1.0
C      1  0.5625960000000  0.4249150000000  0.4598110000000 1.0
C      1  0.5340090000000  0.4148280000000  0.5215550000000 1.0
C      1  0.4802510000000  0.5928650000000  0.5173850000000 1.0
C      1  0.4450250000000  0.5194130000000  0.5300100000000 1.0
C      1  0.5179720000000  0.4195640000000  0.5456790000000 1.0
C      1  0.4762900000000  0.4207740000000  0.5155930000000 1.0
C      1  0.4510810000000  0.5848000000000  0.5153960000000 1.0
END
