TITL C-4164242-3624-336 57.2495393927082 125000 -14885.5729476775 0 0 102 (C1) n - 1
REM
REM in /home/nfs/bkarasulu/CARBON/AIRSS/Generating-Clusters/ReaxFF-fromJPCA2015/Units_Real/with-SteepDescent/Only-C1/SD-CG/Try1-3A/FIRE-CG
REM
REM
REM
REM
REM
REM ./C.cell (11c1c37f851c82e70ff6c80c92926a4b)
REM
REM compiler GCC version 9.2.1 20190827 (Red Hat 9.2.1-1)
REM options -cpp -mtune=generic -march=x86-64 -g -O0 -fpre-include=/usr/include/finclude/math-vector-fortran.h
REM seed -147845374 1188810114 -1131146271 -1326829298 -743878404 1603771373 321543008 -2045735325 1314377863 1086812620 801587985 -2108843339 -30381381 1286310599 1163864843 1742013871 -1342210468 -402087088 1871865659 1685320514 -287798044 -970691360 -566249576 1592784694 -706226659 -308291848 2115607179 -590896071 -1171151108 2036028150 300023188 -1617746153 -784231159
REM
CELL 1.54180   50.00000   50.00000   50.00000   90.00000   90.00000   90.00000
LATT -1
SFAC C  
C      1  0.5771540000000  0.4596410000000  0.5199450000000 1.0
C      1  0.5131360000000  0.4790920000000  0.5819690000000 1.0
C      1  0.4502730000000  0.5219210000000  0.5691180000000 1.0
C      1  0.4593260000000  0.5138230000000  0.4197950000000 1.0
C      1  0.5804130000000  0.5534820000000  0.5151630000000 1.0
C      1  0.4418220000000  0.4405490000000  0.4865110000000 1.0
C      1  0.5055870000000  0.4610160000000  0.5133920000000 1.0
C      1  0.5191230000000  0.4685010000000  0.4715140000000 1.0
C      1  0.5160800000000  0.5719000000000  0.5523660000000 1.0
C      1  0.4854700000000  0.5902840000000  0.4936710000000 1.0
C      1  0.5603840000000  0.5688500000000  0.5018450000000 1.0
C      1  0.5556610000000  0.5284200000000  0.4759060000000 1.0
C      1  0.5929160000000  0.5080210000000  0.4918330000000 1.0
C      1  0.5041210000000  0.5070090000000  0.4689640000000 1.0
C      1  0.5624080000000  0.5170690000000  0.5242430000000 1.0
C      1  0.4103340000000  0.4419640000000  0.5290270000000 1.0
C      1  0.4312780000000  0.4799420000000  0.5059950000000 1.0
C      1  0.4819140000000  0.4155200000000  0.5013050000000 1.0
C      1  0.5050950000000  0.4495640000000  0.5424260000000 1.0
C      1  0.5660360000000  0.5544020000000  0.4781760000000 1.0
C      1  0.4714430000000  0.5378230000000  0.5787680000000 1.0
C      1  0.5900870000000  0.4801340000000  0.4973590000000 1.0
C      1  0.5328670000000  0.4769120000000  0.5612080000000 1.0
C      1  0.4994400000000  0.4788120000000  0.4244510000000 1.0
C      1  0.4632220000000  0.4574790000000  0.5638650000000 1.0
C      1  0.4222030000000  0.4700280000000  0.5330080000000 1.0
C      1  0.5823450000000  0.4622180000000  0.4761470000000 1.0
C      1  0.5729140000000  0.4420190000000  0.4956100000000 1.0
C      1  0.5670760000000  0.4716540000000  0.4527060000000 1.0
C      1  0.4877800000000  0.5038350000000  0.4149970000000 1.0
C      1  0.4903940000000  0.5142740000000  0.5779130000000 1.0
C      1  0.5326480000000  0.5317420000000  0.4286570000000 1.0
C      1  0.4779980000000  0.4956220000000  0.4762920000000 1.0
C      1  0.5577070000000  0.5080160000000  0.5521690000000 1.0
C      1  0.4919350000000  0.4607610000000  0.5665530000000 1.0
C      1  0.5558570000000  0.4601210000000  0.5332410000000 1.0
C      1  0.4917030000000  0.5332450000000  0.5293470000000 1.0
C      1  0.5272970000000  0.5667740000000  0.5038770000000 1.0
C      1  0.5812000000000  0.5177970000000  0.4661050000000 1.0
C      1  0.5185850000000  0.5083550000000  0.5846270000000 1.0
C      1  0.4280650000000  0.5427800000000  0.4842700000000 1.0
C      1  0.4781470000000  0.5805200000000  0.4465640000000 1.0
C      1  0.5509240000000  0.4322770000000  0.5370010000000 1.0
C      1  0.4959980000000  0.5101970000000  0.5489820000000 1.0
C      1  0.4918240000000  0.5441730000000  0.4304470000000 1.0
C      1  0.5202720000000  0.5056640000000  0.4936810000000 1.0
C      1  0.4675260000000  0.4315580000000  0.5504560000000 1.0
C      1  0.4553760000000  0.4665900000000  0.4944800000000 1.0
C      1  0.4403980000000  0.5680490000000  0.4769340000000 1.0
C      1  0.4965000000000  0.4108160000000  0.4809720000000 1.0
C      1  0.3968840000000  0.4953330000000  0.4861750000000 1.0
C      1  0.4356790000000  0.5215730000000  0.4621860000000 1.0
C      1  0.5292980000000  0.3907060000000  0.5214590000000 1.0
C      1  0.4507080000000  0.4875470000000  0.4249670000000 1.0
C      1  0.4182410000000  0.5044110000000  0.4956620000000 1.0
C      1  0.4499010000000  0.4951230000000  0.4652240000000 1.0
C      1  0.5444270000000  0.5167300000000  0.5007890000000 1.0
C      1  0.5892800000000  0.5262980000000  0.5155470000000 1.0
C      1  0.4624740000000  0.4454590000000  0.4499740000000 1.0
C      1  0.5219440000000  0.5677510000000  0.4712990000000 1.0
C      1  0.5197950000000  0.5444200000000  0.5226370000000 1.0
C      1  0.4668980000000  0.5757140000000  0.5430870000000 1.0
C      1  0.5231870000000  0.4480340000000  0.4906250000000 1.0
C      1  0.4568940000000  0.4425250000000  0.5276540000000 1.0
C      1  0.5463150000000  0.5055440000000  0.4295720000000 1.0
C      1  0.5304120000000  0.5508540000000  0.4508360000000 1.0
C      1  0.4454960000000  0.4714230000000  0.4472240000000 1.0
C      1  0.4425350000000  0.4765730000000  0.5531400000000 1.0
C      1  0.5096570000000  0.4039490000000  0.5398620000000 1.0
C      1  0.5613480000000  0.4783590000000  0.5533550000000 1.0
C      1  0.4930390000000  0.5328000000000  0.4598780000000 1.0
C      1  0.5179530000000  0.4934540000000  0.5420700000000 1.0
C      1  0.4888090000000  0.4688690000000  0.4719100000000 1.0
C      1  0.5059450000000  0.5869720000000  0.5140260000000 1.0
C      1  0.5193410000000  0.4872570000000  0.5143700000000 1.0
C      1  0.4627730000000  0.4267510000000  0.4723950000000 1.0
C      1  0.5386470000000  0.4657060000000  0.4485750000000 1.0
C      1  0.4429050000000  0.5056520000000  0.5473000000000 1.0
C      1  0.4725640000000  0.5242530000000  0.5048060000000 1.0
C      1  0.5070060000000  0.5260340000000  0.4140400000000 1.0
C      1  0.4979820000000  0.5845590000000  0.4682670000000 1.0
C      1  0.4479580000000  0.5715490000000  0.5211800000000 1.0
C      1  0.5286720000000  0.4816750000000  0.4267170000000 1.0
C      1  0.5459480000000  0.4305540000000  0.4917870000000 1.0
C      1  0.5493980000000  0.4122850000000  0.5149680000000 1.0
C      1  0.4591140000000  0.5565870000000  0.4562230000000 1.0
C      1  0.5243780000000  0.4283220000000  0.5484750000000 1.0
C      1  0.4332250000000  0.4310220000000  0.5137610000000 1.0
C      1  0.4830750000000  0.4132770000000  0.5311820000000 1.0
C      1  0.4750740000000  0.5497310000000  0.5521640000000 1.0
C      1  0.4479160000000  0.5333980000000  0.4393100000000 1.0
C      1  0.4897150000000  0.5733600000000  0.4204570000000 1.0
C      1  0.4876640000000  0.4595420000000  0.4438610000000 1.0
C      1  0.5702150000000  0.4996660000000  0.4451590000000 1.0
C      1  0.5380180000000  0.5227120000000  0.5670000000000 1.0
C      1  0.4338190000000  0.5458720000000  0.5128710000000 1.0
C      1  0.5305800000000  0.5478950000000  0.5501690000000 1.0
C      1  0.4746310000000  0.4600050000000  0.5154040000000 1.0
C      1  0.4950770000000  0.5875460000000  0.5410680000000 1.0
C      1  0.4757290000000  0.5393970000000  0.4800350000000 1.0
C      1  0.4468520000000  0.5203460000000  0.5188850000000 1.0
C      1  0.4563460000000  0.5834050000000  0.4965570000000 1.0
END
