TITL C-4164236-1577-479 297.30577855614 125000 -24502.4555184053 0 0 169 (C1) n - 1
REM
REM in /home/nfs/bkarasulu/CARBON/AIRSS/Generating-Clusters/ReaxFF-fromJPCA2015/Units_Real/with-SteepDescent/Only-C1/SD-CG/Try1-3A/FIRE-CG
REM
REM
REM
REM
REM
REM ./C.cell (11c1c37f851c82e70ff6c80c92926a4b)
REM
REM compiler GCC version 9.2.1 20190827 (Red Hat 9.2.1-1)
REM options -cpp -mtune=generic -march=x86-64 -g -O0 -fpre-include=/usr/include/finclude/math-vector-fortran.h
REM seed 876407680 -455857919 947580320 -1817308285 1513115945 -895782538 1472114828 -1601254672 -687495923 557762054 1575018717 -1159309413 -840739760 -1611492744 1235342177 -1717906997 184759033 -558666311 348570719 1590332327 695189965 -109995220 2073762614 1223540743 117784402 -1102412829 639699960 12239242 2132210643 -680954106 -1698151793 -149531097 -2062333105
REM
CELL 1.54180   50.00000   50.00000   50.00000   90.00000   90.00000   90.00000
LATT -1
SFAC C  
C      1  0.5473730000000  0.5831320000000  0.5188580000000 1.0
C      1  0.5062870000000  0.3952870000000  0.4820960000000 1.0
C      1  0.4886050000000  0.4620730000000  0.4871950000000 1.0
C      1  0.4472010000000  0.4564470000000  0.5434330000000 1.0
C      1  0.5455380000000  0.5231630000000  0.3864820000000 1.0
C      1  0.4513720000000  0.5128000000000  0.4578670000000 1.0
C      1  0.4655650000000  0.4705400000000  0.4021560000000 1.0
C      1  0.4988810000000  0.4742620000000  0.4623080000000 1.0
C      1  0.4775690000000  0.4008680000000  0.4660450000000 1.0
C      1  0.5605850000000  0.5605880000000  0.4875840000000 1.0
C      1  0.5295570000000  0.4951540000000  0.5644320000000 1.0
C      1  0.6051200000000  0.4756780000000  0.5329090000000 1.0
C      1  0.4556060000000  0.4299520000000  0.5544000000000 1.0
C      1  0.5319600000000  0.5247350000000  0.5611280000000 1.0
C      1  0.5289310000000  0.5393620000000  0.5891110000000 1.0
C      1  0.5966930000000  0.5513450000000  0.5190210000000 1.0
C      1  0.5919650000000  0.5159040000000  0.5533580000000 1.0
C      1  0.5537080000000  0.4512340000000  0.4965810000000 1.0
C      1  0.4589060000000  0.5187680000000  0.4307070000000 1.0
C      1  0.6113050000000  0.5092800000000  0.4892630000000 1.0
C      1  0.5341000000000  0.3965590000000  0.5244860000000 1.0
C      1  0.4225780000000  0.5348790000000  0.5723730000000 1.0
C      1  0.4123860000000  0.5390740000000  0.4912490000000 1.0
C      1  0.5187680000000  0.5098840000000  0.3896160000000 1.0
C      1  0.4350270000000  0.4304990000000  0.5071330000000 1.0
C      1  0.4484050000000  0.4560620000000  0.5105270000000 1.0
C      1  0.4574590000000  0.4197600000000  0.4758520000000 1.0
C      1  0.4985990000000  0.5261130000000  0.4025230000000 1.0
C      1  0.5530130000000  0.5140640000000  0.4331020000000 1.0
C      1  0.4791030000000  0.5857090000000  0.4645810000000 1.0
C      1  0.4895640000000  0.4665090000000  0.6041240000000 1.0
C      1  0.5273350000000  0.4405900000000  0.5015800000000 1.0
C      1  0.5126640000000  0.6044510000000  0.5318680000000 1.0
C      1  0.4944500000000  0.4746000000000  0.5121220000000 1.0
C      1  0.5026510000000  0.5456010000000  0.5983750000000 1.0
C      1  0.5632570000000  0.4097350000000  0.4809590000000 1.0
C      1  0.5499720000000  0.4129050000000  0.4593850000000 1.0
C      1  0.5262070000000  0.5779750000000  0.4465240000000 1.0
C      1  0.4597180000000  0.5422110000000  0.5137100000000 1.0
C      1  0.5876540000000  0.4804630000000  0.4572000000000 1.0
C      1  0.5350170000000  0.4762140000000  0.5863390000000 1.0
C      1  0.4736220000000  0.4943540000000  0.5582320000000 1.0
C      1  0.5708010000000  0.4265010000000  0.5267600000000 1.0
C      1  0.5179590000000  0.4594630000000  0.5214210000000 1.0
C      1  0.4866610000000  0.5595390000000  0.5791460000000 1.0
C      1  0.4975740000000  0.5542290000000  0.4101740000000 1.0
C      1  0.4187800000000  0.4600530000000  0.5579200000000 1.0
C      1  0.4509900000000  0.4772170000000  0.4916680000000 1.0
C      1  0.4233400000000  0.5396030000000  0.4273600000000 1.0
C      1  0.4015150000000  0.4726950000000  0.4683380000000 1.0
C      1  0.4961160000000  0.4420630000000  0.5910970000000 1.0
C      1  0.5123060000000  0.3831320000000  0.5104510000000 1.0
C      1  0.4384070000000  0.4650960000000  0.4137470000000 1.0
C      1  0.4584310000000  0.5591270000000  0.5775540000000 1.0
C      1  0.5994400000000  0.5074670000000  0.4625960000000 1.0
C      1  0.4471730000000  0.5339200000000  0.5878080000000 1.0
C      1  0.5385970000000  0.5976380000000  0.5431350000000 1.0
C      1  0.4875630000000  0.5125400000000  0.4266170000000 1.0
C      1  0.4851200000000  0.4489260000000  0.4032280000000 1.0
C      1  0.5540250000000  0.5877280000000  0.4784890000000 1.0
C      1  0.4614990000000  0.5908850000000  0.5363760000000 1.0
C      1  0.5101610000000  0.4396690000000  0.5417800000000 1.0
C      1  0.5595460000000  0.4558580000000  0.4179710000000 1.0
C      1  0.5348950000000  0.4404450000000  0.4185870000000 1.0
C      1  0.5083490000000  0.5636070000000  0.4967910000000 1.0
C      1  0.4633500000000  0.4834220000000  0.6028800000000 1.0
C      1  0.4004840000000  0.4998430000000  0.4579010000000 1.0
C      1  0.5562090000000  0.5784370000000  0.4515850000000 1.0
C      1  0.5915850000000  0.4904730000000  0.5700830000000 1.0
C      1  0.5745900000000  0.4942440000000  0.5141900000000 1.0
C      1  0.5281570000000  0.4478980000000  0.5847030000000 1.0
C      1  0.5202080000000  0.4542600000000  0.4637300000000 1.0
C      1  0.5723770000000  0.4402430000000  0.5504100000000 1.0
C      1  0.4464300000000  0.4140160000000  0.5306030000000 1.0
C      1  0.4511950000000  0.4809860000000  0.4622210000000 1.0
C      1  0.5819250000000  0.4591150000000  0.4374070000000 1.0
C      1  0.5386260000000  0.5639680000000  0.5818470000000 1.0
C      1  0.4872000000000  0.4110220000000  0.4411530000000 1.0
C      1  0.4937400000000  0.3890350000000  0.5325570000000 1.0
C      1  0.5214530000000  0.5621810000000  0.4232630000000 1.0
C      1  0.5207880000000  0.5143760000000  0.5191840000000 1.0
C      1  0.4395550000000  0.4800780000000  0.5895960000000 1.0
C      1  0.4686320000000  0.5620710000000  0.4180070000000 1.0
C      1  0.5333650000000  0.4342250000000  0.4474550000000 1.0
C      1  0.4109200000000  0.5615350000000  0.5299820000000 1.0
C      1  0.5126850000000  0.5087920000000  0.6109870000000 1.0
C      1  0.4890650000000  0.5863780000000  0.5396370000000 1.0
C      1  0.5611550000000  0.5068650000000  0.4067270000000 1.0
C      1  0.5542300000000  0.4778220000000  0.5071940000000 1.0
C      1  0.4089690000000  0.4949990000000  0.5084160000000 1.0
C      1  0.5455310000000  0.4983680000000  0.4558960000000 1.0
C      1  0.5300240000000  0.3953000000000  0.4614740000000 1.0
C      1  0.5594090000000  0.4067360000000  0.5114600000000 1.0
C      1  0.4376190000000  0.4338260000000  0.4566090000000 1.0
C      1  0.5713740000000  0.5534080000000  0.4488490000000 1.0
C      1  0.4626700000000  0.5133020000000  0.6015660000000 1.0
C      1  0.4589010000000  0.6027060000000  0.5094710000000 1.0
C      1  0.5117820000000  0.5346590000000  0.5349670000000 1.0
C      1  0.4160060000000  0.4844730000000  0.5751220000000 1.0
C      1  0.4827990000000  0.5002070000000  0.5146890000000 1.0
C      1  0.4484560000000  0.5399540000000  0.4131490000000 1.0
C      1  0.5710100000000  0.5150650000000  0.5328740000000 1.0
C      1  0.5155070000000  0.4808610000000  0.6088960000000 1.0
C      1  0.5686070000000  0.5564580000000  0.5551750000000 1.0
C      1  0.4031170000000  0.5117190000000  0.4856880000000 1.0
C      1  0.4806010000000  0.4845720000000  0.4225250000000 1.0
C      1  0.5138880000000  0.4553520000000  0.4037060000000 1.0
C      1  0.5077280000000  0.5776780000000  0.4698200000000 1.0
C      1  0.4168910000000  0.5837210000000  0.5138940000000 1.0
C      1  0.4044430000000  0.4525640000000  0.5358320000000 1.0
C      1  0.4765030000000  0.5245450000000  0.5310280000000 1.0
C      1  0.4135800000000  0.5101760000000  0.5602840000000 1.0
C      1  0.4754790000000  0.4681710000000  0.4452100000000 1.0
C      1  0.5254460000000  0.4802190000000  0.3943790000000 1.0
C      1  0.4638180000000  0.3908940000000  0.5280230000000 1.0
C      1  0.5299650000000  0.4937090000000  0.5031000000000 1.0
C      1  0.4269200000000  0.4608000000000  0.4599840000000 1.0
C      1  0.5533970000000  0.4786190000000  0.4011170000000 1.0
C      1  0.6017740000000  0.5367200000000  0.4928620000000 1.0
C      1  0.4584840000000  0.5741280000000  0.4408660000000 1.0
C      1  0.4266080000000  0.5385820000000  0.5175050000000 1.0
C      1  0.3999230000000  0.4697690000000  0.4989470000000 1.0
C      1  0.5458770000000  0.5092720000000  0.4829870000000 1.0
C      1  0.4313920000000  0.6005040000000  0.5025550000000 1.0
C      1  0.5515630000000  0.5813050000000  0.5650130000000 1.0
C      1  0.5897040000000  0.4519460000000  0.4647400000000 1.0
C      1  0.5266870000000  0.4781480000000  0.4513650000000 1.0
C      1  0.6020330000000  0.4873690000000  0.5079570000000 1.0
C      1  0.4121510000000  0.5110890000000  0.4328520000000 1.0
C      1  0.4713730000000  0.5615770000000  0.4805450000000 1.0
C      1  0.5769280000000  0.4360920000000  0.4867720000000 1.0
C      1  0.5527430000000  0.5360470000000  0.5417670000000 1.0
C      1  0.4821860000000  0.6036520000000  0.4908710000000 1.0
C      1  0.4894000000000  0.5236590000000  0.6098340000000 1.0
C      1  0.4221270000000  0.5603610000000  0.5567530000000 1.0
C      1  0.5085140000000  0.6086140000000  0.5030010000000 1.0
C      1  0.4293140000000  0.5537070000000  0.4731690000000 1.0
C      1  0.4796730000000  0.4347020000000  0.4901780000000 1.0
C      1  0.5891030000000  0.5362240000000  0.4650870000000 1.0
C      1  0.4683310000000  0.4669070000000  0.5580180000000 1.0
C      1  0.4465960000000  0.5752360000000  0.5562240000000 1.0
C      1  0.5932830000000  0.4640340000000  0.5558130000000 1.0
C      1  0.5455290000000  0.5422420000000  0.4360060000000 1.0
C      1  0.5424100000000  0.5378420000000  0.4827370000000 1.0
C      1  0.4740110000000  0.4371980000000  0.4289620000000 1.0
C      1  0.5058670000000  0.4237810000000  0.4916150000000 1.0
C      1  0.5486890000000  0.4358550000000  0.5684560000000 1.0
C      1  0.5159470000000  0.4086420000000  0.4389640000000 1.0
C      1  0.5030200000000  0.4889320000000  0.5552990000000 1.0
C      1  0.5368640000000  0.6019900000000  0.4970320000000 1.0
C      1  0.5138740000000  0.4104070000000  0.5417160000000 1.0
C      1  0.4662630000000  0.5022710000000  0.4932160000000 1.0
C      1  0.4794050000000  0.5633440000000  0.5078720000000 1.0
C      1  0.5764000000000  0.5684770000000  0.5103550000000 1.0
C      1  0.4880570000000  0.5133990000000  0.4775510000000 1.0
C      1  0.4257700000000  0.5092150000000  0.5330850000000 1.0
C      1  0.5270290000000  0.5571720000000  0.5174670000000 1.0
C      1  0.4438890000000  0.4390060000000  0.4288400000000 1.0
C      1  0.4551030000000  0.5094900000000  0.5430290000000 1.0
C      1  0.4315390000000  0.5624150000000  0.4449800000000 1.0
C      1  0.4926800000000  0.5735590000000  0.5611670000000 1.0
C      1  0.4242000000000  0.4878340000000  0.4231240000000 1.0
C      1  0.4544960000000  0.5381680000000  0.4775410000000 1.0
C      1  0.4066840000000  0.4423270000000  0.5105650000000 1.0
C      1  0.5018920000000  0.5217340000000  0.4558290000000 1.0
C      1  0.4760610000000  0.4318120000000  0.5736620000000 1.0
C      1  0.5268570000000  0.5361620000000  0.4589190000000 1.0
C      1  0.5947190000000  0.5451660000000  0.5487240000000 1.0
C      1  0.4950880000000  0.4613820000000  0.5552900000000 1.0
END
