TITL C-4164236-1577-349 37.9762000787903 125000 -23049.2663189327 0 0 156 (C1) n - 1
REM
REM in /home/nfs/bkarasulu/CARBON/AIRSS/Generating-Clusters/ReaxFF-fromJPCA2015/Units_Real/with-SteepDescent/Only-C1/SD-CG/Try1-3A/FIRE-CG
REM
REM
REM
REM
REM
REM ./C.cell (11c1c37f851c82e70ff6c80c92926a4b)
REM
REM compiler GCC version 9.2.1 20190827 (Red Hat 9.2.1-1)
REM options -cpp -mtune=generic -march=x86-64 -g -O0 -fpre-include=/usr/include/finclude/math-vector-fortran.h
REM seed 62497175 1179323548 1450496182 596853687 2024483690 1071128645 -142530352 1537994911 -283000831 2125958863 -2005799689 1345818072 1110421212 -787840590 -2040170521 -766504078 -672837237 639111613 -505648265 1027069732 -1539073874 -1865312875 -275736387 -182231138 333848818 -1694098496 -1525123496 2119750128 44067776 2096089989 341366371 1246262130 -1889889327
REM
CELL 1.54180   50.00000   50.00000   50.00000   90.00000   90.00000   90.00000
LATT -1
SFAC C  
C      1  0.5113480000000  0.4160430000000  0.5615460000000 1.0
C      1  0.4937380000000  0.4606380000000  0.5273740000000 1.0
C      1  0.5916340000000  0.5314720000000  0.4616120000000 1.0
C      1  0.4633970000000  0.4705710000000  0.4977670000000 1.0
C      1  0.5459270000000  0.5531940000000  0.5685560000000 1.0
C      1  0.4151810000000  0.4458730000000  0.4694500000000 1.0
C      1  0.4434020000000  0.4965430000000  0.5436560000000 1.0
C      1  0.5476670000000  0.4356030000000  0.5211850000000 1.0
C      1  0.4553480000000  0.5334450000000  0.6003380000000 1.0
C      1  0.5690970000000  0.4504770000000  0.4304810000000 1.0
C      1  0.5722510000000  0.4720360000000  0.4108370000000 1.0
C      1  0.5909510000000  0.5712190000000  0.5150480000000 1.0
C      1  0.5429390000000  0.5857120000000  0.5010430000000 1.0
C      1  0.4002420000000  0.5503780000000  0.5310840000000 1.0
C      1  0.4979160000000  0.5020240000000  0.4774070000000 1.0
C      1  0.4840420000000  0.6078650000000  0.5070590000000 1.0
C      1  0.5895120000000  0.4470480000000  0.4948790000000 1.0
C      1  0.4179090000000  0.4998270000000  0.4126160000000 1.0
C      1  0.4961070000000  0.4894990000000  0.4084840000000 1.0
C      1  0.4267440000000  0.4959810000000  0.4619470000000 1.0
C      1  0.4468030000000  0.5748520000000  0.4750920000000 1.0
C      1  0.5538470000000  0.4096940000000  0.4730640000000 1.0
C      1  0.5861960000000  0.5153820000000  0.4375340000000 1.0
C      1  0.5180980000000  0.4410170000000  0.5754260000000 1.0
C      1  0.5117210000000  0.5136790000000  0.4030450000000 1.0
C      1  0.5364070000000  0.4755430000000  0.5373650000000 1.0
C      1  0.5090400000000  0.5033550000000  0.4525790000000 1.0
C      1  0.6044920000000  0.5256640000000  0.4877270000000 1.0
C      1  0.5899490000000  0.5430690000000  0.5358490000000 1.0
C      1  0.5815850000000  0.5318670000000  0.5084960000000 1.0
C      1  0.5913140000000  0.4357800000000  0.5417840000000 1.0
C      1  0.4320510000000  0.5394230000000  0.5079540000000 1.0
C      1  0.5078110000000  0.4552760000000  0.4733690000000 1.0
C      1  0.5268180000000  0.5366420000000  0.5856740000000 1.0
C      1  0.4663350000000  0.5170430000000  0.4518960000000 1.0
C      1  0.4856170000000  0.4216650000000  0.4331200000000 1.0
C      1  0.5352510000000  0.5943200000000  0.5297510000000 1.0
C      1  0.5139690000000  0.6041210000000  0.4591290000000 1.0
C      1  0.5147310000000  0.5656490000000  0.5033330000000 1.0
C      1  0.6001610000000  0.4937000000000  0.5238230000000 1.0
C      1  0.4259890000000  0.4175590000000  0.5075220000000 1.0
C      1  0.5699430000000  0.5701580000000  0.4961380000000 1.0
C      1  0.5862320000000  0.4646900000000  0.4485100000000 1.0
C      1  0.5376910000000  0.5963180000000  0.4478850000000 1.0
C      1  0.4027820000000  0.4611370000000  0.5195760000000 1.0
C      1  0.4851420000000  0.5372750000000  0.4623090000000 1.0
C      1  0.4439380000000  0.4505950000000  0.5687970000000 1.0
C      1  0.5750760000000  0.5036940000000  0.5107800000000 1.0
C      1  0.5436130000000  0.4842750000000  0.5872450000000 1.0
C      1  0.5515230000000  0.5068030000000  0.4694430000000 1.0
C      1  0.4262750000000  0.5337790000000  0.5918590000000 1.0
C      1  0.4122040000000  0.5589830000000  0.5548440000000 1.0
C      1  0.5079040000000  0.4086680000000  0.4473820000000 1.0
C      1  0.5362580000000  0.4621770000000  0.5690960000000 1.0
C      1  0.4744930000000  0.5527200000000  0.5882360000000 1.0
C      1  0.4942370000000  0.5047470000000  0.5602410000000 1.0
C      1  0.4732790000000  0.4473780000000  0.4237610000000 1.0
C      1  0.5391720000000  0.5077140000000  0.4141440000000 1.0
C      1  0.4453260000000  0.5838250000000  0.5264870000000 1.0
C      1  0.5112470000000  0.5781380000000  0.5704140000000 1.0
C      1  0.4579710000000  0.5062200000000  0.5902820000000 1.0
C      1  0.4898960000000  0.4392770000000  0.5058320000000 1.0
C      1  0.5831870000000  0.5165160000000  0.5681100000000 1.0
C      1  0.4582430000000  0.4794240000000  0.6329900000000 1.0
C      1  0.5636480000000  0.5279790000000  0.4240810000000 1.0
C      1  0.4835170000000  0.4513290000000  0.5529120000000 1.0
C      1  0.5862310000000  0.4603650000000  0.5230520000000 1.0
C      1  0.4152770000000  0.5496110000000  0.4629140000000 1.0
C      1  0.5020620000000  0.4912510000000  0.5843100000000 1.0
C      1  0.4018730000000  0.5023370000000  0.5229650000000 1.0
C      1  0.5633530000000  0.4944170000000  0.5677130000000 1.0
C      1  0.4469200000000  0.4627280000000  0.4279790000000 1.0
C      1  0.4654580000000  0.4424710000000  0.4928360000000 1.0
C      1  0.5267040000000  0.4565960000000  0.4058410000000 1.0
C      1  0.5017150000000  0.5414910000000  0.4044250000000 1.0
C      1  0.4885570000000  0.5619710000000  0.4465500000000 1.0
C      1  0.5469350000000  0.5324160000000  0.4819470000000 1.0
C      1  0.4118220000000  0.5304460000000  0.5661440000000 1.0
C      1  0.6003510000000  0.5162410000000  0.5447680000000 1.0
C      1  0.5404530000000  0.5721910000000  0.4298560000000 1.0
C      1  0.4147740000000  0.4362010000000  0.5272020000000 1.0
C      1  0.5248250000000  0.4019560000000  0.5401450000000 1.0
C      1  0.5438430000000  0.5009190000000  0.5469120000000 1.0
C      1  0.4800080000000  0.5433670000000  0.4902020000000 1.0
C      1  0.4393990000000  0.5721920000000  0.5523990000000 1.0
C      1  0.4986530000000  0.3896300000000  0.4689310000000 1.0
C      1  0.4229160000000  0.4568610000000  0.4432980000000 1.0
C      1  0.4798680000000  0.5231210000000  0.5104090000000 1.0
C      1  0.4472420000000  0.5091730000000  0.4724180000000 1.0
C      1  0.4618320000000  0.4276800000000  0.4433990000000 1.0
C      1  0.4876650000000  0.5698760000000  0.4950640000000 1.0
C      1  0.5637450000000  0.4876950000000  0.4886010000000 1.0
C      1  0.4881010000000  0.5775780000000  0.5490430000000 1.0
C      1  0.4521260000000  0.4073920000000  0.5098250000000 1.0
C      1  0.5047630000000  0.5551990000000  0.5876700000000 1.0
C      1  0.4440130000000  0.4897050000000  0.4155930000000 1.0
C      1  0.6178460000000  0.5027240000000  0.4990110000000 1.0
C      1  0.5105460000000  0.6072090000000  0.5202240000000 1.0
C      1  0.4021860000000  0.5311540000000  0.5090690000000 1.0
C      1  0.5107750000000  0.4830820000000  0.5225980000000 1.0
C      1  0.5165540000000  0.4599690000000  0.4469920000000 1.0
C      1  0.4073740000000  0.4814840000000  0.4485060000000 1.0
C      1  0.5349200000000  0.5069090000000  0.4452270000000 1.0
C      1  0.4743020000000  0.5904920000000  0.4801030000000 1.0
C      1  0.5196380000000  0.5160780000000  0.5496570000000 1.0
C      1  0.5040980000000  0.4159790000000  0.5003730000000 1.0
C      1  0.4981900000000  0.4608350000000  0.4034700000000 1.0
C      1  0.5403570000000  0.4411910000000  0.4327900000000 1.0
C      1  0.4283540000000  0.4218960000000  0.4799700000000 1.0
C      1  0.5893420000000  0.4867010000000  0.4306010000000 1.0
C      1  0.4524850000000  0.5165310000000  0.5040160000000 1.0
C      1  0.5223110000000  0.4212320000000  0.5201840000000 1.0
C      1  0.5823860000000  0.4677900000000  0.4758980000000 1.0
C      1  0.5567340000000  0.4627930000000  0.5189710000000 1.0
C      1  0.4926980000000  0.4601330000000  0.5802450000000 1.0
C      1  0.4831290000000  0.4213020000000  0.5530150000000 1.0
C      1  0.4904570000000  0.5891810000000  0.4567430000000 1.0
C      1  0.4862900000000  0.3895770000000  0.4960830000000 1.0
C      1  0.5722060000000  0.5428400000000  0.5616870000000 1.0
C      1  0.5731190000000  0.4278570000000  0.4828630000000 1.0
C      1  0.5358740000000  0.5789930000000  0.5562030000000 1.0
C      1  0.5451580000000  0.4789030000000  0.4034020000000 1.0
C      1  0.5000760000000  0.4835510000000  0.4372040000000 1.0
C      1  0.4382210000000  0.5673430000000  0.5017300000000 1.0
C      1  0.4270190000000  0.4458870000000  0.5493110000000 1.0
C      1  0.5664280000000  0.4211630000000  0.5382910000000 1.0
C      1  0.4853270000000  0.4761900000000  0.4818270000000 1.0
C      1  0.4558080000000  0.4237730000000  0.4717510000000 1.0
C      1  0.4625440000000  0.4553430000000  0.5881980000000 1.0
C      1  0.3924620000000  0.4977360000000  0.4228150000000 1.0
C      1  0.4706080000000  0.5971920000000  0.5300700000000 1.0
C      1  0.4538340000000  0.5166530000000  0.4252600000000 1.0
C      1  0.5047430000000  0.5080890000000  0.5056300000000 1.0
C      1  0.4513210000000  0.5461950000000  0.4262270000000 1.0
C      1  0.5228120000000  0.5389440000000  0.5328330000000 1.0
C      1  0.4379190000000  0.5601840000000  0.4514640000000 1.0
C      1  0.5247110000000  0.5071270000000  0.5923050000000 1.0
C      1  0.4168300000000  0.5067330000000  0.5471730000000 1.0
C      1  0.4554530000000  0.4796990000000  0.6071810000000 1.0
C      1  0.4680080000000  0.4118500000000  0.5311920000000 1.0
C      1  0.5050850000000  0.5600160000000  0.5302770000000 1.0
C      1  0.5349760000000  0.4173400000000  0.4492910000000 1.0
C      1  0.5265110000000  0.5346480000000  0.5024140000000 1.0
C      1  0.4780870000000  0.5555280000000  0.4198680000000 1.0
C      1  0.5511070000000  0.3950290000000  0.5284120000000 1.0
C      1  0.5367250000000  0.6010780000000  0.4759680000000 1.0
C      1  0.5607770000000  0.5526810000000  0.4385750000000 1.0
C      1  0.4644260000000  0.5054450000000  0.5614250000000 1.0
C      1  0.3947570000000  0.5392460000000  0.4759270000000 1.0
C      1  0.4027700000000  0.4615530000000  0.4905280000000 1.0
C      1  0.5199780000000  0.5581880000000  0.4164030000000 1.0
C      1  0.4645400000000  0.5666120000000  0.5657010000000 1.0
C      1  0.4148240000000  0.4851580000000  0.5048550000000 1.0
C      1  0.4458330000000  0.4883920000000  0.5143790000000 1.0
C      1  0.5687910000000  0.5500860000000  0.4690320000000 1.0
C      1  0.5515420000000  0.3948680000000  0.4989140000000 1.0
END
