TITL C-4164235-1454-751 -9.98347837784275 125000 -20515.8385974407 0 0 137 (C1) n - 1
REM
REM in /home/nfs/bkarasulu/CARBON/AIRSS/Generating-Clusters/ReaxFF-fromJPCA2015/Units_Real/with-SteepDescent/Only-C1/SD-CG/Try1-3A/FIRE-CG
REM
REM
REM
REM
REM
REM ./C.cell (11c1c37f851c82e70ff6c80c92926a4b)
REM
REM compiler GCC version 9.2.1 20190827 (Red Hat 9.2.1-1)
REM options -cpp -mtune=generic -march=x86-64 -g -O0 -fpre-include=/usr/include/finclude/math-vector-fortran.h
REM seed -994936779 1499475588 132802145 -268544051 -859164296 985119298 -1933349248 -897080446 773247308 -1369394530 -1377762985 -1097765530 1497935787 -1321570072 -1056659238 -533549942 1799778795 826508428 204527476 -1998156206 657354824 1322724284 -1885195338 1379352410 -2083261846 -991323865 1069713553 428378589 -1663134973 -1466040622 286771390 -1007168844 36131209
REM
CELL 1.54180   50.00000   50.00000   50.00000   90.00000   90.00000   90.00000
LATT -1
SFAC C  
C      1  0.4414250000000  0.5297760000000  0.5089610000000 1.0
C      1  0.5685180000000  0.4280000000000  0.5313840000000 1.0
C      1  0.5030000000000  0.4156780000000  0.4442480000000 1.0
C      1  0.5113150000000  0.6010570000000  0.5176190000000 1.0
C      1  0.5647100000000  0.4098620000000  0.5104500000000 1.0
C      1  0.4681040000000  0.4992600000000  0.5919750000000 1.0
C      1  0.5160810000000  0.4823150000000  0.4448600000000 1.0
C      1  0.5221150000000  0.5751690000000  0.5595650000000 1.0
C      1  0.5972910000000  0.4896620000000  0.5145710000000 1.0
C      1  0.4683980000000  0.5461860000000  0.5889110000000 1.0
C      1  0.5921840000000  0.4933420000000  0.4640060000000 1.0
C      1  0.5378360000000  0.4433620000000  0.4790980000000 1.0
C      1  0.5279740000000  0.4413850000000  0.5834980000000 1.0
C      1  0.5347850000000  0.5444080000000  0.5071320000000 1.0
C      1  0.5436450000000  0.4867250000000  0.5307610000000 1.0
C      1  0.4671150000000  0.5388940000000  0.4559940000000 1.0
C      1  0.4958140000000  0.5208260000000  0.5689540000000 1.0
C      1  0.4224300000000  0.5716360000000  0.4966640000000 1.0
C      1  0.4676190000000  0.4141060000000  0.4837870000000 1.0
C      1  0.4971440000000  0.5385700000000  0.5935690000000 1.0
C      1  0.4697820000000  0.5571750000000  0.4781040000000 1.0
C      1  0.4817850000000  0.4322630000000  0.5862150000000 1.0
C      1  0.4860740000000  0.4568320000000  0.6022130000000 1.0
C      1  0.5012850000000  0.5054840000000  0.4384090000000 1.0
C      1  0.5150690000000  0.4330260000000  0.4241160000000 1.0
C      1  0.5450910000000  0.4927180000000  0.5041610000000 1.0
C      1  0.5208170000000  0.5558530000000  0.4363290000000 1.0
C      1  0.5776770000000  0.4512830000000  0.5424520000000 1.0
C      1  0.4329550000000  0.4713860000000  0.4396190000000 1.0
C      1  0.4526820000000  0.4677710000000  0.4977580000000 1.0
C      1  0.5088130000000  0.5099230000000  0.4106530000000 1.0
C      1  0.4853530000000  0.4093170000000  0.5338960000000 1.0
C      1  0.5799260000000  0.5085380000000  0.4418680000000 1.0
C      1  0.5908530000000  0.4613730000000  0.5166400000000 1.0
C      1  0.5200610000000  0.4881590000000  0.5430750000000 1.0
C      1  0.5871200000000  0.4645130000000  0.4642110000000 1.0
C      1  0.4981260000000  0.4685850000000  0.4617680000000 1.0
C      1  0.4771060000000  0.4991930000000  0.5645910000000 1.0
C      1  0.4593110000000  0.4545480000000  0.5242610000000 1.0
C      1  0.4971730000000  0.5994770000000  0.4679690000000 1.0
C      1  0.5237120000000  0.4611460000000  0.4181340000000 1.0
C      1  0.5990840000000  0.5050930000000  0.4898350000000 1.0
C      1  0.4219480000000  0.4579340000000  0.4966140000000 1.0
C      1  0.4153920000000  0.5371060000000  0.5201930000000 1.0
C      1  0.4511620000000  0.5019590000000  0.5504110000000 1.0
C      1  0.5639240000000  0.5306250000000  0.4497970000000 1.0
C      1  0.4475090000000  0.4299220000000  0.4673330000000 1.0
C      1  0.5132490000000  0.4065620000000  0.5290340000000 1.0
C      1  0.4000650000000  0.4960890000000  0.5348890000000 1.0
C      1  0.5476700000000  0.5136870000000  0.4696610000000 1.0
C      1  0.5364310000000  0.5136220000000  0.5887210000000 1.0
C      1  0.4911180000000  0.5356640000000  0.4038640000000 1.0
C      1  0.4436410000000  0.5247850000000  0.4467230000000 1.0
C      1  0.5018180000000  0.4798920000000  0.4062050000000 1.0
C      1  0.4341870000000  0.5306610000000  0.5609920000000 1.0
C      1  0.4967350000000  0.5593170000000  0.4191530000000 1.0
C      1  0.5876610000000  0.5574960000000  0.4855030000000 1.0
C      1  0.5158090000000  0.4376260000000  0.5570090000000 1.0
C      1  0.5274940000000  0.5906250000000  0.5375560000000 1.0
C      1  0.4301050000000  0.5670200000000  0.4681510000000 1.0
C      1  0.4040300000000  0.4766710000000  0.4830940000000 1.0
C      1  0.5190950000000  0.5899620000000  0.4892540000000 1.0
C      1  0.3981760000000  0.4896480000000  0.5078780000000 1.0
C      1  0.5533200000000  0.4680070000000  0.4245300000000 1.0
C      1  0.4600230000000  0.5886770000000  0.5260720000000 1.0
C      1  0.4762640000000  0.4597880000000  0.4517920000000 1.0
C      1  0.4372060000000  0.5750370000000  0.5247220000000 1.0
C      1  0.5434120000000  0.4719360000000  0.4834250000000 1.0
C      1  0.4827050000000  0.5418250000000  0.5220070000000 1.0
C      1  0.4214760000000  0.5155590000000  0.4594580000000 1.0
C      1  0.5825820000000  0.5342850000000  0.5259920000000 1.0
C      1  0.4936080000000  0.4848260000000  0.5993120000000 1.0
C      1  0.5194830000000  0.5595080000000  0.4874220000000 1.0
C      1  0.4501910000000  0.4858240000000  0.4191250000000 1.0
C      1  0.4859500000000  0.5975950000000  0.5336150000000 1.0
C      1  0.4167370000000  0.4874180000000  0.4580060000000 1.0
C      1  0.5053860000000  0.4372790000000  0.6005930000000 1.0
C      1  0.5682780000000  0.5737480000000  0.5028980000000 1.0
C      1  0.5128310000000  0.5462390000000  0.4631710000000 1.0
C      1  0.5403730000000  0.5156130000000  0.4138870000000 1.0
C      1  0.4100940000000  0.5224900000000  0.5444040000000 1.0
C      1  0.4438170000000  0.5584670000000  0.5497990000000 1.0
C      1  0.5435770000000  0.5192780000000  0.4958290000000 1.0
C      1  0.4188190000000  0.4453180000000  0.5222010000000 1.0
C      1  0.5812700000000  0.5442390000000  0.4625250000000 1.0
C      1  0.5410260000000  0.5303200000000  0.5666840000000 1.0
C      1  0.5516990000000  0.5915830000000  0.4900420000000 1.0
C      1  0.4915710000000  0.5790200000000  0.5560130000000 1.0
C      1  0.4348440000000  0.4757010000000  0.5586590000000 1.0
C      1  0.5607530000000  0.5549310000000  0.5283490000000 1.0
C      1  0.4627500000000  0.5373180000000  0.4080980000000 1.0
C      1  0.5131380000000  0.4320770000000  0.4888690000000 1.0
C      1  0.5643310000000  0.4686150000000  0.5644000000000 1.0
C      1  0.4743300000000  0.4724570000000  0.4093860000000 1.0
C      1  0.5393790000000  0.4883280000000  0.4611600000000 1.0
C      1  0.4510710000000  0.5232900000000  0.5863830000000 1.0
C      1  0.4719780000000  0.5863810000000  0.4684400000000 1.0
C      1  0.4633810000000  0.4535540000000  0.4739430000000 1.0
C      1  0.5035430000000  0.4557520000000  0.5038500000000 1.0
C      1  0.5639210000000  0.4930620000000  0.5486630000000 1.0
C      1  0.4476980000000  0.5148140000000  0.4194090000000 1.0
C      1  0.4904410000000  0.4227120000000  0.5602480000000 1.0
C      1  0.5182100000000  0.5154410000000  0.5528710000000 1.0
C      1  0.4686620000000  0.4459670000000  0.4257660000000 1.0
C      1  0.5050040000000  0.4641540000000  0.5493540000000 1.0
C      1  0.4439580000000  0.4302510000000  0.5267350000000 1.0
C      1  0.5893960000000  0.4487500000000  0.4898940000000 1.0
C      1  0.4532890000000  0.5075110000000  0.5217680000000 1.0
C      1  0.4606450000000  0.4956230000000  0.4977310000000 1.0
C      1  0.4674540000000  0.5597180000000  0.4294810000000 1.0
C      1  0.5434280000000  0.5401300000000  0.4267910000000 1.0
C      1  0.4877220000000  0.5038610000000  0.4906050000000 1.0
C      1  0.4947130000000  0.4161080000000  0.4726560000000 1.0
C      1  0.5423880000000  0.4664140000000  0.5834620000000 1.0
C      1  0.4951540000000  0.5180690000000  0.5144730000000 1.0
C      1  0.4503660000000  0.5778290000000  0.4489380000000 1.0
C      1  0.4938750000000  0.5224490000000  0.4612500000000 1.0
C      1  0.4129380000000  0.4683050000000  0.5425500000000 1.0
C      1  0.4670910000000  0.5653930000000  0.5651880000000 1.0
C      1  0.4622860000000  0.5494660000000  0.5039460000000 1.0
C      1  0.5594260000000  0.4312690000000  0.4624830000000 1.0
C      1  0.5240180000000  0.4885580000000  0.5945110000000 1.0
C      1  0.4876570000000  0.4544200000000  0.5282590000000 1.0
C      1  0.4138670000000  0.5416270000000  0.4689720000000 1.0
C      1  0.5006290000000  0.4785780000000  0.4883630000000 1.0
C      1  0.5453720000000  0.5573320000000  0.5545750000000 1.0
C      1  0.5111300000000  0.5399390000000  0.5214040000000 1.0
C      1  0.4037990000000  0.5495220000000  0.4961540000000 1.0
C      1  0.4641400000000  0.4135240000000  0.5131100000000 1.0
C      1  0.4413110000000  0.4432550000000  0.4418420000000 1.0
C      1  0.5375950000000  0.4046480000000  0.5188590000000 1.0
C      1  0.5860750000000  0.5073030000000  0.5355240000000 1.0
C      1  0.5959280000000  0.5331260000000  0.4997810000000 1.0
C      1  0.5690060000000  0.4528730000000  0.4440430000000 1.0
C      1  0.4890540000000  0.4254430000000  0.4228480000000 1.0
C      1  0.5760190000000  0.4235560000000  0.4854980000000 1.0
C      1  0.5605600000000  0.4959670000000  0.4226190000000 1.0
END
