TITL C-4164236-1577-647 11.3303108009833 125000 -16426.4163266858 0 0 111 (C1) n - 1
REM
REM in /home/nfs/bkarasulu/CARBON/AIRSS/Generating-Clusters/ReaxFF-fromJPCA2015/Units_Real/with-SteepDescent/Only-C1/SD-CG/Try1-3A/FIRE-CG
REM
REM
REM
REM
REM
REM ./C.cell (11c1c37f851c82e70ff6c80c92926a4b)
REM
REM compiler GCC version 9.2.1 20190827 (Red Hat 9.2.1-1)
REM options -cpp -mtune=generic -march=x86-64 -g -O0 -fpre-include=/usr/include/finclude/math-vector-fortran.h
REM seed -2121847807 222533564 -1528447086 -920664950 542723359 89202691 -1571048769 1013101186 398467157 149127792 302442977 1373474610 1271886452 619640285 -325719290 -1123502006 -478889494 -823799798 601210947 -1776623503 -1874014837 1758965324 61883620 -1645853965 324837433 1152717610 629933469 638301234 -2116124457 791385445 1949259840 1207063770 35143420
REM
CELL 1.54180   50.00000   50.00000   50.00000   90.00000   90.00000   90.00000
LATT -1
SFAC C  
C      1  0.4281030000000  0.5179560000000  0.4610480000000 1.0
C      1  0.4908440000000  0.4758030000000  0.5458930000000 1.0
C      1  0.5729420000000  0.4394590000000  0.5300120000000 1.0
C      1  0.5915180000000  0.4916630000000  0.5038800000000 1.0
C      1  0.5326670000000  0.5157630000000  0.5190500000000 1.0
C      1  0.5823280000000  0.5242330000000  0.5442350000000 1.0
C      1  0.5095960000000  0.4560880000000  0.5091890000000 1.0
C      1  0.4656670000000  0.5005760000000  0.5142390000000 1.0
C      1  0.5099390000000  0.4536050000000  0.4801480000000 1.0
C      1  0.5075710000000  0.4502280000000  0.5716660000000 1.0
C      1  0.4378700000000  0.4805820000000  0.5724450000000 1.0
C      1  0.4595240000000  0.5789320000000  0.4956860000000 1.0
C      1  0.4725620000000  0.5808750000000  0.5217250000000 1.0
C      1  0.5193780000000  0.4791150000000  0.4376570000000 1.0
C      1  0.4892760000000  0.4985480000000  0.5308900000000 1.0
C      1  0.5555350000000  0.4779300000000  0.5626530000000 1.0
C      1  0.5472480000000  0.4438390000000  0.4991210000000 1.0
C      1  0.4473450000000  0.5421960000000  0.5567930000000 1.0
C      1  0.5214750000000  0.5600190000000  0.5663960000000 1.0
C      1  0.4237470000000  0.4845900000000  0.5427420000000 1.0
C      1  0.5427510000000  0.5504020000000  0.4505710000000 1.0
C      1  0.5171160000000  0.5641800000000  0.4453890000000 1.0
C      1  0.4635340000000  0.5278130000000  0.5035720000000 1.0
C      1  0.4120960000000  0.4575820000000  0.5311450000000 1.0
C      1  0.5508460000000  0.4227480000000  0.5201180000000 1.0
C      1  0.4900200000000  0.5220540000000  0.5444270000000 1.0
C      1  0.5791330000000  0.5420850000000  0.4969960000000 1.0
C      1  0.4876940000000  0.4341650000000  0.5577610000000 1.0
C      1  0.5124770000000  0.4016490000000  0.4916690000000 1.0
C      1  0.5548310000000  0.5866340000000  0.5159120000000 1.0
C      1  0.5751650000000  0.4517050000000  0.5023370000000 1.0
C      1  0.5028350000000  0.5802860000000  0.4655900000000 1.0
C      1  0.5768940000000  0.5099720000000  0.4626970000000 1.0
C      1  0.4372160000000  0.4773820000000  0.4376400000000 1.0
C      1  0.5257230000000  0.4188080000000  0.5346220000000 1.0
C      1  0.4879310000000  0.5065880000000  0.4110110000000 1.0
C      1  0.5329890000000  0.5448590000000  0.5185980000000 1.0
C      1  0.4808840000000  0.4596890000000  0.4328860000000 1.0
C      1  0.5747930000000  0.5388940000000  0.4725080000000 1.0
C      1  0.5141890000000  0.4766760000000  0.4662800000000 1.0
C      1  0.4819680000000  0.5422200000000  0.5277800000000 1.0
C      1  0.4507110000000  0.4659010000000  0.5001260000000 1.0
C      1  0.5100830000000  0.5255820000000  0.4118970000000 1.0
C      1  0.4145610000000  0.5113130000000  0.5328150000000 1.0
C      1  0.4779580000000  0.5277200000000  0.4744610000000 1.0
C      1  0.4446400000000  0.4836400000000  0.5211430000000 1.0
C      1  0.4334100000000  0.5287420000000  0.5026760000000 1.0
C      1  0.4721190000000  0.5447890000000  0.4290870000000 1.0
C      1  0.5561730000000  0.4957840000000  0.4189430000000 1.0
C      1  0.5838530000000  0.5455540000000  0.5236240000000 1.0
C      1  0.4327050000000  0.5657960000000  0.4896940000000 1.0
C      1  0.5128840000000  0.5956410000000  0.4891290000000 1.0
C      1  0.5006580000000  0.5496400000000  0.4259300000000 1.0
C      1  0.5341110000000  0.5316860000000  0.4717610000000 1.0
C      1  0.4781740000000  0.4182450000000  0.4742180000000 1.0
C      1  0.4882740000000  0.4518360000000  0.5316370000000 1.0
C      1  0.4626500000000  0.4377210000000  0.5704540000000 1.0
C      1  0.4341540000000  0.5463870000000  0.4672420000000 1.0
C      1  0.4474640000000  0.4546440000000  0.5755070000000 1.0
C      1  0.4944930000000  0.5570520000000  0.5682980000000 1.0
C      1  0.5035360000000  0.4987020000000  0.4838280000000 1.0
C      1  0.5752700000000  0.4570330000000  0.4724830000000 1.0
C      1  0.5238010000000  0.4365590000000  0.4575850000000 1.0
C      1  0.5574830000000  0.4510250000000  0.5531970000000 1.0
C      1  0.5358220000000  0.4682810000000  0.5097040000000 1.0
C      1  0.5003950000000  0.5859280000000  0.5150500000000 1.0
C      1  0.4632350000000  0.4929750000000  0.5772140000000 1.0
C      1  0.4631700000000  0.5187220000000  0.4214780000000 1.0
C      1  0.4613990000000  0.5534460000000  0.4562240000000 1.0
C      1  0.5031270000000  0.4090940000000  0.5168160000000 1.0
C      1  0.5903710000000  0.5048970000000  0.5257710000000 1.0
C      1  0.5476770000000  0.4952900000000  0.5036780000000 1.0
C      1  0.5144360000000  0.5035960000000  0.5773790000000 1.0
C      1  0.5379340000000  0.5965700000000  0.5010210000000 1.0
C      1  0.5723780000000  0.5140440000000  0.4345940000000 1.0
C      1  0.5470820000000  0.4703310000000  0.4318670000000 1.0
C      1  0.5573930000000  0.5616910000000  0.5312330000000 1.0
C      1  0.4747420000000  0.5767390000000  0.4708250000000 1.0
C      1  0.4973550000000  0.4797630000000  0.4179370000000 1.0
C      1  0.4773320000000  0.4187590000000  0.5036110000000 1.0
C      1  0.5078260000000  0.5573850000000  0.5185350000000 1.0
C      1  0.5066750000000  0.5250910000000  0.4741730000000 1.0
C      1  0.4114190000000  0.5098780000000  0.5043050000000 1.0
C      1  0.5076340000000  0.4111880000000  0.4658300000000 1.0
C      1  0.4211890000000  0.5527820000000  0.5136420000000 1.0
C      1  0.4263310000000  0.4674920000000  0.4817750000000 1.0
C      1  0.4961400000000  0.4801130000000  0.5733010000000 1.0
C      1  0.5428260000000  0.5037380000000  0.5706850000000 1.0
C      1  0.5548790000000  0.5354060000000  0.4292170000000 1.0
C      1  0.5294920000000  0.4381430000000  0.5563960000000 1.0
C      1  0.4546400000000  0.5179570000000  0.5688410000000 1.0
C      1  0.4734470000000  0.4983560000000  0.4721200000000 1.0
C      1  0.4599580000000  0.4409290000000  0.5147090000000 1.0
C      1  0.4400620000000  0.5057180000000  0.4357590000000 1.0
C      1  0.4973530000000  0.5269900000000  0.5714510000000 1.0
C      1  0.4707490000000  0.5612320000000  0.5474990000000 1.0
C      1  0.4117500000000  0.4502930000000  0.5033770000000 1.0
C      1  0.4369750000000  0.4531360000000  0.4534050000000 1.0
C      1  0.5889000000000  0.4825340000000  0.4782270000000 1.0
C      1  0.5497960000000  0.5073170000000  0.4769090000000 1.0
C      1  0.5089960000000  0.5006100000000  0.5119810000000 1.0
C      1  0.5482140000000  0.5541670000000  0.5612310000000 1.0
C      1  0.5539530000000  0.4525850000000  0.4534610000000 1.0
C      1  0.5023800000000  0.4391450000000  0.4355420000000 1.0
C      1  0.5384570000000  0.5189920000000  0.4120770000000 1.0
C      1  0.4235020000000  0.5380960000000  0.5397730000000 1.0
C      1  0.4293990000000  0.4367740000000  0.5217220000000 1.0
C      1  0.5587510000000  0.5273290000000  0.5621740000000 1.0
C      1  0.4719260000000  0.4745070000000  0.4574940000000 1.0
C      1  0.4183160000000  0.4975680000000  0.4793550000000 1.0
C      1  0.4588360000000  0.4350430000000  0.4599150000000 1.0
END
