TITL C-4164239-2837-399 20.2263635147043 125000 -19159.5851319076 0 0 128 (C1) n - 1
REM
REM in /home/nfs/bkarasulu/CARBON/AIRSS/Generating-Clusters/ReaxFF-fromJPCA2015/Units_Real/with-SteepDescent/Only-C1/SD-CG/Try1-3A/FIRE-CG
REM
REM
REM
REM
REM
REM ./C.cell (11c1c37f851c82e70ff6c80c92926a4b)
REM
REM compiler GCC version 9.2.1 20190827 (Red Hat 9.2.1-1)
REM options -cpp -mtune=generic -march=x86-64 -g -O0 -fpre-include=/usr/include/finclude/math-vector-fortran.h
REM seed -583207975 223468452 -1886716541 -1168243074 1514268767 -1251211129 -1377114520 1393800780 1719187584 -1698424583 893559987 -987720727 -521946010 1403989641 814059149 1443505991 1857541087 937822373 1184799535 -333334341 2120815117 -272123134 -1988628162 1308010604 -2021341086 1616120222 1963468350 -1683895298 435123285 406519417 -454172239 -1761198755 1607487917
REM
CELL 1.54180   50.00000   50.00000   50.00000   90.00000   90.00000   90.00000
LATT -1
SFAC C  
C      1  0.5010110000000  0.5804740000000  0.5652900000000 1.0
C      1  0.4748600000000  0.4162600000000  0.5546130000000 1.0
C      1  0.4744690000000  0.4453810000000  0.5848010000000 1.0
C      1  0.4565870000000  0.4911030000000  0.4691580000000 1.0
C      1  0.4612900000000  0.5617600000000  0.4068630000000 1.0
C      1  0.5386230000000  0.5795340000000  0.4672110000000 1.0
C      1  0.4825530000000  0.5291840000000  0.5637600000000 1.0
C      1  0.5391730000000  0.4686130000000  0.4720890000000 1.0
C      1  0.5841490000000  0.4724890000000  0.4550810000000 1.0
C      1  0.4376800000000  0.4322300000000  0.4712770000000 1.0
C      1  0.4725420000000  0.5334750000000  0.4406380000000 1.0
C      1  0.4734390000000  0.5097320000000  0.4570510000000 1.0
C      1  0.4740920000000  0.5580310000000  0.4649940000000 1.0
C      1  0.4984580000000  0.4846900000000  0.4040150000000 1.0
C      1  0.5231440000000  0.5567630000000  0.5620490000000 1.0
C      1  0.5145260000000  0.5650960000000  0.4226270000000 1.0
C      1  0.5713550000000  0.5400670000000  0.5570250000000 1.0
C      1  0.5320040000000  0.4839520000000  0.5369340000000 1.0
C      1  0.5206710000000  0.5051690000000  0.5836770000000 1.0
C      1  0.4330950000000  0.5554980000000  0.4940260000000 1.0
C      1  0.4765570000000  0.5362880000000  0.5126210000000 1.0
C      1  0.4999700000000  0.4270980000000  0.4659270000000 1.0
C      1  0.5862230000000  0.4957310000000  0.5472800000000 1.0
C      1  0.5672760000000  0.4810580000000  0.5660800000000 1.0
C      1  0.6080880000000  0.4855390000000  0.5298050000000 1.0
C      1  0.4213870000000  0.4523760000000  0.4893720000000 1.0
C      1  0.4105340000000  0.4458650000000  0.5177940000000 1.0
C      1  0.4660040000000  0.4044250000000  0.5089760000000 1.0
C      1  0.5416320000000  0.5862780000000  0.5171820000000 1.0
C      1  0.5573190000000  0.4541040000000  0.5594010000000 1.0
C      1  0.4982620000000  0.4686910000000  0.5001740000000 1.0
C      1  0.5973770000000  0.5554610000000  0.4999470000000 1.0
C      1  0.5389660000000  0.5289450000000  0.4934190000000 1.0
C      1  0.5268360000000  0.4775610000000  0.4948000000000 1.0
C      1  0.3993210000000  0.4965010000000  0.4960060000000 1.0
C      1  0.5179970000000  0.4753090000000  0.4545590000000 1.0
C      1  0.5438330000000  0.4758870000000  0.4228630000000 1.0
C      1  0.4430780000000  0.5588220000000  0.4668980000000 1.0
C      1  0.5650060000000  0.5663570000000  0.4657990000000 1.0
C      1  0.4913830000000  0.5830910000000  0.4627010000000 1.0
C      1  0.4447380000000  0.4827410000000  0.4281070000000 1.0
C      1  0.4281610000000  0.4898300000000  0.4545800000000 1.0
C      1  0.5998400000000  0.4736320000000  0.5033620000000 1.0
C      1  0.4919990000000  0.5311710000000  0.4185660000000 1.0
C      1  0.4353990000000  0.5298380000000  0.5097170000000 1.0
C      1  0.5719850000000  0.4638110000000  0.5095710000000 1.0
C      1  0.5143380000000  0.5037240000000  0.4589400000000 1.0
C      1  0.4878910000000  0.5412060000000  0.4865060000000 1.0
C      1  0.5652620000000  0.4888990000000  0.4384440000000 1.0
C      1  0.5242960000000  0.4224800000000  0.5367320000000 1.0
C      1  0.4795390000000  0.5466570000000  0.5402490000000 1.0
C      1  0.5650160000000  0.4551980000000  0.4684780000000 1.0
C      1  0.4589170000000  0.5142900000000  0.5759070000000 1.0
C      1  0.4909640000000  0.4624790000000  0.4196800000000 1.0
C      1  0.4272710000000  0.4263860000000  0.5306440000000 1.0
C      1  0.4472770000000  0.4640440000000  0.5070620000000 1.0
C      1  0.5507830000000  0.5529950000000  0.5732200000000 1.0
C      1  0.4346030000000  0.5144730000000  0.5620590000000 1.0
C      1  0.5026690000000  0.4388640000000  0.4925780000000 1.0
C      1  0.4024780000000  0.5167690000000  0.4779620000000 1.0
C      1  0.4663150000000  0.4918030000000  0.5292310000000 1.0
C      1  0.4891500000000  0.5603040000000  0.4061750000000 1.0
C      1  0.5348450000000  0.5243330000000  0.4585440000000 1.0
C      1  0.4151690000000  0.5197230000000  0.4545580000000 1.0
C      1  0.4138670000000  0.5182980000000  0.5435970000000 1.0
C      1  0.4092310000000  0.4659130000000  0.5617710000000 1.0
C      1  0.5127480000000  0.4470450000000  0.5677740000000 1.0
C      1  0.5644570000000  0.5176800000000  0.5073340000000 1.0
C      1  0.5846570000000  0.5308840000000  0.4897860000000 1.0
C      1  0.5611300000000  0.5164850000000  0.4481490000000 1.0
C      1  0.4940750000000  0.5151150000000  0.4757790000000 1.0
C      1  0.5244120000000  0.5371840000000  0.4263970000000 1.0
C      1  0.5518680000000  0.4331640000000  0.5392940000000 1.0
C      1  0.4635120000000  0.4603710000000  0.4302910000000 1.0
C      1  0.4362720000000  0.4665250000000  0.5618730000000 1.0
C      1  0.5231640000000  0.4289900000000  0.4476630000000 1.0
C      1  0.4548840000000  0.4669650000000  0.5860610000000 1.0
C      1  0.6049720000000  0.4810380000000  0.4746700000000 1.0
C      1  0.5158930000000  0.5208160000000  0.5100010000000 1.0
C      1  0.4483380000000  0.5363030000000  0.4231120000000 1.0
C      1  0.4781890000000  0.5748880000000  0.5495220000000 1.0
C      1  0.5717640000000  0.5866150000000  0.5132390000000 1.0
C      1  0.4559830000000  0.4118440000000  0.4817200000000 1.0
C      1  0.4484440000000  0.4717480000000  0.5341060000000 1.0
C      1  0.5192400000000  0.4563050000000  0.4317430000000 1.0
C      1  0.5009310000000  0.4574710000000  0.5929180000000 1.0
C      1  0.5223480000000  0.5481700000000  0.5094450000000 1.0
C      1  0.5358020000000  0.5209410000000  0.4034760000000 1.0
C      1  0.5096720000000  0.5289410000000  0.5718090000000 1.0
C      1  0.4548550000000  0.4374290000000  0.4479110000000 1.0
C      1  0.4530650000000  0.5057600000000  0.4135380000000 1.0
C      1  0.4303210000000  0.5434750000000  0.4463340000000 1.0
C      1  0.4851440000000  0.4433130000000  0.5571730000000 1.0
C      1  0.4778310000000  0.5905410000000  0.5079060000000 1.0
C      1  0.4673460000000  0.4742790000000  0.4890740000000 1.0
C      1  0.4924310000000  0.4817320000000  0.5268740000000 1.0
C      1  0.5113240000000  0.5026050000000  0.5314710000000 1.0
C      1  0.5278560000000  0.5904730000000  0.4916520000000 1.0
C      1  0.4978690000000  0.5950430000000  0.4884990000000 1.0
C      1  0.5619420000000  0.5275380000000  0.5823590000000 1.0
C      1  0.4734520000000  0.4165480000000  0.4579960000000 1.0
C      1  0.5286920000000  0.4921680000000  0.4043260000000 1.0
C      1  0.5922870000000  0.5693720000000  0.5271430000000 1.0
C      1  0.5504910000000  0.5006100000000  0.5808390000000 1.0
C      1  0.5324140000000  0.4640970000000  0.5570080000000 1.0
C      1  0.5749820000000  0.5380180000000  0.4630490000000 1.0
C      1  0.4588200000000  0.5133960000000  0.5126640000000 1.0
C      1  0.5822060000000  0.5771590000000  0.4865530000000 1.0
C      1  0.4278750000000  0.5441350000000  0.5344480000000 1.0
C      1  0.4017540000000  0.4969040000000  0.5260840000000 1.0
C      1  0.5492510000000  0.4840760000000  0.5121150000000 1.0
C      1  0.5007680000000  0.4050660000000  0.5452690000000 1.0
C      1  0.5158080000000  0.5799360000000  0.4476680000000 1.0
C      1  0.4112310000000  0.4771640000000  0.4760240000000 1.0
C      1  0.4992950000000  0.4867570000000  0.5932090000000 1.0
C      1  0.4587970000000  0.5860150000000  0.5261810000000 1.0
C      1  0.4800460000000  0.5070480000000  0.4040910000000 1.0
C      1  0.5660980000000  0.4357470000000  0.5139350000000 1.0
C      1  0.5652890000000  0.4302660000000  0.4840090000000 1.0
C      1  0.5294040000000  0.5643810000000  0.5316740000000 1.0
C      1  0.4702530000000  0.4909570000000  0.5905250000000 1.0
C      1  0.4532930000000  0.4119200000000  0.5337830000000 1.0
C      1  0.5154540000000  0.4183270000000  0.5083680000000 1.0
C      1  0.4342680000000  0.5696320000000  0.5200150000000 1.0
C      1  0.4939610000000  0.3993680000000  0.5173180000000 1.0
C      1  0.3996710000000  0.4695120000000  0.5352990000000 1.0
C      1  0.5736680000000  0.5200300000000  0.5359180000000 1.0
C      1  0.5449570000000  0.4189660000000  0.4645110000000 1.0
END
