TITL C-4164244-2836-753 -1.15446746359865 125000 -21104.2891446648 0 0 140 (C1) n - 1
REM
REM in /home/nfs/bkarasulu/CARBON/AIRSS/Generating-Clusters/ReaxFF-fromJPCA2015/Units_Real/with-SteepDescent/Only-C1/SD-CG/Try1-3A/FIRE-CG
REM
REM
REM
REM
REM
REM ./C.cell (11c1c37f851c82e70ff6c80c92926a4b)
REM
REM compiler GCC version 9.2.1 20190827 (Red Hat 9.2.1-1)
REM options -cpp -mtune=generic -march=x86-64 -g -O0 -fpre-include=/usr/include/finclude/math-vector-fortran.h
REM seed 417651541 886462413 -1900077926 -1310120237 -943106476 -134663146 -1049320715 50034511 -1026694173 1910749073 1868949265 234656541 -2065587384 574947226 1563218399 159396288 725245825 1801602937 -1072901522 -490832616 -1467441071 2090025340 -1574393772 -1082690688 290392455 -619039307 6591716 1017469909 1131521897 181898043 875258115 1286088547 77724173
REM
CELL 1.54180   50.00000   50.00000   50.00000   90.00000   90.00000   90.00000
LATT -1
SFAC C  
C      1  0.5206640000000  0.5005740000000  0.5756140000000 1.0
C      1  0.4747040000000  0.4482440000000  0.5875700000000 1.0
C      1  0.5442730000000  0.5779500000000  0.4741580000000 1.0
C      1  0.4971030000000  0.5449290000000  0.4168350000000 1.0
C      1  0.4569940000000  0.4460000000000  0.4299620000000 1.0
C      1  0.5850440000000  0.4667500000000  0.4753190000000 1.0
C      1  0.3974870000000  0.5170570000000  0.5017570000000 1.0
C      1  0.4318170000000  0.4326490000000  0.5191970000000 1.0
C      1  0.5083410000000  0.4004330000000  0.4759910000000 1.0
C      1  0.5574030000000  0.4553960000000  0.4360870000000 1.0
C      1  0.4484410000000  0.4308310000000  0.4536180000000 1.0
C      1  0.4888370000000  0.4262380000000  0.5729130000000 1.0
C      1  0.4906850000000  0.5855400000000  0.5477000000000 1.0
C      1  0.5562010000000  0.4508480000000  0.5515680000000 1.0
C      1  0.5112660000000  0.5224080000000  0.4064020000000 1.0
C      1  0.4930110000000  0.4917690000000  0.4353960000000 1.0
C      1  0.5922560000000  0.5180190000000  0.4780280000000 1.0
C      1  0.4919980000000  0.4162330000000  0.4399200000000 1.0
C      1  0.4406090000000  0.4681460000000  0.5538780000000 1.0
C      1  0.5760100000000  0.5015100000000  0.4369890000000 1.0
C      1  0.4792470000000  0.5912600000000  0.4700030000000 1.0
C      1  0.4572090000000  0.5262930000000  0.5856790000000 1.0
C      1  0.4836800000000  0.4756210000000  0.5864980000000 1.0
C      1  0.4684030000000  0.5447120000000  0.4207130000000 1.0
C      1  0.4021560000000  0.4915190000000  0.4956690000000 1.0
C      1  0.5240600000000  0.5628490000000  0.5792960000000 1.0
C      1  0.4853490000000  0.4429090000000  0.4308760000000 1.0
C      1  0.5388810000000  0.4888150000000  0.4827920000000 1.0
C      1  0.5037500000000  0.4639520000000  0.4425890000000 1.0
C      1  0.5296980000000  0.4495960000000  0.4262040000000 1.0
C      1  0.4007330000000  0.5427050000000  0.4904540000000 1.0
C      1  0.4335690000000  0.5326680000000  0.5423770000000 1.0
C      1  0.5520550000000  0.4321390000000  0.4841670000000 1.0
C      1  0.4532160000000  0.5198330000000  0.4183320000000 1.0
C      1  0.4519170000000  0.5561540000000  0.4444340000000 1.0
C      1  0.5478400000000  0.4933960000000  0.5152810000000 1.0
C      1  0.4354960000000  0.5826900000000  0.4877350000000 1.0
C      1  0.5902810000000  0.4748300000000  0.5248310000000 1.0
C      1  0.4861410000000  0.5270070000000  0.5518190000000 1.0
C      1  0.4982150000000  0.5814370000000  0.4524330000000 1.0
C      1  0.4244070000000  0.4426200000000  0.4653300000000 1.0
C      1  0.5317140000000  0.4125020000000  0.4661930000000 1.0
C      1  0.5670740000000  0.4491960000000  0.4623200000000 1.0
C      1  0.4392000000000  0.5156660000000  0.5198040000000 1.0
C      1  0.4523330000000  0.5815620000000  0.4640400000000 1.0
C      1  0.5757790000000  0.4930410000000  0.5657420000000 1.0
C      1  0.5381490000000  0.5702060000000  0.4454060000000 1.0
C      1  0.4911160000000  0.4871620000000  0.4780460000000 1.0
C      1  0.5031400000000  0.5440950000000  0.5371770000000 1.0
C      1  0.5283980000000  0.5329280000000  0.5467200000000 1.0
C      1  0.5885430000000  0.4933660000000  0.4624530000000 1.0
C      1  0.5762160000000  0.5535430000000  0.5089120000000 1.0
C      1  0.5856340000000  0.4560910000000  0.5035550000000 1.0
C      1  0.5418740000000  0.5159800000000  0.4705580000000 1.0
C      1  0.5414820000000  0.4667460000000  0.6016520000000 1.0
C      1  0.5822470000000  0.5176840000000  0.5508580000000 1.0
C      1  0.4379370000000  0.4910870000000  0.5742740000000 1.0
C      1  0.5688960000000  0.5427440000000  0.5570250000000 1.0
C      1  0.5236690000000  0.4702000000000  0.4048190000000 1.0
C      1  0.5036190000000  0.5080820000000  0.4569980000000 1.0
C      1  0.4675610000000  0.5684640000000  0.5576570000000 1.0
C      1  0.5173900000000  0.4272590000000  0.5672250000000 1.0
C      1  0.5315500000000  0.5149700000000  0.5259580000000 1.0
C      1  0.4988740000000  0.5358360000000  0.4609910000000 1.0
C      1  0.5795360000000  0.5044120000000  0.5231630000000 1.0
C      1  0.5668820000000  0.4789930000000  0.4215470000000 1.0
C      1  0.4336470000000  0.5199030000000  0.5693820000000 1.0
C      1  0.4342080000000  0.5758650000000  0.5179490000000 1.0
C      1  0.4722030000000  0.5518050000000  0.5816210000000 1.0
C      1  0.4713870000000  0.5445580000000  0.4661690000000 1.0
C      1  0.5778020000000  0.5519600000000  0.4606190000000 1.0
C      1  0.5647640000000  0.5613130000000  0.5350620000000 1.0
C      1  0.4064220000000  0.4649290000000  0.5090830000000 1.0
C      1  0.4512210000000  0.4442720000000  0.5701960000000 1.0
C      1  0.4728970000000  0.4803470000000  0.3967160000000 1.0
C      1  0.4552540000000  0.4165640000000  0.5286890000000 1.0
C      1  0.4628340000000  0.4813370000000  0.5333080000000 1.0
C      1  0.5444930000000  0.5409940000000  0.5748140000000 1.0
C      1  0.4466450000000  0.4884070000000  0.5100790000000 1.0
C      1  0.5459620000000  0.5209960000000  0.6015150000000 1.0
C      1  0.5089700000000  0.4466790000000  0.4873900000000 1.0
C      1  0.5265630000000  0.5790470000000  0.5109140000000 1.0
C      1  0.5117340000000  0.5685130000000  0.4331320000000 1.0
C      1  0.4781730000000  0.5266900000000  0.5095380000000 1.0
C      1  0.4129420000000  0.5688750000000  0.4997940000000 1.0
C      1  0.4116540000000  0.4920490000000  0.4392280000000 1.0
C      1  0.4997870000000  0.4903540000000  0.5045390000000 1.0
C      1  0.5066190000000  0.5179150000000  0.5059590000000 1.0
C      1  0.4603990000000  0.5272510000000  0.4866190000000 1.0
C      1  0.4251320000000  0.5168380000000  0.4262040000000 1.0
C      1  0.5315470000000  0.5619180000000  0.4904860000000 1.0
C      1  0.4781620000000  0.4046580000000  0.5146850000000 1.0
C      1  0.4489610000000  0.5026250000000  0.4675060000000 1.0
C      1  0.5330990000000  0.4474170000000  0.5022580000000 1.0
C      1  0.4204550000000  0.4555750000000  0.5333010000000 1.0
C      1  0.5093620000000  0.4740180000000  0.5697660000000 1.0
C      1  0.4906350000000  0.4706200000000  0.5239860000000 1.0
C      1  0.5600810000000  0.5524160000000  0.4374820000000 1.0
C      1  0.4830200000000  0.5919140000000  0.5016960000000 1.0
C      1  0.5006730000000  0.5478120000000  0.5887380000000 1.0
C      1  0.5114170000000  0.4682250000000  0.4703090000000 1.0
C      1  0.5205730000000  0.5360720000000  0.4822380000000 1.0
C      1  0.5705410000000  0.5684960000000  0.4839120000000 1.0
C      1  0.4546700000000  0.4736220000000  0.4181550000000 1.0
C      1  0.4628940000000  0.4961660000000  0.5886740000000 1.0
C      1  0.5405790000000  0.5784120000000  0.5366040000000 1.0
C      1  0.5693060000000  0.5269250000000  0.4673770000000 1.0
C      1  0.4793160000000  0.6080890000000  0.5236980000000 1.0
C      1  0.5264470000000  0.4183890000000  0.5407330000000 1.0
C      1  0.5875920000000  0.5271200000000  0.5054740000000 1.0
C      1  0.5539150000000  0.4273940000000  0.5335110000000 1.0
C      1  0.4152500000000  0.5024340000000  0.4675120000000 1.0
C      1  0.4634320000000  0.4218920000000  0.5563670000000 1.0
C      1  0.4995860000000  0.5212030000000  0.5767640000000 1.0
C      1  0.5456610000000  0.4878660000000  0.4030930000000 1.0
C      1  0.4592410000000  0.4826060000000  0.4847220000000 1.0
C      1  0.4242110000000  0.5407900000000  0.4417740000000 1.0
C      1  0.4677400000000  0.5128520000000  0.5340860000000 1.0
C      1  0.5205770000000  0.4215850000000  0.4417620000000 1.0
C      1  0.4919480000000  0.4432710000000  0.5099900000000 1.0
C      1  0.4175770000000  0.4417630000000  0.4942260000000 1.0
C      1  0.4812410000000  0.3994310000000  0.4847020000000 1.0
C      1  0.5602940000000  0.5252410000000  0.4268360000000 1.0
C      1  0.5808750000000  0.4675960000000  0.5508550000000 1.0
C      1  0.4617370000000  0.4971130000000  0.4366920000000 1.0
C      1  0.4450710000000  0.5605060000000  0.5404750000000 1.0
C      1  0.5700760000000  0.4309740000000  0.5089680000000 1.0
C      1  0.5394740000000  0.5168670000000  0.4078940000000 1.0
C      1  0.5012780000000  0.4911120000000  0.4028270000000 1.0
C      1  0.5199990000000  0.5807140000000  0.5571870000000 1.0
C      1  0.5369450000000  0.4660450000000  0.5266150000000 1.0
C      1  0.5451870000000  0.4943470000000  0.6078130000000 1.0
C      1  0.5024350000000  0.4196270000000  0.5229250000000 1.0
C      1  0.5475530000000  0.4989870000000  0.5661750000000 1.0
C      1  0.4704130000000  0.4126700000000  0.4609330000000 1.0
C      1  0.5120450000000  0.4701940000000  0.5416910000000 1.0
C      1  0.4993020000000  0.5727640000000  0.5205510000000 1.0
C      1  0.5339950000000  0.4508220000000  0.5763700000000 1.0
C      1  0.4156860000000  0.4649260000000  0.4473450000000 1.0
C      1  0.4079550000000  0.5321140000000  0.4642370000000 1.0
END
