TITL C-4164245-3996-717 28.7388330245779 125000 -24072.629879049 0 0 161 (C1) n - 1
REM
REM in /home/nfs/bkarasulu/CARBON/AIRSS/Generating-Clusters/ReaxFF-fromJPCA2015/Units_Real/with-SteepDescent/Only-C1/SD-CG/Try1-3A/FIRE-CG
REM
REM
REM
REM
REM
REM ./C.cell (11c1c37f851c82e70ff6c80c92926a4b)
REM
REM compiler GCC version 9.2.1 20190827 (Red Hat 9.2.1-1)
REM options -cpp -mtune=generic -march=x86-64 -g -O0 -fpre-include=/usr/include/finclude/math-vector-fortran.h
REM seed 197246977 541634990 -1707456875 -591853412 73522762 -1968575422 1656732075 839923959 -1386107633 -691467010 1098542338 103942732 -1169781690 -1107095917 828045814 -1562178339 -1528007135 1521993637 1848327886 856524162 1608347713 1872267747 -1922616380 -834657025 1224451676 1401848828 964250709 -146282869 1830801940 -1395905817 -196863065 2142199569 -682837527
REM
CELL 1.54180   50.00000   50.00000   50.00000   90.00000   90.00000   90.00000
LATT -1
SFAC C  
C      1  0.5820170000000  0.4671220000000  0.5366360000000 1.0
C      1  0.4524070000000  0.4413620000000  0.4236640000000 1.0
C      1  0.4961730000000  0.4933090000000  0.5588780000000 1.0
C      1  0.4577270000000  0.4030570000000  0.4585740000000 1.0
C      1  0.5311700000000  0.5481070000000  0.5619900000000 1.0
C      1  0.5545780000000  0.5816060000000  0.5579300000000 1.0
C      1  0.4395400000000  0.4467380000000  0.5454240000000 1.0
C      1  0.4664690000000  0.5478030000000  0.4609750000000 1.0
C      1  0.5362480000000  0.5875510000000  0.4604590000000 1.0
C      1  0.4715880000000  0.4063080000000  0.5264880000000 1.0
C      1  0.5246700000000  0.5453430000000  0.6018200000000 1.0
C      1  0.5988170000000  0.5121860000000  0.5053150000000 1.0
C      1  0.4157740000000  0.5167820000000  0.4162770000000 1.0
C      1  0.4045080000000  0.5518200000000  0.5278160000000 1.0
C      1  0.5424210000000  0.5062740000000  0.5669660000000 1.0
C      1  0.4557160000000  0.5593190000000  0.4880480000000 1.0
C      1  0.4377530000000  0.5084920000000  0.4850920000000 1.0
C      1  0.5172010000000  0.4954460000000  0.6060290000000 1.0
C      1  0.4800110000000  0.5309850000000  0.4019080000000 1.0
C      1  0.4010720000000  0.4990410000000  0.4622450000000 1.0
C      1  0.5153440000000  0.4890320000000  0.5278590000000 1.0
C      1  0.4999990000000  0.5943160000000  0.5613180000000 1.0
C      1  0.5809030000000  0.5579610000000  0.5154140000000 1.0
C      1  0.5559100000000  0.4688190000000  0.4130060000000 1.0
C      1  0.5284280000000  0.5580110000000  0.5007740000000 1.0
C      1  0.5870550000000  0.4404400000000  0.5040540000000 1.0
C      1  0.4665790000000  0.5948000000000  0.5175620000000 1.0
C      1  0.4233400000000  0.5403100000000  0.4360300000000 1.0
C      1  0.5838290000000  0.5184350000000  0.4514380000000 1.0
C      1  0.5193580000000  0.4968170000000  0.4043070000000 1.0
C      1  0.5395680000000  0.4443340000000  0.4162320000000 1.0
C      1  0.5180370000000  0.5724810000000  0.4132400000000 1.0
C      1  0.5238560000000  0.5492750000000  0.3973180000000 1.0
C      1  0.4195740000000  0.5746410000000  0.5154130000000 1.0
C      1  0.4686880000000  0.5553540000000  0.4139430000000 1.0
C      1  0.5210140000000  0.5347640000000  0.4613780000000 1.0
C      1  0.4097710000000  0.5222930000000  0.5209050000000 1.0
C      1  0.4624230000000  0.5050820000000  0.5017020000000 1.0
C      1  0.4371660000000  0.5101030000000  0.5841510000000 1.0
C      1  0.5461010000000  0.4966260000000  0.4187110000000 1.0
C      1  0.5755210000000  0.4755810000000  0.4601510000000 1.0
C      1  0.5100520000000  0.5932300000000  0.4735930000000 1.0
C      1  0.5137200000000  0.3978390000000  0.5051330000000 1.0
C      1  0.4889860000000  0.5045630000000  0.4441000000000 1.0
C      1  0.6013720000000  0.5266020000000  0.5713300000000 1.0
C      1  0.5150780000000  0.5125110000000  0.4453010000000 1.0
C      1  0.4053550000000  0.4711480000000  0.4933560000000 1.0
C      1  0.4767690000000  0.5680590000000  0.5069630000000 1.0
C      1  0.4627800000000  0.5238840000000  0.5770140000000 1.0
C      1  0.5547050000000  0.4121530000000  0.4806330000000 1.0
C      1  0.4794930000000  0.5540010000000  0.5383690000000 1.0
C      1  0.5963590000000  0.4843550000000  0.5154120000000 1.0
C      1  0.5637760000000  0.5765770000000  0.5302360000000 1.0
C      1  0.4571650000000  0.5010550000000  0.5339340000000 1.0
C      1  0.4668450000000  0.5185920000000  0.4519440000000 1.0
C      1  0.3972520000000  0.4708670000000  0.5239390000000 1.0
C      1  0.4858280000000  0.5360690000000  0.6092400000000 1.0
C      1  0.4991220000000  0.5363070000000  0.5262870000000 1.0
C      1  0.5185230000000  0.4986390000000  0.5767830000000 1.0
C      1  0.4852000000000  0.4767440000000  0.4471200000000 1.0
C      1  0.4874490000000  0.3926640000000  0.5039030000000 1.0
C      1  0.4500260000000  0.4548540000000  0.4770950000000 1.0
C      1  0.5008610000000  0.4736650000000  0.4027090000000 1.0
C      1  0.5586520000000  0.5731620000000  0.4719640000000 1.0
C      1  0.4899110000000  0.4128500000000  0.5491760000000 1.0
C      1  0.4592550000000  0.4696410000000  0.5349010000000 1.0
C      1  0.4670940000000  0.4215240000000  0.4330170000000 1.0
C      1  0.5037840000000  0.4976540000000  0.5020310000000 1.0
C      1  0.4803470000000  0.4534170000000  0.5247760000000 1.0
C      1  0.4761040000000  0.5120210000000  0.5536810000000 1.0
C      1  0.5553010000000  0.4052370000000  0.4523660000000 1.0
C      1  0.5358440000000  0.5342710000000  0.4871890000000 1.0
C      1  0.4114240000000  0.4978270000000  0.4892030000000 1.0
C      1  0.5529030000000  0.4203780000000  0.4275680000000 1.0
C      1  0.5803050000000  0.4731290000000  0.5655060000000 1.0
C      1  0.4854180000000  0.4608400000000  0.5989650000000 1.0
C      1  0.5836130000000  0.5266120000000  0.4806860000000 1.0
C      1  0.4581590000000  0.4729870000000  0.4569970000000 1.0
C      1  0.5558520000000  0.5138730000000  0.4915230000000 1.0
C      1  0.4783000000000  0.3868190000000  0.4743120000000 1.0
C      1  0.4493810000000  0.5537760000000  0.4355700000000 1.0
C      1  0.4086920000000  0.4906300000000  0.4326510000000 1.0
C      1  0.6032210000000  0.4641960000000  0.4963270000000 1.0
C      1  0.5134380000000  0.5601830000000  0.5804990000000 1.0
C      1  0.5482550000000  0.4218380000000  0.5294680000000 1.0
C      1  0.4491100000000  0.4635460000000  0.4074380000000 1.0
C      1  0.6016290000000  0.4702590000000  0.4677540000000 1.0
C      1  0.5466320000000  0.5456220000000  0.4414950000000 1.0
C      1  0.4473130000000  0.4821560000000  0.5798030000000 1.0
C      1  0.5634830000000  0.4389100000000  0.4864970000000 1.0
C      1  0.5720320000000  0.4398060000000  0.5294510000000 1.0
C      1  0.4641400000000  0.5077230000000  0.3921450000000 1.0
C      1  0.4384710000000  0.5125460000000  0.4024460000000 1.0
C      1  0.5544750000000  0.5590660000000  0.5768350000000 1.0
C      1  0.4422350000000  0.5780480000000  0.5318150000000 1.0
C      1  0.5193250000000  0.4476640000000  0.4709510000000 1.0
C      1  0.5760380000000  0.5397190000000  0.5832570000000 1.0
C      1  0.4909320000000  0.5243200000000  0.4995410000000 1.0
C      1  0.4154200000000  0.4629300000000  0.5437170000000 1.0
C      1  0.4946650000000  0.4239710000000  0.4222170000000 1.0
C      1  0.5604680000000  0.5134020000000  0.5193270000000 1.0
C      1  0.4496390000000  0.5503530000000  0.5380530000000 1.0
C      1  0.5593930000000  0.4626080000000  0.5808900000000 1.0
C      1  0.5516900000000  0.4852590000000  0.4740920000000 1.0
C      1  0.5087030000000  0.4463530000000  0.5314110000000 1.0
C      1  0.5032360000000  0.5678090000000  0.4893110000000 1.0
C      1  0.5390970000000  0.5800660000000  0.5152270000000 1.0
C      1  0.4776790000000  0.4263360000000  0.5678970000000 1.0
C      1  0.4239070000000  0.4498510000000  0.4877440000000 1.0
C      1  0.4304000000000  0.4227530000000  0.5017890000000 1.0
C      1  0.5412450000000  0.4044310000000  0.5068180000000 1.0
C      1  0.4936250000000  0.6026340000000  0.5346210000000 1.0
C      1  0.4367210000000  0.5812860000000  0.4901890000000 1.0
C      1  0.4957960000000  0.5447110000000  0.4732030000000 1.0
C      1  0.5118910000000  0.4679150000000  0.4517640000000 1.0
C      1  0.4881620000000  0.5773950000000  0.4197490000000 1.0
C      1  0.5373190000000  0.4517140000000  0.5957500000000 1.0
C      1  0.5221880000000  0.6020880000000  0.5271060000000 1.0
C      1  0.4733530000000  0.4801210000000  0.3979530000000 1.0
C      1  0.5122380000000  0.4672200000000  0.6079830000000 1.0
C      1  0.4265140000000  0.4718850000000  0.4231220000000 1.0
C      1  0.5385160000000  0.3976310000000  0.4318300000000 1.0
C      1  0.4589170000000  0.6008790000000  0.4892450000000 1.0
C      1  0.5619850000000  0.5228850000000  0.4331460000000 1.0
C      1  0.4755770000000  0.4545430000000  0.4929990000000 1.0
C      1  0.4717720000000  0.5496200000000  0.5890100000000 1.0
C      1  0.5416700000000  0.4601790000000  0.4907990000000 1.0
C      1  0.5895760000000  0.4996970000000  0.5785870000000 1.0
C      1  0.4809700000000  0.4845230000000  0.4919540000000 1.0
C      1  0.4435970000000  0.4128440000000  0.4793340000000 1.0
C      1  0.4186310000000  0.5280670000000  0.5727080000000 1.0
C      1  0.5090480000000  0.3991900000000  0.4319560000000 1.0
C      1  0.4771500000000  0.4798340000000  0.5790930000000 1.0
C      1  0.5395030000000  0.5730750000000  0.4345370000000 1.0
C      1  0.5110820000000  0.5241170000000  0.6162260000000 1.0
C      1  0.5297650000000  0.5975170000000  0.5554470000000 1.0
C      1  0.4965400000000  0.4335280000000  0.4798110000000 1.0
C      1  0.5232250000000  0.4225420000000  0.5477270000000 1.0
C      1  0.5273190000000  0.4641920000000  0.5187030000000 1.0
C      1  0.3958300000000  0.4982090000000  0.5352680000000 1.0
C      1  0.4468200000000  0.4199540000000  0.5254730000000 1.0
C      1  0.5845740000000  0.5296410000000  0.5234520000000 1.0
C      1  0.4648560000000  0.4404750000000  0.5875250000000 1.0
C      1  0.5390590000000  0.5105310000000  0.5373600000000 1.0
C      1  0.4475330000000  0.4997970000000  0.4590620000000 1.0
C      1  0.5310550000000  0.4327100000000  0.5751050000000 1.0
C      1  0.5640810000000  0.5127910000000  0.5854750000000 1.0
C      1  0.5775900000000  0.5572610000000  0.4862120000000 1.0
C      1  0.4825220000000  0.6022780000000  0.4685130000000 1.0
C      1  0.4828580000000  0.5915190000000  0.4430550000000 1.0
C      1  0.5315110000000  0.4896210000000  0.4502740000000 1.0
C      1  0.4071140000000  0.5443330000000  0.5555510000000 1.0
C      1  0.5099810000000  0.4463480000000  0.4120040000000 1.0
C      1  0.4368400000000  0.5248570000000  0.5330580000000 1.0
C      1  0.4963450000000  0.3894630000000  0.4541850000000 1.0
C      1  0.4868040000000  0.5672620000000  0.5686240000000 1.0
C      1  0.5244650000000  0.5357770000000  0.5374030000000 1.0
C      1  0.4117240000000  0.5247340000000  0.4568880000000 1.0
C      1  0.5083380000000  0.5239100000000  0.4078000000000 1.0
C      1  0.5950030000000  0.4915580000000  0.4493450000000 1.0
C      1  0.4407890000000  0.4542630000000  0.5756870000000 1.0
END
