TITL C-4164232-771-285 2.62867096113438 125000 -21768.4287341063 0 0 145 (C1) n - 1
REM
REM in /home/nfs/bkarasulu/CARBON/AIRSS/Generating-Clusters/ReaxFF-fromJPCA2015/Units_Real/with-SteepDescent/Only-C1/SD-CG/Try1-3A/FIRE-CG
REM
REM
REM
REM
REM
REM ./C.cell (11c1c37f851c82e70ff6c80c92926a4b)
REM
REM compiler GCC version 9.2.1 20190827 (Red Hat 9.2.1-1)
REM options -cpp -mtune=generic -march=x86-64 -g -O0 -fpre-include=/usr/include/finclude/math-vector-fortran.h
REM seed 2019709428 -1841295255 1297942894 -220061552 -612497598 55580714 -1405744784 -967888672 2109684375 1491391462 -1103002285 1683221486 -371059336 1674318389 -1428605526 1467677724 -1661998844 29961611 214726515 1602728390 -1911130740 86476720 513158853 -1577567550 -1221338126 577396098 174217108 1114300162 531466958 -319885479 992856376 -1027511150 -443136388
REM
CELL 1.54180   50.00000   50.00000   50.00000   90.00000   90.00000   90.00000
LATT -1
SFAC C  
C      1  0.4680970000000  0.4698880000000  0.4859270000000 1.0
C      1  0.5494310000000  0.4099130000000  0.4793090000000 1.0
C      1  0.4898440000000  0.5737630000000  0.4360430000000 1.0
C      1  0.4748770000000  0.4830550000000  0.5999120000000 1.0
C      1  0.5036090000000  0.4799300000000  0.4517490000000 1.0
C      1  0.5613660000000  0.5390570000000  0.4304490000000 1.0
C      1  0.4843150000000  0.4755460000000  0.5341160000000 1.0
C      1  0.5360890000000  0.4257040000000  0.5519120000000 1.0
C      1  0.4459770000000  0.5628410000000  0.4635980000000 1.0
C      1  0.5379700000000  0.5687960000000  0.4641100000000 1.0
C      1  0.4877190000000  0.5827230000000  0.4920440000000 1.0
C      1  0.5318810000000  0.6037090000000  0.4985590000000 1.0
C      1  0.5066200000000  0.4326180000000  0.5579140000000 1.0
C      1  0.4881040000000  0.4556740000000  0.4630420000000 1.0
C      1  0.5509240000000  0.4252830000000  0.4308520000000 1.0
C      1  0.4573350000000  0.5851560000000  0.4591430000000 1.0
C      1  0.4877670000000  0.5492640000000  0.5831780000000 1.0
C      1  0.5594270000000  0.5108780000000  0.5810580000000 1.0
C      1  0.4664850000000  0.5913850000000  0.5262570000000 1.0
C      1  0.4719930000000  0.5134190000000  0.4582980000000 1.0
C      1  0.4451920000000  0.5248820000000  0.4053130000000 1.0
C      1  0.5534570000000  0.4320980000000  0.5288410000000 1.0
C      1  0.5263960000000  0.4909250000000  0.4992710000000 1.0
C      1  0.4805900000000  0.4766210000000  0.4150080000000 1.0
C      1  0.5717880000000  0.4865500000000  0.5388480000000 1.0
C      1  0.5235670000000  0.4155680000000  0.4657150000000 1.0
C      1  0.5672220000000  0.4621050000000  0.5211970000000 1.0
C      1  0.4166740000000  0.4307020000000  0.4826460000000 1.0
C      1  0.5559640000000  0.5656060000000  0.5124650000000 1.0
C      1  0.5835390000000  0.5603000000000  0.5055890000000 1.0
C      1  0.4745690000000  0.5621080000000  0.4143060000000 1.0
C      1  0.5288120000000  0.5338400000000  0.5080670000000 1.0
C      1  0.5230310000000  0.4184310000000  0.4364840000000 1.0
C      1  0.4425510000000  0.4471770000000  0.5412500000000 1.0
C      1  0.4710280000000  0.5410780000000  0.4661920000000 1.0
C      1  0.4867550000000  0.4583180000000  0.5094750000000 1.0
C      1  0.5719110000000  0.5132300000000  0.5278520000000 1.0
C      1  0.4163020000000  0.4578090000000  0.4942300000000 1.0
C      1  0.5063670000000  0.4634840000000  0.5537390000000 1.0
C      1  0.5928160000000  0.5359030000000  0.5274580000000 1.0
C      1  0.4772060000000  0.4295800000000  0.5151440000000 1.0
C      1  0.4095370000000  0.4828600000000  0.4520410000000 1.0
C      1  0.6012770000000  0.5382680000000  0.5599870000000 1.0
C      1  0.5669650000000  0.4174770000000  0.4554230000000 1.0
C      1  0.4359390000000  0.5011420000000  0.4138520000000 1.0
C      1  0.5377120000000  0.5228980000000  0.4146850000000 1.0
C      1  0.6130210000000  0.5319590000000  0.5073000000000 1.0
C      1  0.4767300000000  0.4537040000000  0.5941590000000 1.0
C      1  0.5463170000000  0.5475870000000  0.4902780000000 1.0
C      1  0.4983750000000  0.5002050000000  0.6005230000000 1.0
C      1  0.4902770000000  0.5030240000000  0.5288800000000 1.0
C      1  0.4623710000000  0.5298280000000  0.5420690000000 1.0
C      1  0.5324350000000  0.4652660000000  0.6160730000000 1.0
C      1  0.5758730000000  0.4943810000000  0.4100920000000 1.0
C      1  0.4155480000000  0.5353830000000  0.5413250000000 1.0
C      1  0.5558000000000  0.4512590000000  0.4183520000000 1.0
C      1  0.4518800000000  0.4754420000000  0.4109000000000 1.0
C      1  0.5183300000000  0.4829390000000  0.6103690000000 1.0
C      1  0.4440970000000  0.4643810000000  0.5039370000000 1.0
C      1  0.4583530000000  0.5478500000000  0.5838370000000 1.0
C      1  0.4343650000000  0.4207980000000  0.4604860000000 1.0
C      1  0.4436140000000  0.5223260000000  0.5853700000000 1.0
C      1  0.4111100000000  0.4592520000000  0.4344170000000 1.0
C      1  0.5359680000000  0.5301840000000  0.5801010000000 1.0
C      1  0.4141010000000  0.5276350000000  0.4824140000000 1.0
C      1  0.4897120000000  0.4999970000000  0.4349730000000 1.0
C      1  0.5849380000000  0.4637100000000  0.4965480000000 1.0
C      1  0.5135510000000  0.5153110000000  0.4915800000000 1.0
C      1  0.4796140000000  0.4179640000000  0.5424860000000 1.0
C      1  0.5085590000000  0.5203510000000  0.4169050000000 1.0
C      1  0.5397060000000  0.5823010000000  0.5335710000000 1.0
C      1  0.5955920000000  0.4621460000000  0.4461190000000 1.0
C      1  0.4337440000000  0.5409620000000  0.4987850000000 1.0
C      1  0.4038530000000  0.4815020000000  0.4807440000000 1.0
C      1  0.5514120000000  0.4204010000000  0.5047770000000 1.0
C      1  0.5588650000000  0.5202970000000  0.4743010000000 1.0
C      1  0.5258940000000  0.4421940000000  0.6024360000000 1.0
C      1  0.4791010000000  0.3847090000000  0.5382780000000 1.0
C      1  0.5849130000000  0.5086200000000  0.4729830000000 1.0
C      1  0.5314990000000  0.4809160000000  0.4475410000000 1.0
C      1  0.5289550000000  0.5980320000000  0.4714750000000 1.0
C      1  0.5164650000000  0.5255390000000  0.4630070000000 1.0
C      1  0.4362500000000  0.5685640000000  0.4901750000000 1.0
C      1  0.4712120000000  0.4984100000000  0.4824240000000 1.0
C      1  0.4375480000000  0.5233880000000  0.5566480000000 1.0
C      1  0.4165270000000  0.4808920000000  0.5632120000000 1.0
C      1  0.4138080000000  0.5297590000000  0.4539160000000 1.0
C      1  0.4016490000000  0.5136750000000  0.5255170000000 1.0
C      1  0.4770810000000  0.4328990000000  0.4462590000000 1.0
C      1  0.5248290000000  0.5768330000000  0.5586630000000 1.0
C      1  0.5465880000000  0.4280740000000  0.5798860000000 1.0
C      1  0.4245450000000  0.4334770000000  0.4353390000000 1.0
C      1  0.4762150000000  0.5126110000000  0.5060320000000 1.0
C      1  0.4729070000000  0.3891680000000  0.5118210000000 1.0
C      1  0.4989520000000  0.4322320000000  0.4261740000000 1.0
C      1  0.5347780000000  0.5348700000000  0.5525630000000 1.0
C      1  0.4966140000000  0.5715130000000  0.5660450000000 1.0
C      1  0.4458040000000  0.5495720000000  0.4160810000000 1.0
C      1  0.4023890000000  0.5059230000000  0.4964770000000 1.0
C      1  0.5189360000000  0.6004520000000  0.5229400000000 1.0
C      1  0.4882650000000  0.5200980000000  0.5517590000000 1.0
C      1  0.5322860000000  0.4708400000000  0.4185210000000 1.0
C      1  0.6042250000000  0.5201910000000  0.4893480000000 1.0
C      1  0.5837770000000  0.4390920000000  0.4549500000000 1.0
C      1  0.5155250000000  0.4501410000000  0.5023460000000 1.0
C      1  0.5549910000000  0.4868870000000  0.5634390000000 1.0
C      1  0.5818690000000  0.5245850000000  0.5734020000000 1.0
C      1  0.4935100000000  0.5423710000000  0.4103440000000 1.0
C      1  0.4058370000000  0.4947640000000  0.5449890000000 1.0
C      1  0.5442880000000  0.5229110000000  0.5297440000000 1.0
C      1  0.4917730000000  0.5558890000000  0.4792960000000 1.0
C      1  0.5706650000000  0.4219530000000  0.5760140000000 1.0
C      1  0.4492510000000  0.5666380000000  0.5628860000000 1.0
C      1  0.4312920000000  0.5471650000000  0.4419640000000 1.0
C      1  0.4309730000000  0.5610900000000  0.5402890000000 1.0
C      1  0.4561850000000  0.5298420000000  0.5139610000000 1.0
C      1  0.5301300000000  0.4749210000000  0.5584790000000 1.0
C      1  0.5379050000000  0.4690760000000  0.5061620000000 1.0
C      1  0.4332160000000  0.4535310000000  0.4155960000000 1.0
C      1  0.5009360000000  0.4383060000000  0.5879920000000 1.0
C      1  0.5395800000000  0.5084190000000  0.4568960000000 1.0
C      1  0.5025690000000  0.4582340000000  0.4136580000000 1.0
C      1  0.4195660000000  0.5071030000000  0.4393610000000 1.0
C      1  0.4712990000000  0.4105370000000  0.4939870000000 1.0
C      1  0.4995840000000  0.6020480000000  0.4728100000000 1.0
C      1  0.4805270000000  0.5973570000000  0.4500770000000 1.0
C      1  0.4489310000000  0.4945230000000  0.5937910000000 1.0
C      1  0.5779970000000  0.5198660000000  0.4225450000000 1.0
C      1  0.5440160000000  0.5569880000000  0.5663360000000 1.0
C      1  0.4528450000000  0.4702130000000  0.5307020000000 1.0
C      1  0.5021610000000  0.5227840000000  0.5796110000000 1.0
C      1  0.5095570000000  0.4375790000000  0.4772580000000 1.0
C      1  0.5471780000000  0.4971990000000  0.4065350000000 1.0
C      1  0.4418050000000  0.5768460000000  0.5176120000000 1.0
C      1  0.4629750000000  0.4156240000000  0.4647110000000 1.0
C      1  0.5826100000000  0.5612030000000  0.4758370000000 1.0
C      1  0.4340830000000  0.4715650000000  0.5826890000000 1.0
C      1  0.4722090000000  0.5827760000000  0.5540020000000 1.0
C      1  0.4516070000000  0.4465100000000  0.5812750000000 1.0
C      1  0.5802160000000  0.4665440000000  0.4209500000000 1.0
C      1  0.5115070000000  0.5545810000000  0.4557930000000 1.0
C      1  0.5642970000000  0.5600240000000  0.4528030000000 1.0
C      1  0.5911830000000  0.4773980000000  0.4723740000000 1.0
C      1  0.4921420000000  0.5872730000000  0.5188190000000 1.0
C      1  0.4540940000000  0.4282840000000  0.5579830000000 1.0
END
