TITL C-4164232-771-343 -20.5650147719859 125000 -6850.64215949287 0 0 46 (C1) n - 1
REM
REM in /home/nfs/bkarasulu/CARBON/AIRSS/Generating-Clusters/ReaxFF-fromJPCA2015/Units_Real/with-SteepDescent/Only-C1/SD-CG/Try1-3A/FIRE-CG
REM
REM
REM
REM
REM
REM ./C.cell (11c1c37f851c82e70ff6c80c92926a4b)
REM
REM compiler GCC version 9.2.1 20190827 (Red Hat 9.2.1-1)
REM options -cpp -mtune=generic -march=x86-64 -g -O0 -fpre-include=/usr/include/finclude/math-vector-fortran.h
REM seed 1652804109 658867254 663596145 180438492 -734010409 -791612728 -633138670 586588197 -1284508058 1347475982 1421056062 -2044870233 -1756347413 -1804155320 930696076 -1879148505 -140652585 -2103685088 2010887261 44540455 560802942 -566622472 -819372791 -791076405 -1017523398 -2091168138 -14426310 -868800787 -1977741896 1704436540 1077681239 841345425 909589799
REM
CELL 1.54180   50.00000   50.00000   50.00000   90.00000   90.00000   90.00000
LATT -1
SFAC C  
C      1  0.4242520000000  0.4904050000000  0.4877770000000 1.0
C      1  0.5475200000000  0.4625270000000  0.5427890000000 1.0
C      1  0.4771600000000  0.5277560000000  0.5135080000000 1.0
C      1  0.5039060000000  0.4933730000000  0.4458940000000 1.0
C      1  0.4793000000000  0.5082830000000  0.5373700000000 1.0
C      1  0.4943520000000  0.5118830000000  0.4918990000000 1.0
C      1  0.4860440000000  0.5610980000000  0.4591920000000 1.0
C      1  0.5040910000000  0.4530020000000  0.5170780000000 1.0
C      1  0.4950860000000  0.5165860000000  0.4619410000000 1.0
C      1  0.5118840000000  0.5527860000000  0.4500260000000 1.0
C      1  0.4894950000000  0.5690980000000  0.4880330000000 1.0
C      1  0.4656760000000  0.4826660000000  0.5328140000000 1.0
C      1  0.5676870000000  0.4606490000000  0.5213900000000 1.0
C      1  0.5583430000000  0.5075260000000  0.5316800000000 1.0
C      1  0.4362160000000  0.4878410000000  0.5345340000000 1.0
C      1  0.4472370000000  0.5310730000000  0.5061740000000 1.0
C      1  0.5453950000000  0.4905880000000  0.5515200000000 1.0
C      1  0.4504060000000  0.5179810000000  0.4574900000000 1.0
C      1  0.4642600000000  0.4566430000000  0.4876280000000 1.0
C      1  0.4951830000000  0.5551740000000  0.5129480000000 1.0
C      1  0.4798860000000  0.4509410000000  0.4629460000000 1.0
C      1  0.4803690000000  0.4759580000000  0.4454780000000 1.0
C      1  0.5305130000000  0.4677260000000  0.4733590000000 1.0
C      1  0.5580160000000  0.5260120000000  0.4833210000000 1.0
C      1  0.5713890000000  0.5035890000000  0.4920160000000 1.0
C      1  0.5501680000000  0.4486910000000  0.5032730000000 1.0
C      1  0.5196140000000  0.4926830000000  0.5661170000000 1.0
C      1  0.4338280000000  0.5141340000000  0.5240750000000 1.0
C      1  0.5236290000000  0.4483850000000  0.4932370000000 1.0
C      1  0.5759860000000  0.4901900000000  0.5162250000000 1.0
C      1  0.5109800000000  0.5357250000000  0.5459900000000 1.0
C      1  0.5487370000000  0.5143870000000  0.4582210000000 1.0
C      1  0.5416200000000  0.5260970000000  0.5127370000000 1.0
C      1  0.5189310000000  0.4529920000000  0.5420600000000 1.0
C      1  0.5194370000000  0.5059910000000  0.5037460000000 1.0
C      1  0.4434850000000  0.4731880000000  0.4734640000000 1.0
C      1  0.5077560000000  0.4653890000000  0.5675130000000 1.0
C      1  0.5335200000000  0.5369340000000  0.4522740000000 1.0
C      1  0.5315670000000  0.4877190000000  0.4548820000000 1.0
C      1  0.5220600000000  0.5486490000000  0.5242490000000 1.0
C      1  0.4549640000000  0.4894700000000  0.4520470000000 1.0
C      1  0.4148520000000  0.4786800000000  0.5140240000000 1.0
C      1  0.4350400000000  0.5184370000000  0.4824880000000 1.0
C      1  0.4990850000000  0.5138530000000  0.5584290000000 1.0
C      1  0.4771670000000  0.4624030000000  0.5141940000000 1.0
C      1  0.4739070000000  0.5348380000000  0.4519490000000 1.0
END
