TITL C-4164245-3996-620 0.306919923667746 125000 -2820.25908403142 0 0 21 (C1) n - 1
REM
REM in /home/nfs/bkarasulu/CARBON/AIRSS/Generating-Clusters/ReaxFF-fromJPCA2015/Units_Real/with-SteepDescent/Only-C1/SD-CG/Try1-3A/FIRE-CG
REM
REM
REM
REM
REM
REM ./C.cell (11c1c37f851c82e70ff6c80c92926a4b)
REM
REM compiler GCC version 9.2.1 20190827 (Red Hat 9.2.1-1)
REM options -cpp -mtune=generic -march=x86-64 -g -O0 -fpre-include=/usr/include/finclude/math-vector-fortran.h
REM seed 1337892369 1877826941 -1067227690 -1504037703 882012667 650310213 -1996827209 -225639499 1239996617 1850353475 408910288 463765851 -1706128227 -602100209 -1827182662 1120310985 -1547741697 1020580416 -714493909 -641623054 -1698364692 -1244261971 -1909587350 -240461090 -1632641255 -1236255922 228067418 -71309553 -2110994185 993180783 -1847020667 -2024145192 -221466274
REM
CELL 1.54180   50.00000   50.00000   50.00000   90.00000   90.00000   90.00000
LATT -1
SFAC C  
C      1  0.5038950000000  0.5171840000000  0.5428000000000 1.0
C      1  0.4553780000000  0.5061450000000  0.5035150000000 1.0
C      1  0.5479160000000  0.5294490000000  0.5128380000000 1.0
C      1  0.4645620000000  0.4732310000000  0.5421980000000 1.0
C      1  0.5799480000000  0.5201800000000  0.4745600000000 1.0
C      1  0.4698410000000  0.4886680000000  0.4848550000000 1.0
C      1  0.5095280000000  0.4909720000000  0.5394430000000 1.0
C      1  0.5364270000000  0.4962960000000  0.4715360000000 1.0
C      1  0.5275960000000  0.5258890000000  0.5299820000000 1.0
C      1  0.5160890000000  0.4866170000000  0.4850160000000 1.0
C      1  0.4706810000000  0.4951050000000  0.4542400000000 1.0
C      1  0.5205090000000  0.5021520000000  0.4456010000000 1.0
C      1  0.4744340000000  0.5238820000000  0.5361100000000 1.0
C      1  0.5575800000000  0.5146990000000  0.4852580000000 1.0
C      1  0.5131540000000  0.4512870000000  0.5379910000000 1.0
C      1  0.4457810000000  0.4942220000000  0.4513400000000 1.0
C      1  0.4957200000000  0.4712040000000  0.5290340000000 1.0
C      1  0.4659090000000  0.5345880000000  0.5097170000000 1.0
C      1  0.4562240000000  0.4984720000000  0.5334710000000 1.0
C      1  0.4947220000000  0.5021200000000  0.4336600000000 1.0
C      1  0.4941060000000  0.4776380000000  0.4968350000000 1.0
END
