TITL C-4164239-2837-440 28.5065543734255 125000 -22575.5397910824 0 0 153 (C1) n - 1
REM
REM in /home/nfs/bkarasulu/CARBON/AIRSS/Generating-Clusters/ReaxFF-fromJPCA2015/Units_Real/with-SteepDescent/Only-C1/SD-CG/Try1-3A/FIRE-CG
REM
REM
REM
REM
REM
REM ./C.cell (11c1c37f851c82e70ff6c80c92926a4b)
REM
REM compiler GCC version 9.2.1 20190827 (Red Hat 9.2.1-1)
REM options -cpp -mtune=generic -march=x86-64 -g -O0 -fpre-include=/usr/include/finclude/math-vector-fortran.h
REM seed -1974734765 -554691738 1686411601 -389073100 -2142639839 -456770759 343535684 1599378959 85406055 -306428071 1841829154 1307546627 -757310567 1689504855 -556862528 715151806 -724241212 1288916103 453953294 -1282872892 -1385580055 315148927 605564073 -1491101755 2101356285 949176608 -658083867 -392012930 -59464778 594505966 -237880438 -1808573212 418435509
REM
CELL 1.54180   50.00000   50.00000   50.00000   90.00000   90.00000   90.00000
LATT -1
SFAC C  
C      1  0.5380770000000  0.5018300000000  0.5515860000000 1.0
C      1  0.5173840000000  0.6046710000000  0.4372790000000 1.0
C      1  0.5405420000000  0.4741060000000  0.4877860000000 1.0
C      1  0.4774280000000  0.5976070000000  0.5297990000000 1.0
C      1  0.4733760000000  0.5400420000000  0.4556490000000 1.0
C      1  0.4075300000000  0.4549530000000  0.5197910000000 1.0
C      1  0.4908130000000  0.4740690000000  0.5411070000000 1.0
C      1  0.4480370000000  0.5850410000000  0.4640320000000 1.0
C      1  0.5317590000000  0.5463580000000  0.4785300000000 1.0
C      1  0.4309120000000  0.5258770000000  0.4803890000000 1.0
C      1  0.5299790000000  0.4916070000000  0.5065280000000 1.0
C      1  0.4958590000000  0.4190080000000  0.4358390000000 1.0
C      1  0.4553050000000  0.5258410000000  0.4971510000000 1.0
C      1  0.4890060000000  0.5975680000000  0.4332370000000 1.0
C      1  0.4197720000000  0.5769310000000  0.5081340000000 1.0
C      1  0.5028000000000  0.5487080000000  0.5973840000000 1.0
C      1  0.5409200000000  0.4307430000000  0.4816790000000 1.0
C      1  0.4153400000000  0.4726400000000  0.4298220000000 1.0
C      1  0.4174470000000  0.4909640000000  0.5516300000000 1.0
C      1  0.5931420000000  0.5131060000000  0.5661570000000 1.0
C      1  0.4004240000000  0.4796090000000  0.4798370000000 1.0
C      1  0.4990120000000  0.4154680000000  0.5456870000000 1.0
C      1  0.4703570000000  0.4188680000000  0.4507160000000 1.0
C      1  0.5532440000000  0.5529310000000  0.5672000000000 1.0
C      1  0.5749780000000  0.5272880000000  0.4380490000000 1.0
C      1  0.5848030000000  0.5071510000000  0.4740630000000 1.0
C      1  0.4429390000000  0.4789670000000  0.4170380000000 1.0
C      1  0.4392980000000  0.5915640000000  0.4930610000000 1.0
C      1  0.4899500000000  0.5728030000000  0.4162270000000 1.0
C      1  0.4531720000000  0.5042540000000  0.4065170000000 1.0
C      1  0.4839900000000  0.5226730000000  0.4894760000000 1.0
C      1  0.5376880000000  0.4253640000000  0.4357480000000 1.0
C      1  0.5194510000000  0.4894120000000  0.3973120000000 1.0
C      1  0.5049150000000  0.5949730000000  0.5302610000000 1.0
C      1  0.5185890000000  0.5685250000000  0.4948440000000 1.0
C      1  0.5506280000000  0.5032500000000  0.4629700000000 1.0
C      1  0.5026860000000  0.4833190000000  0.5173080000000 1.0
C      1  0.5480760000000  0.5339020000000  0.5179150000000 1.0
C      1  0.5219990000000  0.4642320000000  0.4697330000000 1.0
C      1  0.4269630000000  0.4350470000000  0.4762710000000 1.0
C      1  0.4851700000000  0.5545070000000  0.5729460000000 1.0
C      1  0.5087600000000  0.4611290000000  0.4044640000000 1.0
C      1  0.4963530000000  0.5268190000000  0.5154360000000 1.0
C      1  0.5147410000000  0.5286160000000  0.4286420000000 1.0
C      1  0.4950650000000  0.4011940000000  0.4934990000000 1.0
C      1  0.4409190000000  0.5209650000000  0.4260220000000 1.0
C      1  0.5709110000000  0.5151170000000  0.5868830000000 1.0
C      1  0.5896890000000  0.4781130000000  0.5350270000000 1.0
C      1  0.5244550000000  0.4489720000000  0.5250790000000 1.0
C      1  0.4996190000000  0.4426290000000  0.5124370000000 1.0
C      1  0.5136780000000  0.5585200000000  0.4232930000000 1.0
C      1  0.4855750000000  0.4443720000000  0.5567550000000 1.0
C      1  0.4406640000000  0.4293990000000  0.4508560000000 1.0
C      1  0.4673760000000  0.4839160000000  0.5971560000000 1.0
C      1  0.5786160000000  0.5615450000000  0.5227050000000 1.0
C      1  0.5444840000000  0.4949030000000  0.4116530000000 1.0
C      1  0.5297970000000  0.4501830000000  0.5764710000000 1.0
C      1  0.4903030000000  0.5728750000000  0.4978540000000 1.0
C      1  0.4418480000000  0.4913270000000  0.5320480000000 1.0
C      1  0.4465080000000  0.4704560000000  0.5158060000000 1.0
C      1  0.4567320000000  0.4441110000000  0.5660950000000 1.0
C      1  0.5568240000000  0.4352740000000  0.4582980000000 1.0
C      1  0.5473650000000  0.5321270000000  0.5851500000000 1.0
C      1  0.4550800000000  0.5155430000000  0.5247820000000 1.0
C      1  0.4870520000000  0.4876160000000  0.4464550000000 1.0
C      1  0.4291840000000  0.5087550000000  0.4547710000000 1.0
C      1  0.5309420000000  0.5120560000000  0.4812620000000 1.0
C      1  0.4125820000000  0.5244780000000  0.5017860000000 1.0
C      1  0.5828060000000  0.5341490000000  0.4825320000000 1.0
C      1  0.4744850000000  0.5682160000000  0.5245260000000 1.0
C      1  0.4588560000000  0.4769710000000  0.4905840000000 1.0
C      1  0.4601850000000  0.4002390000000  0.5262820000000 1.0
C      1  0.4060820000000  0.4893160000000  0.4526290000000 1.0
C      1  0.4193870000000  0.5496990000000  0.5224150000000 1.0
C      1  0.5497800000000  0.4868720000000  0.5289180000000 1.0
C      1  0.5191910000000  0.4090950000000  0.4502360000000 1.0
C      1  0.4298400000000  0.4460400000000  0.5528050000000 1.0
C      1  0.5823200000000  0.5481660000000  0.4578850000000 1.0
C      1  0.5891380000000  0.5026800000000  0.4452520000000 1.0
C      1  0.4714470000000  0.6000710000000  0.4575890000000 1.0
C      1  0.5076300000000  0.5137070000000  0.4038890000000 1.0
C      1  0.4232870000000  0.4685470000000  0.5695210000000 1.0
C      1  0.5881830000000  0.4641840000000  0.4899470000000 1.0
C      1  0.4721270000000  0.4068260000000  0.4766110000000 1.0
C      1  0.5470330000000  0.5159420000000  0.4333040000000 1.0
C      1  0.5202190000000  0.5410620000000  0.5271030000000 1.0
C      1  0.5197370000000  0.4908190000000  0.6013500000000 1.0
C      1  0.4595490000000  0.4769080000000  0.4412660000000 1.0
C      1  0.5324520000000  0.5723380000000  0.5618970000000 1.0
C      1  0.5467580000000  0.4511720000000  0.5048410000000 1.0
C      1  0.4624600000000  0.6059630000000  0.5057360000000 1.0
C      1  0.4083930000000  0.4537060000000  0.4898750000000 1.0
C      1  0.3995230000000  0.4982240000000  0.5038530000000 1.0
C      1  0.5407170000000  0.4745330000000  0.5899130000000 1.0
C      1  0.5151020000000  0.4352540000000  0.4177670000000 1.0
C      1  0.4814580000000  0.5126610000000  0.5358780000000 1.0
C      1  0.5300430000000  0.4677240000000  0.4426190000000 1.0
C      1  0.4427030000000  0.5288260000000  0.5795110000000 1.0
C      1  0.4829790000000  0.5077960000000  0.3932170000000 1.0
C      1  0.5095410000000  0.5708630000000  0.5801810000000 1.0
C      1  0.4635790000000  0.5122860000000  0.5934420000000 1.0
C      1  0.5678680000000  0.5767030000000  0.5021120000000 1.0
C      1  0.4911370000000  0.5130690000000  0.5846770000000 1.0
C      1  0.5273360000000  0.4101390000000  0.5416920000000 1.0
C      1  0.4245260000000  0.4469780000000  0.4363870000000 1.0
C      1  0.4760540000000  0.5349050000000  0.3905450000000 1.0
C      1  0.5961810000000  0.4916540000000  0.4962670000000 1.0
C      1  0.4669040000000  0.5578940000000  0.4042130000000 1.0
C      1  0.4512390000000  0.5558870000000  0.5369510000000 1.0
C      1  0.5569770000000  0.5396360000000  0.4930700000000 1.0
C      1  0.5313930000000  0.5772560000000  0.4368140000000 1.0
C      1  0.5886220000000  0.4841030000000  0.5645330000000 1.0
C      1  0.4510950000000  0.5579590000000  0.4520300000000 1.0
C      1  0.5389960000000  0.5823050000000  0.5103970000000 1.0
C      1  0.4934380000000  0.5233200000000  0.5599340000000 1.0
C      1  0.4930850000000  0.5206560000000  0.4494510000000 1.0
C      1  0.4454130000000  0.5493290000000  0.4242550000000 1.0
C      1  0.5973030000000  0.5030390000000  0.5227210000000 1.0
C      1  0.5782440000000  0.5510390000000  0.5470200000000 1.0
C      1  0.5220220000000  0.4068680000000  0.4829330000000 1.0
C      1  0.5677510000000  0.4855580000000  0.5856300000000 1.0
C      1  0.5801660000000  0.4749380000000  0.4412830000000 1.0
C      1  0.4546720000000  0.5516670000000  0.5648960000000 1.0
C      1  0.4879330000000  0.3990640000000  0.5239500000000 1.0
C      1  0.5445940000000  0.5663800000000  0.4601830000000 1.0
C      1  0.5780550000000  0.4554270000000  0.4626920000000 1.0
C      1  0.5955180000000  0.5281100000000  0.5407770000000 1.0
C      1  0.5185870000000  0.5221710000000  0.5978440000000 1.0
C      1  0.4482200000000  0.4648600000000  0.5841450000000 1.0
C      1  0.5584660000000  0.5127860000000  0.5338830000000 1.0
C      1  0.5364860000000  0.4006780000000  0.5145710000000 1.0
C      1  0.5753360000000  0.3919300000000  0.5015680000000 1.0
C      1  0.4323300000000  0.4430970000000  0.5251380000000 1.0
C      1  0.4817780000000  0.5992700000000  0.4853660000000 1.0
C      1  0.4959170000000  0.4747120000000  0.5981050000000 1.0
C      1  0.4457180000000  0.4833250000000  0.4651040000000 1.0
C      1  0.5704420000000  0.5713410000000  0.4715230000000 1.0
C      1  0.5763060000000  0.4596510000000  0.5158470000000 1.0
C      1  0.4153190000000  0.5421100000000  0.5505510000000 1.0
C      1  0.4180820000000  0.5195240000000  0.5667500000000 1.0
C      1  0.4376940000000  0.4115250000000  0.5187840000000 1.0
C      1  0.4487560000000  0.4218940000000  0.4930090000000 1.0
C      1  0.5198210000000  0.5238700000000  0.5508340000000 1.0
C      1  0.5606670000000  0.3963830000000  0.5207640000000 1.0
C      1  0.5352220000000  0.4379740000000  0.5501330000000 1.0
C      1  0.4746270000000  0.4401940000000  0.5032020000000 1.0
C      1  0.4008320000000  0.4818470000000  0.5274340000000 1.0
C      1  0.5547350000000  0.4724360000000  0.4267080000000 1.0
C      1  0.5251800000000  0.5794940000000  0.5349490000000 1.0
C      1  0.5015670000000  0.4513010000000  0.5811970000000 1.0
C      1  0.4951850000000  0.4745790000000  0.4718630000000 1.0
C      1  0.5051060000000  0.4719880000000  0.4305820000000 1.0
C      1  0.4852240000000  0.4895310000000  0.4939890000000 1.0
END
