TITL C-4164234-2335-143 -4.74408269186899 125000 -9327.0032966679 0 0 63 (C1) n - 1
REM
REM in /home/nfs/bkarasulu/CARBON/AIRSS/Generating-Clusters/ReaxFF-fromJPCA2015/Units_Real/with-SteepDescent/Only-C1/SD-CG/Try1-3A/FIRE-CG
REM
REM
REM
REM
REM
REM ./C.cell (11c1c37f851c82e70ff6c80c92926a4b)
REM
REM compiler GCC version 9.2.1 20190827 (Red Hat 9.2.1-1)
REM options -cpp -mtune=generic -march=x86-64 -g -O0 -fpre-include=/usr/include/finclude/math-vector-fortran.h
REM seed -1812754098 -1020132846 -244385736 -1108596668 -171815710 1086320761 -1154445040 -1502974857 1066297242 2855746 71196813 1135037256 1931555862 1318931036 -184711795 -1806929557 862836186 -1315647641 1050076729 1671014261 359076683 -2037056545 -1920862970 334946594 1087891470 -1887312535 1439395128 781723255 -520810404 217379289 1732184239 106796844 -1827174273
REM
CELL 1.54180   50.00000   50.00000   50.00000   90.00000   90.00000   90.00000
LATT -1
SFAC C  
C      1  0.4759290000000  0.5560750000000  0.5393640000000 1.0
C      1  0.4451010000000  0.4645670000000  0.4870390000000 1.0
C      1  0.5455600000000  0.4549900000000  0.4748560000000 1.0
C      1  0.4706060000000  0.4451610000000  0.5540910000000 1.0
C      1  0.5044330000000  0.5250990000000  0.4664910000000 1.0
C      1  0.4556160000000  0.5376310000000  0.5458150000000 1.0
C      1  0.5217010000000  0.5096830000000  0.5745150000000 1.0
C      1  0.4659080000000  0.5364490000000  0.4301590000000 1.0
C      1  0.5118390000000  0.4254640000000  0.5306590000000 1.0
C      1  0.5357270000000  0.4345770000000  0.5170490000000 1.0
C      1  0.5071790000000  0.5150120000000  0.5319410000000 1.0
C      1  0.5509460000000  0.5241550000000  0.4616200000000 1.0
C      1  0.5367260000000  0.4743620000000  0.5464790000000 1.0
C      1  0.5048010000000  0.5095880000000  0.5036040000000 1.0
C      1  0.5676870000000  0.4979390000000  0.4893050000000 1.0
C      1  0.4840500000000  0.5019110000000  0.5519770000000 1.0
C      1  0.5065510000000  0.5451150000000  0.5424860000000 1.0
C      1  0.4432420000000  0.4788050000000  0.4607330000000 1.0
C      1  0.5340340000000  0.5035970000000  0.5470090000000 1.0
C      1  0.5248210000000  0.5799550000000  0.5049110000000 1.0
C      1  0.4905680000000  0.4877430000000  0.4889660000000 1.0
C      1  0.5084440000000  0.5357120000000  0.5722470000000 1.0
C      1  0.4825400000000  0.5240170000000  0.5714720000000 1.0
C      1  0.4433010000000  0.5306780000000  0.4784030000000 1.0
C      1  0.4788860000000  0.5539260000000  0.4479080000000 1.0
C      1  0.4654200000000  0.5617140000000  0.5145750000000 1.0
C      1  0.4944510000000  0.4179960000000  0.5085440000000 1.0
C      1  0.5424510000000  0.4725120000000  0.4524730000000 1.0
C      1  0.5180050000000  0.4970530000000  0.4262690000000 1.0
C      1  0.4988600000000  0.5887510000000  0.4944370000000 1.0
C      1  0.5161190000000  0.5232710000000  0.4186730000000 1.0
C      1  0.5668490000000  0.5165480000000  0.5096500000000 1.0
C      1  0.4688610000000  0.4318450000000  0.5089380000000 1.0
C      1  0.5179610000000  0.4872800000000  0.4968580000000 1.0
C      1  0.4403730000000  0.4693020000000  0.5151040000000 1.0
C      1  0.5066600000000  0.4227380000000  0.4821510000000 1.0
C      1  0.4538280000000  0.4467530000000  0.5295750000000 1.0
C      1  0.4635660000000  0.5541130000000  0.4730550000000 1.0
C      1  0.4410650000000  0.5148200000000  0.5004200000000 1.0
C      1  0.5589620000000  0.4983510000000  0.4608600000000 1.0
C      1  0.4885040000000  0.4388510000000  0.4656780000000 1.0
C      1  0.5001400000000  0.4408250000000  0.5533230000000 1.0
C      1  0.5157760000000  0.4641270000000  0.5631520000000 1.0
C      1  0.5189210000000  0.4716830000000  0.4355580000000 1.0
C      1  0.4528820000000  0.5094590000000  0.5469490000000 1.0
C      1  0.5338140000000  0.4318060000000  0.4874940000000 1.0
C      1  0.4638240000000  0.5106880000000  0.4419730000000 1.0
C      1  0.4916750000000  0.4571950000000  0.4427930000000 1.0
C      1  0.5100160000000  0.5430810000000  0.4446810000000 1.0
C      1  0.5382220000000  0.5498630000000  0.4600190000000 1.0
C      1  0.5590220000000  0.5209030000000  0.5359260000000 1.0
C      1  0.4397010000000  0.5085420000000  0.4588070000000 1.0
C      1  0.5287730000000  0.5626280000000  0.5309880000000 1.0
C      1  0.4854680000000  0.5058480000000  0.4663960000000 1.0
C      1  0.5458000000000  0.4603630000000  0.5240840000000 1.0
C      1  0.5507050000000  0.5464030000000  0.5292980000000 1.0
C      1  0.4388410000000  0.4981260000000  0.5225380000000 1.0
C      1  0.4709670000000  0.5759630000000  0.4915620000000 1.0
C      1  0.4667540000000  0.4693620000000  0.4464870000000 1.0
C      1  0.5024690000000  0.4877990000000  0.5735060000000 1.0
C      1  0.5316280000000  0.5650720000000  0.4825740000000 1.0
C      1  0.5450930000000  0.4750360000000  0.4985270000000 1.0
C      1  0.4713800000000  0.4511190000000  0.4870070000000 1.0
END
