TITL C-4164234-2335-294 -8.00787860827699 125000 -21232.1192530428 0 0 141 (C1) n - 1
REM
REM in /home/nfs/bkarasulu/CARBON/AIRSS/Generating-Clusters/ReaxFF-fromJPCA2015/Units_Real/with-SteepDescent/Only-C1/SD-CG/Try1-3A/FIRE-CG
REM
REM
REM
REM
REM
REM ./C.cell (11c1c37f851c82e70ff6c80c92926a4b)
REM
REM compiler GCC version 9.2.1 20190827 (Red Hat 9.2.1-1)
REM options -cpp -mtune=generic -march=x86-64 -g -O0 -fpre-include=/usr/include/finclude/math-vector-fortran.h
REM seed -365259704 556338557 752876225 -693681043 -1790285088 -1184190504 157789301 770986153 1965994063 2089615198 -178016844 826381891 116970285 -1948194281 -1935492083 -1571658606 -2051280320 -535300500 1109078129 1524061560 205034501 -1199419792 -892051386 589134432 393700870 803481417 -1156999046 2101161852 393606680 312736778 -20655812 -141183484 1877923953
REM
CELL 1.54180   50.00000   50.00000   50.00000   90.00000   90.00000   90.00000
LATT -1
SFAC C  
C      1  0.4427930000000  0.4755250000000  0.4128090000000 1.0
C      1  0.4977920000000  0.5179200000000  0.5575000000000 1.0
C      1  0.4901190000000  0.4143120000000  0.4539300000000 1.0
C      1  0.5219730000000  0.4003800000000  0.5189520000000 1.0
C      1  0.4896730000000  0.5529860000000  0.4148320000000 1.0
C      1  0.5520640000000  0.4313850000000  0.5036960000000 1.0
C      1  0.5712390000000  0.5628230000000  0.4675640000000 1.0
C      1  0.5453140000000  0.4655160000000  0.4110260000000 1.0
C      1  0.5612170000000  0.5334640000000  0.5798890000000 1.0
C      1  0.4223020000000  0.4648720000000  0.4868970000000 1.0
C      1  0.5393860000000  0.4341250000000  0.5529110000000 1.0
C      1  0.5005770000000  0.4734640000000  0.6112600000000 1.0
C      1  0.4121330000000  0.5352030000000  0.4986400000000 1.0
C      1  0.5582050000000  0.5392450000000  0.4259300000000 1.0
C      1  0.4605800000000  0.4702110000000  0.5250080000000 1.0
C      1  0.5199700000000  0.5544740000000  0.4732380000000 1.0
C      1  0.5575180000000  0.5269210000000  0.5360340000000 1.0
C      1  0.5488100000000  0.4826260000000  0.5733610000000 1.0
C      1  0.4255390000000  0.4365980000000  0.5262310000000 1.0
C      1  0.4524770000000  0.5737780000000  0.5440270000000 1.0
C      1  0.4576850000000  0.4174300000000  0.5074400000000 1.0
C      1  0.4369820000000  0.5810130000000  0.4967280000000 1.0
C      1  0.5612340000000  0.4326110000000  0.4515540000000 1.0
C      1  0.5369220000000  0.5489410000000  0.5818530000000 1.0
C      1  0.5228160000000  0.5134990000000  0.4056840000000 1.0
C      1  0.5203800000000  0.5231460000000  0.5842030000000 1.0
C      1  0.5187170000000  0.6065630000000  0.4609900000000 1.0
C      1  0.4984490000000  0.5255320000000  0.6049320000000 1.0
C      1  0.4662530000000  0.4475840000000  0.5013290000000 1.0
C      1  0.4507210000000  0.4659930000000  0.4808190000000 1.0
C      1  0.4646340000000  0.4131540000000  0.5533640000000 1.0
C      1  0.5291550000000  0.5420100000000  0.4207360000000 1.0
C      1  0.4864730000000  0.4986050000000  0.6074360000000 1.0
C      1  0.4441570000000  0.4313770000000  0.4514640000000 1.0
C      1  0.4210830000000  0.5202880000000  0.4267920000000 1.0
C      1  0.4749510000000  0.5673770000000  0.4770390000000 1.0
C      1  0.5119020000000  0.5683940000000  0.4190330000000 1.0
C      1  0.4904800000000  0.5270410000000  0.4991190000000 1.0
C      1  0.5033920000000  0.4105850000000  0.4969680000000 1.0
C      1  0.4194640000000  0.4904290000000  0.4212310000000 1.0
C      1  0.5764920000000  0.5456040000000  0.4471510000000 1.0
C      1  0.4832540000000  0.3984770000000  0.4777750000000 1.0
C      1  0.5103180000000  0.5926270000000  0.4375130000000 1.0
C      1  0.4306960000000  0.5044880000000  0.5686010000000 1.0
C      1  0.5884910000000  0.5160370000000  0.5120940000000 1.0
C      1  0.5292290000000  0.5340050000000  0.5381540000000 1.0
C      1  0.5384490000000  0.5140420000000  0.4971780000000 1.0
C      1  0.4894030000000  0.4496960000000  0.6008500000000 1.0
C      1  0.5830200000000  0.4711260000000  0.5412160000000 1.0
C      1  0.4194000000000  0.5621100000000  0.4854980000000 1.0
C      1  0.5787240000000  0.5623380000000  0.5372550000000 1.0
C      1  0.5508860000000  0.4070480000000  0.5192630000000 1.0
C      1  0.4581950000000  0.4941100000000  0.4817810000000 1.0
C      1  0.4844680000000  0.5291150000000  0.4493200000000 1.0
C      1  0.4944830000000  0.4376020000000  0.5024180000000 1.0
C      1  0.5879070000000  0.5590800000000  0.4896520000000 1.0
C      1  0.4211770000000  0.5323090000000  0.5257590000000 1.0
C      1  0.4743360000000  0.5294630000000  0.5443830000000 1.0
C      1  0.5976480000000  0.4880310000000  0.5192020000000 1.0
C      1  0.4832510000000  0.5450700000000  0.5897040000000 1.0
C      1  0.5382530000000  0.6310060000000  0.5021730000000 1.0
C      1  0.5781090000000  0.4439220000000  0.5423730000000 1.0
C      1  0.5590710000000  0.5098420000000  0.4289480000000 1.0
C      1  0.5647190000000  0.4197930000000  0.5438450000000 1.0
C      1  0.5379030000000  0.4196460000000  0.4544590000000 1.0
C      1  0.5151730000000  0.5359140000000  0.4513310000000 1.0
C      1  0.4037670000000  0.4862750000000  0.4745080000000 1.0
C      1  0.4611570000000  0.4418760000000  0.4316550000000 1.0
C      1  0.4426070000000  0.4500200000000  0.5712460000000 1.0
C      1  0.4326570000000  0.4201370000000  0.4746600000000 1.0
C      1  0.5329380000000  0.4473580000000  0.5260740000000 1.0
C      1  0.5352680000000  0.4588230000000  0.5743100000000 1.0
C      1  0.5158110000000  0.4564460000000  0.5943370000000 1.0
C      1  0.4992650000000  0.4972430000000  0.4110050000000 1.0
C      1  0.4085940000000  0.5305970000000  0.4513800000000 1.0
C      1  0.4965090000000  0.5587680000000  0.4935710000000 1.0
C      1  0.4908210000000  0.6048280000000  0.4574910000000 1.0
C      1  0.4544770000000  0.4960440000000  0.5105250000000 1.0
C      1  0.4817520000000  0.5740860000000  0.5446600000000 1.0
C      1  0.4185590000000  0.5573740000000  0.4562880000000 1.0
C      1  0.5302770000000  0.5069180000000  0.4497050000000 1.0
C      1  0.4639920000000  0.4607090000000  0.4068720000000 1.0
C      1  0.5018700000000  0.4448890000000  0.5300870000000 1.0
C      1  0.5449400000000  0.5665530000000  0.4782980000000 1.0
C      1  0.5360000000000  0.4747430000000  0.5265510000000 1.0
C      1  0.4947990000000  0.5605040000000  0.5671830000000 1.0
C      1  0.5005920000000  0.4677740000000  0.4563510000000 1.0
C      1  0.5931590000000  0.4736780000000  0.4979790000000 1.0
C      1  0.4059810000000  0.5162230000000  0.4769540000000 1.0
C      1  0.5184600000000  0.4614330000000  0.4028690000000 1.0
C      1  0.4884110000000  0.4752850000000  0.5365400000000 1.0
C      1  0.5173190000000  0.4082300000000  0.4570440000000 1.0
C      1  0.5813820000000  0.4721230000000  0.4488970000000 1.0
C      1  0.4359620000000  0.5322340000000  0.5720970000000 1.0
C      1  0.4840680000000  0.5075410000000  0.4757920000000 1.0
C      1  0.5446350000000  0.4948320000000  0.4060130000000 1.0
C      1  0.5765460000000  0.5753910000000  0.5120700000000 1.0
C      1  0.5885380000000  0.4589030000000  0.4761330000000 1.0
C      1  0.5378690000000  0.6087670000000  0.4887400000000 1.0
C      1  0.4677610000000  0.5212350000000  0.5175670000000 1.0
C      1  0.5689690000000  0.4368890000000  0.4807460000000 1.0
C      1  0.4353260000000  0.4596920000000  0.5438850000000 1.0
C      1  0.4917330000000  0.5788560000000  0.5174760000000 1.0
C      1  0.4861490000000  0.4919170000000  0.5623950000000 1.0
C      1  0.5616600000000  0.5163360000000  0.5117650000000 1.0
C      1  0.4675460000000  0.5523340000000  0.4565380000000 1.0
C      1  0.4088290000000  0.4855830000000  0.4473180000000 1.0
C      1  0.5469960000000  0.5087670000000  0.5857610000000 1.0
C      1  0.4433640000000  0.5576370000000  0.4410560000000 1.0
C      1  0.4543120000000  0.4011380000000  0.4839500000000 1.0
C      1  0.4190190000000  0.4873940000000  0.5494000000000 1.0
C      1  0.4436610000000  0.5374850000000  0.4201370000000 1.0
C      1  0.5959520000000  0.5314390000000  0.4881900000000 1.0
C      1  0.4443170000000  0.5455590000000  0.5461310000000 1.0
C      1  0.4528530000000  0.4248960000000  0.5763200000000 1.0
C      1  0.5109770000000  0.4864360000000  0.5176690000000 1.0
C      1  0.4704470000000  0.5946810000000  0.4768580000000 1.0
C      1  0.5182200000000  0.4098690000000  0.5461130000000 1.0
C      1  0.4436980000000  0.4143760000000  0.5326480000000 1.0
C      1  0.4474900000000  0.5911690000000  0.5206720000000 1.0
C      1  0.4923840000000  0.4706580000000  0.3989330000000 1.0
C      1  0.5502320000000  0.5843250000000  0.5008250000000 1.0
C      1  0.5160540000000  0.5172240000000  0.5152240000000 1.0
C      1  0.5096020000000  0.4884020000000  0.4379250000000 1.0
C      1  0.5829000000000  0.5003950000000  0.4453160000000 1.0
C      1  0.5767460000000  0.5409720000000  0.5552230000000 1.0
C      1  0.5319740000000  0.4951830000000  0.4766330000000 1.0
C      1  0.5216930000000  0.5548360000000  0.5575130000000 1.0
C      1  0.5553730000000  0.4815280000000  0.5468890000000 1.0
C      1  0.4726510000000  0.5319820000000  0.4205500000000 1.0
C      1  0.4594170000000  0.5273190000000  0.5890550000000 1.0
C      1  0.4144170000000  0.5080090000000  0.5309220000000 1.0
C      1  0.5906960000000  0.5236370000000  0.4604480000000 1.0
C      1  0.4630650000000  0.4459980000000  0.5910650000000 1.0
C      1  0.4200210000000  0.4380370000000  0.4977500000000 1.0
C      1  0.4674130000000  0.4981030000000  0.5851350000000 1.0
C      1  0.4844530000000  0.4435580000000  0.4498660000000 1.0
C      1  0.4920960000000  0.4214660000000  0.5484940000000 1.0
C      1  0.5633830000000  0.4561740000000  0.4336930000000 1.0
C      1  0.4734030000000  0.5981020000000  0.5062460000000 1.0
C      1  0.5051790000000  0.4838980000000  0.4814690000000 1.0
END
