TITL C-4164240-4114-138 -6.44704802315512 125000 -12823.6354674338 0 0 86 (C1) n - 1
REM
REM in /home/nfs/bkarasulu/CARBON/AIRSS/Generating-Clusters/ReaxFF-fromJPCA2015/Units_Real/with-SteepDescent/Only-C1/SD-CG/Try1-3A/FIRE-CG
REM
REM
REM
REM
REM
REM ./C.cell (11c1c37f851c82e70ff6c80c92926a4b)
REM
REM compiler GCC version 9.2.1 20190827 (Red Hat 9.2.1-1)
REM options -cpp -mtune=generic -march=x86-64 -g -O0 -fpre-include=/usr/include/finclude/math-vector-fortran.h
REM seed 537786358 -595291834 1878159168 304097164 -527153665 622379997 -1935149805 -771552319 1131006304 122328424 1691624359 835530976 -870238571 1878148480 -1417245742 -787891891 -1298835707 2108513192 -612421637 -680383552 -1004970559 -624601355 1807318371 -710371334 -690796195 -106005408 1373682834 -1005730163 -1754931627 1780829278 1253221160 -1333633809 1443235073
REM
CELL 1.54180   50.00000   50.00000   50.00000   90.00000   90.00000   90.00000
LATT -1
SFAC C  
C      1  0.4889890000000  0.5241660000000  0.5732360000000 1.0
C      1  0.4429020000000  0.4953050000000  0.5400840000000 1.0
C      1  0.4790250000000  0.4951710000000  0.4265520000000 1.0
C      1  0.5337300000000  0.4351070000000  0.5465940000000 1.0
C      1  0.4733730000000  0.4471350000000  0.4327360000000 1.0
C      1  0.4990130000000  0.5308140000000  0.5171170000000 1.0
C      1  0.5006870000000  0.5665550000000  0.5522020000000 1.0
C      1  0.4501250000000  0.4737370000000  0.4602880000000 1.0
C      1  0.5527580000000  0.5498950000000  0.5439190000000 1.0
C      1  0.4719020000000  0.4314680000000  0.4586890000000 1.0
C      1  0.5318190000000  0.4579540000000  0.5651690000000 1.0
C      1  0.4460090000000  0.5428770000000  0.5481430000000 1.0
C      1  0.4586900000000  0.5144810000000  0.4936960000000 1.0
C      1  0.4171100000000  0.4583990000000  0.5078650000000 1.0
C      1  0.4829740000000  0.5112310000000  0.4740390000000 1.0
C      1  0.5103740000000  0.4335690000000  0.4959550000000 1.0
C      1  0.5628420000000  0.4801410000000  0.5271290000000 1.0
C      1  0.4188880000000  0.5198700000000  0.5097440000000 1.0
C      1  0.5176400000000  0.4365420000000  0.4462150000000 1.0
C      1  0.4934580000000  0.5456420000000  0.4368450000000 1.0
C      1  0.5514560000000  0.4710780000000  0.4299430000000 1.0
C      1  0.4976880000000  0.4968920000000  0.5626240000000 1.0
C      1  0.4606310000000  0.4736200000000  0.4327960000000 1.0
C      1  0.4683250000000  0.4055470000000  0.5498300000000 1.0
C      1  0.4966410000000  0.5940410000000  0.5184620000000 1.0
C      1  0.5366520000000  0.5363910000000  0.5643050000000 1.0
C      1  0.5643940000000  0.5044940000000  0.5433410000000 1.0
C      1  0.4495110000000  0.5359250000000  0.4516040000000 1.0
C      1  0.5695610000000  0.5304760000000  0.5299250000000 1.0
C      1  0.5719420000000  0.5330310000000  0.5010250000000 1.0
C      1  0.5499550000000  0.5510650000000  0.4911500000000 1.0
C      1  0.5015030000000  0.5304650000000  0.4880460000000 1.0
C      1  0.5017430000000  0.4283440000000  0.4702940000000 1.0
C      1  0.5009430000000  0.4513380000000  0.4266180000000 1.0
C      1  0.5189880000000  0.4922230000000  0.5139740000000 1.0
C      1  0.4254590000000  0.5058700000000  0.4853760000000 1.0
C      1  0.4294490000000  0.4451600000000  0.5252810000000 1.0
C      1  0.5439780000000  0.4568780000000  0.4730480000000 1.0
C      1  0.5205850000000  0.4431680000000  0.5206940000000 1.0
C      1  0.5107120000000  0.5776810000000  0.4685190000000 1.0
C      1  0.4255000000000  0.5220500000000  0.4582240000000 1.0
C      1  0.5238000000000  0.4817790000000  0.4678920000000 1.0
C      1  0.4732060000000  0.4673670000000  0.4777810000000 1.0
C      1  0.4451090000000  0.4296470000000  0.4704680000000 1.0
C      1  0.5815690000000  0.5084180000000  0.4882310000000 1.0
C      1  0.4939350000000  0.4848340000000  0.4724580000000 1.0
C      1  0.4551120000000  0.4445970000000  0.5188590000000 1.0
C      1  0.5042950000000  0.4807910000000  0.4230470000000 1.0
C      1  0.4762820000000  0.5210200000000  0.4418150000000 1.0
C      1  0.4715170000000  0.4519110000000  0.5690270000000 1.0
C      1  0.5343370000000  0.4695780000000  0.5229780000000 1.0
C      1  0.4163670000000  0.4745560000000  0.4848950000000 1.0
C      1  0.5610050000000  0.4249790000000  0.5359160000000 1.0
C      1  0.4858210000000  0.5648670000000  0.4575890000000 1.0
C      1  0.5773990000000  0.4821900000000  0.5023520000000 1.0
C      1  0.4514100000000  0.4991040000000  0.5676030000000 1.0
C      1  0.5428910000000  0.5551500000000  0.4402230000000 1.0
C      1  0.5781530000000  0.5013760000000  0.4611770000000 1.0
C      1  0.5214620000000  0.5483780000000  0.4338190000000 1.0
C      1  0.4611870000000  0.5552270000000  0.4713480000000 1.0
C      1  0.4656240000000  0.4945940000000  0.5169610000000 1.0
C      1  0.5256810000000  0.4862460000000  0.5699970000000 1.0
C      1  0.5089280000000  0.5448770000000  0.5707690000000 1.0
C      1  0.5300040000000  0.5295220000000  0.4820940000000 1.0
C      1  0.4605380000000  0.4307200000000  0.5483410000000 1.0
C      1  0.4742300000000  0.4790940000000  0.5732190000000 1.0
C      1  0.4284110000000  0.4551500000000  0.4666430000000 1.0
C      1  0.5692000000000  0.4900800000000  0.4405280000000 1.0
C      1  0.4999190000000  0.5866370000000  0.4912580000000 1.0
C      1  0.5671670000000  0.4568590000000  0.4911360000000 1.0
C      1  0.5398830000000  0.5660930000000  0.5205950000000 1.0
C      1  0.5263190000000  0.5942800000000  0.5226480000000 1.0
C      1  0.4604100000000  0.5271390000000  0.5689170000000 1.0
C      1  0.5402230000000  0.5671760000000  0.4655350000000 1.0
C      1  0.4586160000000  0.5571970000000  0.5253650000000 1.0
C      1  0.5324410000000  0.5017540000000  0.4897990000000 1.0
C      1  0.5448600000000  0.5081720000000  0.5645210000000 1.0
C      1  0.4252860000000  0.5317140000000  0.5322500000000 1.0
C      1  0.4955910000000  0.5034680000000  0.5289720000000 1.0
C      1  0.4786790000000  0.5759160000000  0.5355450000000 1.0
C      1  0.4588410000000  0.5438620000000  0.4981440000000 1.0
C      1  0.5451880000000  0.4463900000000  0.4464730000000 1.0
C      1  0.5709050000000  0.4334320000000  0.5101610000000 1.0
C      1  0.5288770000000  0.4881210000000  0.4368140000000 1.0
C      1  0.5139550000000  0.5525420000000  0.5293020000000 1.0
C      1  0.4674430000000  0.4674020000000  0.5052350000000 1.0
END
