TITL C-4164239-2837-63 18.0068004012376 125000 -18714.0201211144 0 0 125 (C1) n - 1
REM
REM in /home/nfs/bkarasulu/CARBON/AIRSS/Generating-Clusters/ReaxFF-fromJPCA2015/Units_Real/with-SteepDescent/Only-C1/SD-CG/Try1-3A/FIRE-CG
REM
REM
REM
REM
REM
REM ./C.cell (11c1c37f851c82e70ff6c80c92926a4b)
REM
REM compiler GCC version 9.2.1 20190827 (Red Hat 9.2.1-1)
REM options -cpp -mtune=generic -march=x86-64 -g -O0 -fpre-include=/usr/include/finclude/math-vector-fortran.h
REM seed 1004213307 -171682163 1041313943 -1918970725 -1442808588 -1627681381 -1353885889 -56377206 -1061424727 1865360829 589556193 168603258 -549013264 985532540 499864993 130123816 -1513104451 1992510607 -2125105673 473506550 526079223 1820368882 1715482478 -1947440242 41223783 1263114982 -1628422187 -577675971 967126057 1413500638 -1889446636 2092072443 1251402146
REM
CELL 1.54180   50.00000   50.00000   50.00000   90.00000   90.00000   90.00000
LATT -1
SFAC C  
C      1  0.4364760000000  0.4777960000000  0.4404060000000 1.0
C      1  0.3941000000000  0.5095570000000  0.4935830000000 1.0
C      1  0.5078940000000  0.5121910000000  0.5852290000000 1.0
C      1  0.4021160000000  0.5347810000000  0.5078030000000 1.0
C      1  0.5202800000000  0.5150170000000  0.5547480000000 1.0
C      1  0.5120110000000  0.4727010000000  0.5277860000000 1.0
C      1  0.4454820000000  0.4514940000000  0.5750650000000 1.0
C      1  0.5336430000000  0.4841030000000  0.4153080000000 1.0
C      1  0.4154470000000  0.4402240000000  0.4766710000000 1.0
C      1  0.4527120000000  0.4780210000000  0.5743030000000 1.0
C      1  0.5694590000000  0.5075740000000  0.4193010000000 1.0
C      1  0.4382620000000  0.5015790000000  0.5056140000000 1.0
C      1  0.5274790000000  0.5613930000000  0.4332530000000 1.0
C      1  0.5849400000000  0.5245670000000  0.5364920000000 1.0
C      1  0.5656990000000  0.4659820000000  0.4484870000000 1.0
C      1  0.5784170000000  0.5675400000000  0.5099730000000 1.0
C      1  0.4494250000000  0.5213190000000  0.5670810000000 1.0
C      1  0.5459850000000  0.5048020000000  0.5109970000000 1.0
C      1  0.5243430000000  0.5303380000000  0.4737660000000 1.0
C      1  0.5275750000000  0.5653390000000  0.5585280000000 1.0
C      1  0.5421760000000  0.4383430000000  0.5565260000000 1.0
C      1  0.5482040000000  0.5158990000000  0.5687970000000 1.0
C      1  0.5555780000000  0.4639820000000  0.5647810000000 1.0
C      1  0.5788050000000  0.4938620000000  0.5097700000000 1.0
C      1  0.4923760000000  0.4446970000000  0.5641240000000 1.0
C      1  0.4823500000000  0.5374990000000  0.4228840000000 1.0
C      1  0.5119670000000  0.4864850000000  0.4775900000000 1.0
C      1  0.4980980000000  0.5414970000000  0.4725820000000 1.0
C      1  0.4308940000000  0.5750410000000  0.4963490000000 1.0
C      1  0.4549010000000  0.5788990000000  0.5428260000000 1.0
C      1  0.4475840000000  0.4495080000000  0.4383250000000 1.0
C      1  0.4098430000000  0.4847360000000  0.4550450000000 1.0
C      1  0.5788750000000  0.4680060000000  0.5482530000000 1.0
C      1  0.4723240000000  0.5091290000000  0.4165690000000 1.0
C      1  0.4667380000000  0.5421750000000  0.5080030000000 1.0
C      1  0.4056060000000  0.5113100000000  0.4667520000000 1.0
C      1  0.4999160000000  0.4771170000000  0.6060730000000 1.0
C      1  0.5580440000000  0.5775090000000  0.5282620000000 1.0
C      1  0.4124800000000  0.5539690000000  0.4873260000000 1.0
C      1  0.4835160000000  0.5855170000000  0.5437730000000 1.0
C      1  0.5579590000000  0.4256880000000  0.5357730000000 1.0
C      1  0.4349160000000  0.4315570000000  0.4569020000000 1.0
C      1  0.4687700000000  0.5664380000000  0.4478740000000 1.0
C      1  0.5136540000000  0.5959600000000  0.4987350000000 1.0
C      1  0.4962520000000  0.4592660000000  0.5862340000000 1.0
C      1  0.4935770000000  0.4911500000000  0.4281020000000 1.0
C      1  0.5147080000000  0.4281800000000  0.5552470000000 1.0
C      1  0.4192520000000  0.5395280000000  0.5308310000000 1.0
C      1  0.4501990000000  0.4832800000000  0.4697670000000 1.0
C      1  0.5805620000000  0.4439450000000  0.5315020000000 1.0
C      1  0.5629140000000  0.5103810000000  0.4478700000000 1.0
C      1  0.5181870000000  0.4543460000000  0.5056120000000 1.0
C      1  0.5372900000000  0.5770920000000  0.5060070000000 1.0
C      1  0.5186640000000  0.4069800000000  0.5093370000000 1.0
C      1  0.4262670000000  0.5181420000000  0.5489380000000 1.0
C      1  0.4687400000000  0.5048580000000  0.4753470000000 1.0
C      1  0.5152690000000  0.5782610000000  0.4523340000000 1.0
C      1  0.5550180000000  0.5630740000000  0.5540530000000 1.0
C      1  0.5663880000000  0.5348870000000  0.5565730000000 1.0
C      1  0.4706680000000  0.4845350000000  0.5525210000000 1.0
C      1  0.4006890000000  0.4656240000000  0.4744620000000 1.0
C      1  0.5612060000000  0.5734760000000  0.4867210000000 1.0
C      1  0.4447010000000  0.4297810000000  0.5634260000000 1.0
C      1  0.4432130000000  0.4333380000000  0.4852930000000 1.0
C      1  0.5869080000000  0.5396080000000  0.5102430000000 1.0
C      1  0.4855700000000  0.4660600000000  0.5377790000000 1.0
C      1  0.4849420000000  0.4950930000000  0.4984540000000 1.0
C      1  0.5193130000000  0.4588170000000  0.4214980000000 1.0
C      1  0.5050060000000  0.5376200000000  0.5373050000000 1.0
C      1  0.4495880000000  0.5253590000000  0.4874670000000 1.0
C      1  0.4748120000000  0.4483600000000  0.4392230000000 1.0
C      1  0.4838670000000  0.5029370000000  0.5985310000000 1.0
C      1  0.5484210000000  0.4884590000000  0.5799730000000 1.0
C      1  0.4462520000000  0.4364660000000  0.5366560000000 1.0
C      1  0.5609550000000  0.4790470000000  0.4220300000000 1.0
C      1  0.4689730000000  0.4463300000000  0.4899100000000 1.0
C      1  0.4714990000000  0.4238700000000  0.5327080000000 1.0
C      1  0.5175580000000  0.5484290000000  0.5123300000000 1.0
C      1  0.5669000000000  0.5539840000000  0.4658370000000 1.0
C      1  0.4925230000000  0.5518560000000  0.4974850000000 1.0
C      1  0.5342250000000  0.5295430000000  0.4999000000000 1.0
C      1  0.5146890000000  0.4114290000000  0.4824970000000 1.0
C      1  0.5841340000000  0.4447190000000  0.5024630000000 1.0
C      1  0.5010980000000  0.5621130000000  0.5552520000000 1.0
C      1  0.4689710000000  0.5111380000000  0.5474860000000 1.0
C      1  0.4321450000000  0.4946530000000  0.5317170000000 1.0
C      1  0.5092240000000  0.4202920000000  0.4569310000000 1.0
C      1  0.5140540000000  0.4571910000000  0.4762360000000 1.0
C      1  0.4881110000000  0.4428320000000  0.4645080000000 1.0
C      1  0.5849900000000  0.4798570000000  0.4656180000000 1.0
C      1  0.4365160000000  0.4774430000000  0.4942270000000 1.0
C      1  0.4505530000000  0.5849820000000  0.4794390000000 1.0
C      1  0.5542810000000  0.5524600000000  0.4387940000000 1.0
C      1  0.5398100000000  0.4854530000000  0.4896240000000 1.0
C      1  0.5896640000000  0.4722600000000  0.4933240000000 1.0
C      1  0.4970130000000  0.5935340000000  0.5201210000000 1.0
C      1  0.5588910000000  0.4339270000000  0.4897400000000 1.0
C      1  0.4561340000000  0.5037140000000  0.5892200000000 1.0
C      1  0.5268120000000  0.4949690000000  0.5336860000000 1.0
C      1  0.4723660000000  0.5907320000000  0.4621220000000 1.0
C      1  0.5031600000000  0.5939640000000  0.4703200000000 1.0
C      1  0.3909340000000  0.4805010000000  0.4987420000000 1.0
C      1  0.5527260000000  0.5326580000000  0.4154230000000 1.0
C      1  0.5880860000000  0.4944470000000  0.5365940000000 1.0
C      1  0.4991800000000  0.4164370000000  0.5329790000000 1.0
C      1  0.5452270000000  0.4482130000000  0.4603680000000 1.0
C      1  0.4818160000000  0.5206710000000  0.5231060000000 1.0
C      1  0.5285900000000  0.5158490000000  0.4116970000000 1.0
C      1  0.4757240000000  0.5393320000000  0.4521040000000 1.0
C      1  0.5857880000000  0.5094730000000  0.4657150000000 1.0
C      1  0.5346500000000  0.5140400000000  0.4527820000000 1.0
C      1  0.4413270000000  0.5605680000000  0.5230230000000 1.0
C      1  0.5462270000000  0.4597470000000  0.5009550000000 1.0
C      1  0.5253490000000  0.4929800000000  0.5978610000000 1.0
C      1  0.5463900000000  0.4152870000000  0.5106810000000 1.0
C      1  0.4459760000000  0.4992300000000  0.4191690000000 1.0
C      1  0.5822200000000  0.5336990000000  0.4818390000000 1.0
C      1  0.5117820000000  0.4973430000000  0.4495490000000 1.0
C      1  0.4244850000000  0.5335270000000  0.4709450000000 1.0
C      1  0.5275700000000  0.4368680000000  0.4404690000000 1.0
C      1  0.4759070000000  0.4683780000000  0.5074430000000 1.0
C      1  0.3987340000000  0.4648480000000  0.5232080000000 1.0
C      1  0.4905480000000  0.4628530000000  0.4219060000000 1.0
C      1  0.5111280000000  0.5377950000000  0.4189600000000 1.0
C      1  0.4286290000000  0.4644960000000  0.5253650000000 1.0
END
