TITL C-4164234-2335-302 14.9679644426423 125000 -20214.8125787993 0 0 136 (C1) n - 1
REM
REM in /home/nfs/bkarasulu/CARBON/AIRSS/Generating-Clusters/ReaxFF-fromJPCA2015/Units_Real/with-SteepDescent/Only-C1/SD-CG/Try1-3A/FIRE-CG
REM
REM
REM
REM
REM
REM ./C.cell (11c1c37f851c82e70ff6c80c92926a4b)
REM
REM compiler GCC version 9.2.1 20190827 (Red Hat 9.2.1-1)
REM options -cpp -mtune=generic -march=x86-64 -g -O0 -fpre-include=/usr/include/finclude/math-vector-fortran.h
REM seed -956625475 -1476179839 -212115306 1966898177 -1549589871 -1092483083 1515065840 -1471575009 65275845 -2015623938 -1893553119 -816750223 1366285761 -1635974144 -964929747 -538739739 -331483909 895935502 2005385882 -1821570163 -1964315553 1433455686 -730753897 -1282071990 1020127364 -573564444 -68323146 -473939089 14743423 1487947969 1262242593 -625713706 -177650412
REM
CELL 1.54180   50.00000   50.00000   50.00000   90.00000   90.00000   90.00000
LATT -1
SFAC C  
C      1  0.4995590000000  0.5335350000000  0.4378220000000 1.0
C      1  0.5185890000000  0.5473500000000  0.5527950000000 1.0
C      1  0.5467940000000  0.5816780000000  0.5068520000000 1.0
C      1  0.5242460000000  0.4981100000000  0.5909800000000 1.0
C      1  0.4910570000000  0.5748100000000  0.4654920000000 1.0
C      1  0.5107620000000  0.4159120000000  0.5451680000000 1.0
C      1  0.5113480000000  0.4916240000000  0.5155630000000 1.0
C      1  0.4930760000000  0.4351820000000  0.4327810000000 1.0
C      1  0.5246310000000  0.4256080000000  0.5680670000000 1.0
C      1  0.5403180000000  0.4989770000000  0.4360880000000 1.0
C      1  0.5061380000000  0.5527890000000  0.4570430000000 1.0
C      1  0.5980680000000  0.4700860000000  0.5400970000000 1.0
C      1  0.5132780000000  0.6130360000000  0.4922840000000 1.0
C      1  0.4527080000000  0.5383680000000  0.4199770000000 1.0
C      1  0.5106250000000  0.5969520000000  0.5630840000000 1.0
C      1  0.4820310000000  0.5620880000000  0.4914630000000 1.0
C      1  0.5547170000000  0.5538840000000  0.4688370000000 1.0
C      1  0.4455670000000  0.5616560000000  0.4371020000000 1.0
C      1  0.5603070000000  0.4187270000000  0.5061010000000 1.0
C      1  0.4869970000000  0.4593090000000  0.4471060000000 1.0
C      1  0.5934180000000  0.5320070000000  0.5037210000000 1.0
C      1  0.4491370000000  0.4854970000000  0.4119240000000 1.0
C      1  0.5265100000000  0.4019920000000  0.4729670000000 1.0
C      1  0.4526410000000  0.4278850000000  0.4631240000000 1.0
C      1  0.4182750000000  0.4672280000000  0.4699370000000 1.0
C      1  0.4809870000000  0.5401070000000  0.4128840000000 1.0
C      1  0.5946730000000  0.4934440000000  0.4593050000000 1.0
C      1  0.4051310000000  0.5181340000000  0.4787180000000 1.0
C      1  0.4395050000000  0.5624340000000  0.5163770000000 1.0
C      1  0.5297960000000  0.5948570000000  0.5417760000000 1.0
C      1  0.4694820000000  0.5063240000000  0.5479650000000 1.0
C      1  0.4899150000000  0.5546890000000  0.5400320000000 1.0
C      1  0.4507780000000  0.6092050000000  0.5191210000000 1.0
C      1  0.4192210000000  0.4955330000000  0.4644600000000 1.0
C      1  0.5250930000000  0.4971760000000  0.4626970000000 1.0
C      1  0.5192700000000  0.4701170000000  0.4724560000000 1.0
C      1  0.4610870000000  0.5795160000000  0.4538250000000 1.0
C      1  0.4959610000000  0.4498810000000  0.5879510000000 1.0
C      1  0.5813320000000  0.5159060000000  0.4499570000000 1.0
C      1  0.4355120000000  0.4386880000000  0.5370310000000 1.0
C      1  0.4351410000000  0.5489480000000  0.5443250000000 1.0
C      1  0.4872840000000  0.4359790000000  0.5334650000000 1.0
C      1  0.4466340000000  0.5015250000000  0.4552130000000 1.0
C      1  0.4118610000000  0.5419990000000  0.4671450000000 1.0
C      1  0.5709840000000  0.5659440000000  0.5139660000000 1.0
C      1  0.5040980000000  0.5483180000000  0.3948550000000 1.0
C      1  0.5325170000000  0.4738770000000  0.5524990000000 1.0
C      1  0.5259950000000  0.5430020000000  0.4756420000000 1.0
C      1  0.5263080000000  0.4462700000000  0.5093610000000 1.0
C      1  0.4954770000000  0.5080990000000  0.4526360000000 1.0
C      1  0.5955670000000  0.5005810000000  0.4924050000000 1.0
C      1  0.4823550000000  0.5911490000000  0.5636560000000 1.0
C      1  0.4679920000000  0.5029310000000  0.4961970000000 1.0
C      1  0.4278640000000  0.4390020000000  0.5089780000000 1.0
C      1  0.4587440000000  0.4218960000000  0.5331380000000 1.0
C      1  0.4798150000000  0.4858690000000  0.4072380000000 1.0
C      1  0.5451370000000  0.5141950000000  0.5198190000000 1.0
C      1  0.5397920000000  0.4726240000000  0.5929730000000 1.0
C      1  0.5481950000000  0.5251800000000  0.4244510000000 1.0
C      1  0.5434780000000  0.5815250000000  0.4777570000000 1.0
C      1  0.5151300000000  0.4005880000000  0.5207590000000 1.0
C      1  0.5231030000000  0.5383500000000  0.4156510000000 1.0
C      1  0.5368990000000  0.4020990000000  0.5022200000000 1.0
C      1  0.5448200000000  0.4329480000000  0.4337190000000 1.0
C      1  0.4521610000000  0.4974670000000  0.5882990000000 1.0
C      1  0.4481770000000  0.5469710000000  0.5713760000000 1.0
C      1  0.4895960000000  0.4852680000000  0.4353860000000 1.0
C      1  0.4603650000000  0.4788030000000  0.5094830000000 1.0
C      1  0.4417090000000  0.4656260000000  0.4297630000000 1.0
C      1  0.4451740000000  0.5203890000000  0.5402600000000 1.0
C      1  0.5240380000000  0.4474110000000  0.5903990000000 1.0
C      1  0.4404330000000  0.5376370000000  0.5023300000000 1.0
C      1  0.5654560000000  0.5078840000000  0.5381920000000 1.0
C      1  0.4400210000000  0.5872750000000  0.5018220000000 1.0
C      1  0.4781730000000  0.5595950000000  0.5676200000000 1.0
C      1  0.5003720000000  0.4694090000000  0.3988850000000 1.0
C      1  0.5861860000000  0.5434790000000  0.5292560000000 1.0
C      1  0.4150430000000  0.5165740000000  0.5078680000000 1.0
C      1  0.5663120000000  0.5380250000000  0.4438190000000 1.0
C      1  0.6009510000000  0.4756310000000  0.5105670000000 1.0
C      1  0.4140430000000  0.4872350000000  0.5162830000000 1.0
C      1  0.4376690000000  0.5219330000000  0.5811360000000 1.0
C      1  0.5869910000000  0.4513270000000  0.5023830000000 1.0
C      1  0.5670230000000  0.5014670000000  0.4883550000000 1.0
C      1  0.4987090000000  0.4397790000000  0.5053190000000 1.0
C      1  0.4624150000000  0.5411740000000  0.4856570000000 1.0
C      1  0.5187530000000  0.5903960000000  0.5160990000000 1.0
C      1  0.5257280000000  0.4706660000000  0.5245490000000 1.0
C      1  0.5787020000000  0.5270720000000  0.5528860000000 1.0
C      1  0.4908310000000  0.4602500000000  0.4778460000000 1.0
C      1  0.5033850000000  0.5448730000000  0.5784330000000 1.0
C      1  0.5738140000000  0.4547960000000  0.5476060000000 1.0
C      1  0.5632090000000  0.4569340000000  0.4336320000000 1.0
C      1  0.5848590000000  0.4469480000000  0.4738530000000 1.0
C      1  0.5375390000000  0.4528690000000  0.4851950000000 1.0
C      1  0.4442300000000  0.4217250000000  0.4901710000000 1.0
C      1  0.4705920000000  0.4530520000000  0.5767950000000 1.0
C      1  0.5265840000000  0.4604380000000  0.4027490000000 1.0
C      1  0.4621040000000  0.4082750000000  0.5083460000000 1.0
C      1  0.4978010000000  0.5113680000000  0.5070980000000 1.0
C      1  0.4444580000000  0.5105760000000  0.4271040000000 1.0
C      1  0.5791310000000  0.5529120000000  0.4893340000000 1.0
C      1  0.4460350000000  0.4697860000000  0.5798740000000 1.0
C      1  0.4216000000000  0.5652620000000  0.4559840000000 1.0
C      1  0.4206230000000  0.5116530000000  0.5563160000000 1.0
C      1  0.4304580000000  0.4613560000000  0.5566390000000 1.0
C      1  0.5170880000000  0.5940640000000  0.4716620000000 1.0
C      1  0.5471760000000  0.4761430000000  0.4195220000000 1.0
C      1  0.5440700000000  0.5048780000000  0.4904530000000 1.0
C      1  0.5586720000000  0.4745070000000  0.5670060000000 1.0
C      1  0.4350090000000  0.4492690000000  0.4515620000000 1.0
C      1  0.5281340000000  0.5740710000000  0.5617560000000 1.0
C      1  0.4825360000000  0.4588100000000  0.5499810000000 1.0
C      1  0.4061100000000  0.5322120000000  0.5353350000000 1.0
C      1  0.5642010000000  0.4426610000000  0.5222220000000 1.0
C      1  0.4658360000000  0.6044810000000  0.5443080000000 1.0
C      1  0.4795340000000  0.4186660000000  0.4532750000000 1.0
C      1  0.4691310000000  0.5160910000000  0.4694230000000 1.0
C      1  0.4157490000000  0.4637410000000  0.4986860000000 1.0
C      1  0.5165640000000  0.4918930000000  0.5652980000000 1.0
C      1  0.5140090000000  0.5366480000000  0.5012220000000 1.0
C      1  0.4394710000000  0.5850380000000  0.4719270000000 1.0
C      1  0.4167190000000  0.4835140000000  0.5445200000000 1.0
C      1  0.4713100000000  0.4804310000000  0.5356280000000 1.0
C      1  0.5588780000000  0.4314570000000  0.4775430000000 1.0
C      1  0.5840070000000  0.4659940000000  0.4527420000000 1.0
C      1  0.4930420000000  0.5700340000000  0.5161470000000 1.0
C      1  0.5281890000000  0.5343130000000  0.5259230000000 1.0
C      1  0.4785290000000  0.5045870000000  0.5765080000000 1.0
C      1  0.5004960000000  0.5187270000000  0.5907470000000 1.0
C      1  0.4921350000000  0.4076130000000  0.5007640000000 1.0
C      1  0.5456520000000  0.4143850000000  0.4554590000000 1.0
C      1  0.5195070000000  0.4367620000000  0.4187600000000 1.0
C      1  0.4978950000000  0.4041450000000  0.4711700000000 1.0
C      1  0.4662250000000  0.4771290000000  0.4817250000000 1.0
C      1  0.5689440000000  0.5029680000000  0.5647610000000 1.0
END
