TITL C-4164245-3996-519 12.2767113836289 125000 -13929.2272762032 0 0 93 (C1) n - 1
REM
REM in /home/nfs/bkarasulu/CARBON/AIRSS/Generating-Clusters/ReaxFF-fromJPCA2015/Units_Real/with-SteepDescent/Only-C1/SD-CG/Try1-3A/FIRE-CG
REM
REM
REM
REM
REM
REM ./C.cell (11c1c37f851c82e70ff6c80c92926a4b)
REM
REM compiler GCC version 9.2.1 20190827 (Red Hat 9.2.1-1)
REM options -cpp -mtune=generic -march=x86-64 -g -O0 -fpre-include=/usr/include/finclude/math-vector-fortran.h
REM seed 1022821112 -1602779063 -2106027030 784528465 90372468 -527518920 839018765 -467992295 -294019515 638060091 -1960845895 1395170981 -1462423387 1450527356 -1543998690 -1509623840 904725018 603953008 758025610 -2035507154 440897205 -1928860240 -1273821300 -849652118 -792416547 -689782630 2131843614 -1297432728 42564803 2008246492 -1027647305 -1724425138 490635857
REM
CELL 1.54180   50.00000   50.00000   50.00000   90.00000   90.00000   90.00000
LATT -1
SFAC C  
C      1  0.4324090000000  0.5351490000000  0.5205820000000 1.0
C      1  0.5320180000000  0.4787450000000  0.5520850000000 1.0
C      1  0.5688240000000  0.4813170000000  0.4891190000000 1.0
C      1  0.4484040000000  0.4327730000000  0.5263300000000 1.0
C      1  0.4883760000000  0.5128650000000  0.4746010000000 1.0
C      1  0.4882790000000  0.5679980000000  0.5307840000000 1.0
C      1  0.4497650000000  0.4823350000000  0.5750440000000 1.0
C      1  0.5040170000000  0.4434790000000  0.4354530000000 1.0
C      1  0.5320550000000  0.5665120000000  0.4661360000000 1.0
C      1  0.5120110000000  0.5832350000000  0.5139010000000 1.0
C      1  0.5484910000000  0.4629310000000  0.4334920000000 1.0
C      1  0.5071350000000  0.4908670000000  0.4336940000000 1.0
C      1  0.5424990000000  0.4219680000000  0.5126890000000 1.0
C      1  0.4491260000000  0.4796750000000  0.5266780000000 1.0
C      1  0.5415700000000  0.5453960000000  0.4853440000000 1.0
C      1  0.4695520000000  0.5596650000000  0.4841730000000 1.0
C      1  0.5753120000000  0.5361720000000  0.4561210000000 1.0
C      1  0.5393090000000  0.4298030000000  0.5418170000000 1.0
C      1  0.4162320000000  0.4938660000000  0.4880980000000 1.0
C      1  0.4616750000000  0.5674360000000  0.5454600000000 1.0
C      1  0.4758890000000  0.5179180000000  0.6057250000000 1.0
C      1  0.5004550000000  0.5237460000000  0.5892000000000 1.0
C      1  0.4920420000000  0.4515070000000  0.5430040000000 1.0
C      1  0.4677800000000  0.4364760000000  0.5498010000000 1.0
C      1  0.4286140000000  0.5872180000000  0.5121460000000 1.0
C      1  0.5144860000000  0.4807580000000  0.4853300000000 1.0
C      1  0.5384360000000  0.4421740000000  0.4703020000000 1.0
C      1  0.5581960000000  0.5591840000000  0.4483510000000 1.0
C      1  0.4858340000000  0.5822950000000  0.4742750000000 1.0
C      1  0.4432110000000  0.5251840000000  0.5440460000000 1.0
C      1  0.4584000000000  0.5451780000000  0.5647920000000 1.0
C      1  0.5362780000000  0.5635610000000  0.5554800000000 1.0
C      1  0.5124430000000  0.5636820000000  0.4418530000000 1.0
C      1  0.4992470000000  0.4145810000000  0.4785670000000 1.0
C      1  0.5666280000000  0.5105420000000  0.4427890000000 1.0
C      1  0.4812140000000  0.4755430000000  0.5239310000000 1.0
C      1  0.5148430000000  0.4279560000000  0.4573820000000 1.0
C      1  0.5597840000000  0.4864490000000  0.5529080000000 1.0
C      1  0.4859470000000  0.5757520000000  0.4453580000000 1.0
C      1  0.5676060000000  0.4352610000000  0.4994380000000 1.0
C      1  0.4259340000000  0.4986810000000  0.4603820000000 1.0
C      1  0.5780350000000  0.4670750000000  0.5391430000000 1.0
C      1  0.4367560000000  0.4500430000000  0.4534940000000 1.0
C      1  0.5780430000000  0.4597490000000  0.5100740000000 1.0
C      1  0.4525210000000  0.5020890000000  0.5978420000000 1.0
C      1  0.4757750000000  0.4507930000000  0.4362060000000 1.0
C      1  0.5745380000000  0.5091250000000  0.4996020000000 1.0
C      1  0.4732860000000  0.5497670000000  0.4379410000000 1.0
C      1  0.4668130000000  0.4794500000000  0.4381630000000 1.0
C      1  0.5101990000000  0.4987680000000  0.4621760000000 1.0
C      1  0.5397790000000  0.4667280000000  0.4842940000000 1.0
C      1  0.4378180000000  0.4773780000000  0.4427660000000 1.0
C      1  0.4593730000000  0.4322170000000  0.4521720000000 1.0
C      1  0.5167820000000  0.5035000000000  0.5424490000000 1.0
C      1  0.5201950000000  0.4515640000000  0.5500790000000 1.0
C      1  0.5670270000000  0.4364090000000  0.4703640000000 1.0
C      1  0.5162980000000  0.5156510000000  0.4216560000000 1.0
C      1  0.4654830000000  0.4724470000000  0.4840960000000 1.0
C      1  0.5123220000000  0.5839430000000  0.4857360000000 1.0
C      1  0.5062620000000  0.5612500000000  0.5557720000000 1.0
C      1  0.4247810000000  0.5217880000000  0.4958640000000 1.0
C      1  0.5358850000000  0.5444010000000  0.5136860000000 1.0
C      1  0.5460860000000  0.5182250000000  0.4213320000000 1.0
C      1  0.4190500000000  0.4674370000000  0.5003050000000 1.0
C      1  0.5520800000000  0.5454340000000  0.4244470000000 1.0
C      1  0.4806990000000  0.5474060000000  0.5078670000000 1.0
C      1  0.5352890000000  0.5713320000000  0.5263850000000 1.0
C      1  0.5615090000000  0.5166020000000  0.5485220000000 1.0
C      1  0.4690390000000  0.4926820000000  0.4648400000000 1.0
C      1  0.4312410000000  0.4571260000000  0.5248150000000 1.0
C      1  0.4428810000000  0.4966480000000  0.5492960000000 1.0
C      1  0.4602370000000  0.4573130000000  0.5676010000000 1.0
C      1  0.4348010000000  0.5260310000000  0.4679000000000 1.0
C      1  0.4899240000000  0.5463470000000  0.5731960000000 1.0
C      1  0.5694370000000  0.5341350000000  0.4851780000000 1.0
C      1  0.5107890000000  0.5094250000000  0.5685180000000 1.0
C      1  0.5717820000000  0.4578490000000  0.4480770000000 1.0
C      1  0.4573180000000  0.5441240000000  0.4618380000000 1.0
C      1  0.5010610000000  0.5396600000000  0.4298580000000 1.0
C      1  0.4520930000000  0.4270090000000  0.4986800000000 1.0
C      1  0.4888480000000  0.5204260000000  0.5038000000000 1.0
C      1  0.5739160000000  0.4857650000000  0.4560090000000 1.0
C      1  0.4949340000000  0.5007520000000  0.5244850000000 1.0
C      1  0.5623890000000  0.4449850000000  0.5468880000000 1.0
C      1  0.4694120000000  0.4194570000000  0.4773220000000 1.0
C      1  0.5217460000000  0.4653630000000  0.4255370000000 1.0
C      1  0.5397100000000  0.5195920000000  0.5287510000000 1.0
C      1  0.4413850000000  0.4535030000000  0.4840270000000 1.0
C      1  0.4380770000000  0.5670060000000  0.5266050000000 1.0
C      1  0.5196290000000  0.4170620000000  0.4979870000000 1.0
C      1  0.4896360000000  0.4696560000000  0.4971810000000 1.0
C      1  0.4535110000000  0.5305440000000  0.5928990000000 1.0
C      1  0.5531930000000  0.5411380000000  0.5596180000000 1.0
END
