TITL C-4164234-2335-283 -6.82280715836613 125000 -10031.5917162416 0 0 68 (C1) n - 1
REM
REM in /home/nfs/bkarasulu/CARBON/AIRSS/Generating-Clusters/ReaxFF-fromJPCA2015/Units_Real/with-SteepDescent/Only-C1/SD-CG/Try1-3A/FIRE-CG
REM
REM
REM
REM
REM
REM ./C.cell (11c1c37f851c82e70ff6c80c92926a4b)
REM
REM compiler GCC version 9.2.1 20190827 (Red Hat 9.2.1-1)
REM options -cpp -mtune=generic -march=x86-64 -g -O0 -fpre-include=/usr/include/finclude/math-vector-fortran.h
REM seed -1192779702 1921521746 37725242 -1369884372 1006016589 -1871323425 1896708310 2097727160 418263903 541840221 -242759371 -1704806950 -1312610504 662389464 1942188722 1227210487 365112847 -1399605196 -627520926 518947348 -533400233 -1749254149 -1046706255 1097903996 -624583739 -628854411 1107450578 -2057957451 842504241 1545746518 -1527253277 -756551429 327618220
REM
CELL 1.54180   50.00000   50.00000   50.00000   90.00000   90.00000   90.00000
LATT -1
SFAC C  
C      1  0.4965420000000  0.5201830000000  0.5096460000000 1.0
C      1  0.5208030000000  0.5065650000000  0.5801310000000 1.0
C      1  0.4917640000000  0.4318920000000  0.5380970000000 1.0
C      1  0.4897760000000  0.5756880000000  0.4772150000000 1.0
C      1  0.4633090000000  0.4571780000000  0.4723150000000 1.0
C      1  0.5026970000000  0.5555640000000  0.5619320000000 1.0
C      1  0.4634960000000  0.5684200000000  0.4813510000000 1.0
C      1  0.4608960000000  0.5154630000000  0.4360210000000 1.0
C      1  0.4424120000000  0.5038130000000  0.4620030000000 1.0
C      1  0.5531630000000  0.5210130000000  0.5430470000000 1.0
C      1  0.4288240000000  0.4779450000000  0.4467560000000 1.0
C      1  0.5602410000000  0.4522330000000  0.5109350000000 1.0
C      1  0.5236520000000  0.4532320000000  0.4477390000000 1.0
C      1  0.4909170000000  0.5840760000000  0.5084800000000 1.0
C      1  0.4356290000000  0.5347630000000  0.5071530000000 1.0
C      1  0.5571470000000  0.5387930000000  0.4328130000000 1.0
C      1  0.4888250000000  0.4529570000000  0.4885300000000 1.0
C      1  0.5352220000000  0.5182380000000  0.4734540000000 1.0
C      1  0.4677540000000  0.5724810000000  0.5219760000000 1.0
C      1  0.4751510000000  0.5527010000000  0.5453160000000 1.0
C      1  0.5101770000000  0.5321730000000  0.5731540000000 1.0
C      1  0.4498900000000  0.5384840000000  0.5574650000000 1.0
C      1  0.5452780000000  0.5006130000000  0.5629240000000 1.0
C      1  0.5058400000000  0.5440150000000  0.4368290000000 1.0
C      1  0.4596910000000  0.4865820000000  0.4817220000000 1.0
C      1  0.5153670000000  0.5864300000000  0.5248200000000 1.0
C      1  0.4917170000000  0.4988620000000  0.4902820000000 1.0
C      1  0.5096790000000  0.5594490000000  0.4629000000000 1.0
C      1  0.4958590000000  0.4938850000000  0.5735430000000 1.0
C      1  0.5126180000000  0.4993660000000  0.4695770000000 1.0
C      1  0.5221440000000  0.5358400000000  0.5077030000000 1.0
C      1  0.5624430000000  0.5177060000000  0.4533240000000 1.0
C      1  0.4407580000000  0.4883720000000  0.5303640000000 1.0
C      1  0.5296980000000  0.5273490000000  0.4265490000000 1.0
C      1  0.4470170000000  0.5620520000000  0.5034190000000 1.0
C      1  0.5264090000000  0.5451480000000  0.4799340000000 1.0
C      1  0.4289450000000  0.5148650000000  0.4878720000000 1.0
C      1  0.5628270000000  0.4766340000000  0.4636120000000 1.0
C      1  0.5620670000000  0.4642440000000  0.4861270000000 1.0
C      1  0.4632400000000  0.4409520000000  0.5359190000000 1.0
C      1  0.5252120000000  0.5667780000000  0.5453240000000 1.0
C      1  0.5393860000000  0.4364510000000  0.5255790000000 1.0
C      1  0.5046040000000  0.4285050000000  0.4898280000000 1.0
C      1  0.5371080000000  0.4495820000000  0.5511070000000 1.0
C      1  0.4777670000000  0.5271020000000  0.5283560000000 1.0
C      1  0.5156960000000  0.4287730000000  0.4384700000000 1.0
C      1  0.5155320000000  0.4822710000000  0.4467280000000 1.0
C      1  0.5653270000000  0.4770280000000  0.5264160000000 1.0
C      1  0.4646670000000  0.4884020000000  0.4301050000000 1.0
C      1  0.4422100000000  0.4349310000000  0.4858390000000 1.0
C      1  0.5215060000000  0.4276210000000  0.4658520000000 1.0
C      1  0.5330210000000  0.4980020000000  0.4295020000000 1.0
C      1  0.5354700000000  0.5099140000000  0.5018220000000 1.0
C      1  0.4475680000000  0.5205460000000  0.5319120000000 1.0
C      1  0.4547080000000  0.4645680000000  0.4421640000000 1.0
C      1  0.5391580000000  0.5444460000000  0.5336710000000 1.0
C      1  0.5128050000000  0.4260650000000  0.5181370000000 1.0
C      1  0.4547450000000  0.4683440000000  0.5450000000000 1.0
C      1  0.4772010000000  0.4869810000000  0.5534820000000 1.0
C      1  0.5604700000000  0.4916190000000  0.4404010000000 1.0
C      1  0.4508330000000  0.4356540000000  0.5118610000000 1.0
C      1  0.4962400000000  0.4738510000000  0.5072010000000 1.0
C      1  0.5582750000000  0.5044930000000  0.5188780000000 1.0
C      1  0.4996730000000  0.4759690000000  0.5360100000000 1.0
C      1  0.4369240000000  0.4899110000000  0.5017820000000 1.0
C      1  0.4833140000000  0.5297200000000  0.4364230000000 1.0
C      1  0.5077080000000  0.4516540000000  0.5519450000000 1.0
C      1  0.5529920000000  0.4746010000000  0.5532550000000 1.0
END
