TITL C-4164241-3639-513 -8.6860754999806 125000 -14065.2927303859 0 0 93 (C1) n - 1
REM
REM in /home/nfs/bkarasulu/CARBON/AIRSS/Generating-Clusters/ReaxFF-fromJPCA2015/Units_Real/with-SteepDescent/Only-C1/SD-CG/Try1-3A/FIRE-CG
REM
REM
REM
REM
REM
REM ./C.cell (11c1c37f851c82e70ff6c80c92926a4b)
REM
REM compiler GCC version 9.2.1 20190827 (Red Hat 9.2.1-1)
REM options -cpp -mtune=generic -march=x86-64 -g -O0 -fpre-include=/usr/include/finclude/math-vector-fortran.h
REM seed 1533170125 2140962607 -1020573257 -617072708 -701122013 1772540922 -1327557046 260784020 1615326452 829424651 1429030015 -1651528274 -1552588091 -952381891 1357024886 -231149149 831651562 -52627328 73039885 -261041898 1464389373 -320577539 1188453477 -2116176685 587790753 1739976861 -658757110 -1801266880 -1532421658 728139190 -1491219516 63841678 -1282896010
REM
CELL 1.54180   50.00000   50.00000   50.00000   90.00000   90.00000   90.00000
LATT -1
SFAC C  
C      1  0.4913810000000  0.5503800000000  0.5441970000000 1.0
C      1  0.5851220000000  0.5117790000000  0.5395030000000 1.0
C      1  0.4748500000000  0.4746130000000  0.4152930000000 1.0
C      1  0.4603990000000  0.5706350000000  0.5146070000000 1.0
C      1  0.5376090000000  0.5358670000000  0.4249770000000 1.0
C      1  0.5427860000000  0.4542480000000  0.4729140000000 1.0
C      1  0.5325800000000  0.4434380000000  0.5412450000000 1.0
C      1  0.4421180000000  0.4746230000000  0.4454030000000 1.0
C      1  0.4860040000000  0.4761650000000  0.5749650000000 1.0
C      1  0.5336940000000  0.4553080000000  0.4432640000000 1.0
C      1  0.4955770000000  0.4893290000000  0.4050440000000 1.0
C      1  0.5693510000000  0.4655600000000  0.4833130000000 1.0
C      1  0.4995210000000  0.5833190000000  0.5033930000000 1.0
C      1  0.5206220000000  0.5202640000000  0.4123650000000 1.0
C      1  0.5592640000000  0.5579930000000  0.5200170000000 1.0
C      1  0.4775820000000  0.5078700000000  0.4705710000000 1.0
C      1  0.4288110000000  0.5154020000000  0.5533160000000 1.0
C      1  0.5420110000000  0.4789330000000  0.4289990000000 1.0
C      1  0.5624950000000  0.4958980000000  0.4411400000000 1.0
C      1  0.4770540000000  0.4441550000000  0.5200560000000 1.0
C      1  0.5616670000000  0.5244200000000  0.4352770000000 1.0
C      1  0.4673880000000  0.5452850000000  0.4437970000000 1.0
C      1  0.5348600000000  0.5657090000000  0.5377770000000 1.0
C      1  0.4152030000000  0.5220640000000  0.5287430000000 1.0
C      1  0.4771400000000  0.4815480000000  0.4822120000000 1.0
C      1  0.4708530000000  0.5258600000000  0.4922740000000 1.0
C      1  0.4977190000000  0.5162860000000  0.5828120000000 1.0
C      1  0.5086550000000  0.5724120000000  0.5290720000000 1.0
C      1  0.5244430000000  0.4916620000000  0.4084970000000 1.0
C      1  0.5135370000000  0.5697490000000  0.4560570000000 1.0
C      1  0.5581970000000  0.4755860000000  0.5616900000000 1.0
C      1  0.4519790000000  0.4277650000000  0.4621690000000 1.0
C      1  0.5008840000000  0.5296320000000  0.5204820000000 1.0
C      1  0.5330660000000  0.4745030000000  0.5770560000000 1.0
C      1  0.5636940000000  0.5482470000000  0.4532100000000 1.0
C      1  0.4544070000000  0.4477910000000  0.4429910000000 1.0
C      1  0.4570240000000  0.4925710000000  0.4293860000000 1.0
C      1  0.5690100000000  0.5298060000000  0.5215590000000 1.0
C      1  0.4730420000000  0.5170380000000  0.4389880000000 1.0
C      1  0.4712070000000  0.5769170000000  0.4912490000000 1.0
C      1  0.5229910000000  0.5018710000000  0.5802080000000 1.0
C      1  0.4414400000000  0.5325650000000  0.4883270000000 1.0
C      1  0.5363310000000  0.5558650000000  0.4450130000000 1.0
C      1  0.4704710000000  0.5089430000000  0.5387740000000 1.0
C      1  0.5013500000000  0.4743370000000  0.4674680000000 1.0
C      1  0.4881590000000  0.4867580000000  0.5470690000000 1.0
C      1  0.4159690000000  0.4742680000000  0.5099510000000 1.0
C      1  0.5661160000000  0.5588970000000  0.4927990000000 1.0
C      1  0.4800760000000  0.5096190000000  0.5132690000000 1.0
C      1  0.5811760000000  0.5421310000000  0.4758210000000 1.0
C      1  0.4735900000000  0.4367190000000  0.5504350000000 1.0
C      1  0.5746500000000  0.4646750000000  0.5123670000000 1.0
C      1  0.4614190000000  0.4262370000000  0.5019620000000 1.0
C      1  0.4287620000000  0.5432170000000  0.5129040000000 1.0
C      1  0.4925520000000  0.5162910000000  0.4144560000000 1.0
C      1  0.5117600000000  0.4455170000000  0.5178680000000 1.0
C      1  0.5666140000000  0.5033490000000  0.5603150000000 1.0
C      1  0.4719530000000  0.5001110000000  0.5833850000000 1.0
C      1  0.5602610000000  0.5129480000000  0.4984420000000 1.0
C      1  0.5277510000000  0.4811730000000  0.4747750000000 1.0
C      1  0.4795350000000  0.4502330000000  0.4298020000000 1.0
C      1  0.4367120000000  0.4744370000000  0.5555550000000 1.0
C      1  0.4672370000000  0.4722950000000  0.5102530000000 1.0
C      1  0.5826930000000  0.5122120000000  0.4805330000000 1.0
C      1  0.4239030000000  0.5094350000000  0.4823680000000 1.0
C      1  0.5025110000000  0.4277960000000  0.4719640000000 1.0
C      1  0.4645580000000  0.5360220000000  0.5472240000000 1.0
C      1  0.4463910000000  0.5555130000000  0.5334190000000 1.0
C      1  0.5203500000000  0.4496880000000  0.5668930000000 1.0
C      1  0.5855330000000  0.4861790000000  0.5269260000000 1.0
C      1  0.5252930000000  0.4932460000000  0.5194120000000 1.0
C      1  0.5770290000000  0.4876290000000  0.4657730000000 1.0
C      1  0.5399450000000  0.5194820000000  0.5619690000000 1.0
C      1  0.4753010000000  0.4183360000000  0.4773430000000 1.0
C      1  0.5238030000000  0.5193350000000  0.5327920000000 1.0
C      1  0.5183600000000  0.5863120000000  0.4805620000000 1.0
C      1  0.4416060000000  0.4738940000000  0.5250400000000 1.0
C      1  0.5317400000000  0.5494600000000  0.5623140000000 1.0
C      1  0.4216410000000  0.4590570000000  0.4857590000000 1.0
C      1  0.5048430000000  0.5424600000000  0.5705330000000 1.0
C      1  0.5364290000000  0.4981600000000  0.4947300000000 1.0
C      1  0.5575010000000  0.4572660000000  0.5381790000000 1.0
C      1  0.4272360000000  0.4825260000000  0.4694060000000 1.0
C      1  0.5062410000000  0.4741010000000  0.5271470000000 1.0
C      1  0.4847580000000  0.5654570000000  0.4492300000000 1.0
C      1  0.5212310000000  0.4375880000000  0.4901350000000 1.0
C      1  0.4440120000000  0.5000210000000  0.5711860000000 1.0
C      1  0.4521580000000  0.4515220000000  0.5593040000000 1.0
C      1  0.4095890000000  0.5029620000000  0.5066170000000 1.0
C      1  0.4621510000000  0.5611840000000  0.4669040000000 1.0
C      1  0.4912660000000  0.4468740000000  0.5719040000000 1.0
C      1  0.4378330000000  0.4345550000000  0.4857600000000 1.0
C      1  0.5044090000000  0.4486440000000  0.4475820000000 1.0
END
