TITL C-4164242-3624-337 -4.69715955956853 125000 -9614.30994499249 0 0 66 (C1) n - 1
REM
REM in /home/nfs/bkarasulu/CARBON/AIRSS/Generating-Clusters/ReaxFF-fromJPCA2015/Units_Real/with-SteepDescent/Only-C1/SD-CG/Try1-3A/FIRE-CG
REM
REM
REM
REM
REM
REM ./C.cell (11c1c37f851c82e70ff6c80c92926a4b)
REM
REM compiler GCC version 9.2.1 20190827 (Red Hat 9.2.1-1)
REM options -cpp -mtune=generic -march=x86-64 -g -O0 -fpre-include=/usr/include/finclude/math-vector-fortran.h
REM seed 1924518600 669054967 1127839756 1485122630 1623306386 611188603 -1923293979 -1364908822 1497456 -639814513 260999763 -543607931 -592002071 -573867173 -962898616 39950052 579016441 1540468768 1835293 868781135 -2117997965 -1440533389 -134411081 -473086565 -585994513 -1230809906 1981570358 -2034498415 56494402 425505683 -1465341492 -681171321 -997510464
REM
CELL 1.54180   50.00000   50.00000   50.00000   90.00000   90.00000   90.00000
LATT -1
SFAC C  
C      1  0.5547280000000  0.4408920000000  0.5213400000000 1.0
C      1  0.4576990000000  0.5129450000000  0.4561760000000 1.0
C      1  0.5710160000000  0.4723280000000  0.4996190000000 1.0
C      1  0.4292090000000  0.4747780000000  0.5156900000000 1.0
C      1  0.5088250000000  0.5655900000000  0.4485510000000 1.0
C      1  0.4644830000000  0.5341830000000  0.5488160000000 1.0
C      1  0.4686420000000  0.4291530000000  0.4782260000000 1.0
C      1  0.4683360000000  0.4936300000000  0.4379280000000 1.0
C      1  0.5067650000000  0.4389620000000  0.5344380000000 1.0
C      1  0.4767990000000  0.4648660000000  0.5095830000000 1.0
C      1  0.4512440000000  0.4525710000000  0.5225040000000 1.0
C      1  0.4844540000000  0.5597940000000  0.4614310000000 1.0
C      1  0.5335440000000  0.5343940000000  0.4660700000000 1.0
C      1  0.5669520000000  0.4927400000000  0.4784990000000 1.0
C      1  0.4924710000000  0.5381520000000  0.5577490000000 1.0
C      1  0.4645240000000  0.5541710000000  0.4793360000000 1.0
C      1  0.4564920000000  0.4490960000000  0.4591790000000 1.0
C      1  0.5327640000000  0.5635590000000  0.4666720000000 1.0
C      1  0.5167160000000  0.4268300000000  0.4950080000000 1.0
C      1  0.5351840000000  0.5630990000000  0.4957680000000 1.0
C      1  0.4995660000000  0.4331750000000  0.4734980000000 1.0
C      1  0.5311720000000  0.5280590000000  0.4202270000000 1.0
C      1  0.4843400000000  0.5107310000000  0.4243860000000 1.0
C      1  0.4509770000000  0.5592900000000  0.5401360000000 1.0
C      1  0.5465690000000  0.4560600000000  0.4967650000000 1.0
C      1  0.4667760000000  0.4575580000000  0.5506120000000 1.0
C      1  0.5430910000000  0.5166320000000  0.4443460000000 1.0
C      1  0.4456360000000  0.4736180000000  0.4710360000000 1.0
C      1  0.4745000000000  0.5061060000000  0.5042980000000 1.0
C      1  0.4230920000000  0.4825940000000  0.4880080000000 1.0
C      1  0.4681950000000  0.4826320000000  0.4886560000000 1.0
C      1  0.5539100000000  0.4842830000000  0.5498820000000 1.0
C      1  0.4632140000000  0.5072130000000  0.5342920000000 1.0
C      1  0.5223920000000  0.4774620000000  0.4599350000000 1.0
C      1  0.5268080000000  0.4775850000000  0.5064540000000 1.0
C      1  0.5523300000000  0.5141350000000  0.5434820000000 1.0
C      1  0.4801640000000  0.5649340000000  0.5021470000000 1.0
C      1  0.4948740000000  0.5850420000000  0.5472030000000 1.0
C      1  0.5036550000000  0.4553400000000  0.4538990000000 1.0
C      1  0.5085920000000  0.5514100000000  0.5059410000000 1.0
C      1  0.5020010000000  0.5273460000000  0.4109330000000 1.0
C      1  0.4986800000000  0.5091150000000  0.4891560000000 1.0
C      1  0.5681440000000  0.4659640000000  0.5298020000000 1.0
C      1  0.5149740000000  0.5516010000000  0.4227560000000 1.0
C      1  0.4294370000000  0.5111820000000  0.4949080000000 1.0
C      1  0.5322910000000  0.5333460000000  0.5502840000000 1.0
C      1  0.5037240000000  0.4641570000000  0.5194760000000 1.0
C      1  0.5286940000000  0.4823890000000  0.5611790000000 1.0
C      1  0.4718950000000  0.5767510000000  0.5271210000000 1.0
C      1  0.5146330000000  0.4878870000000  0.4840730000000 1.0
C      1  0.5011410000000  0.4863400000000  0.5698950000000 1.0
C      1  0.4992480000000  0.4587490000000  0.5763970000000 1.0
C      1  0.4772160000000  0.4632900000000  0.4451980000000 1.0
C      1  0.4467740000000  0.5275500000000  0.4760870000000 1.0
C      1  0.5684560000000  0.5181570000000  0.4934900000000 1.0
C      1  0.4559350000000  0.4278930000000  0.5036470000000 1.0
C      1  0.5095490000000  0.5332100000000  0.5334810000000 1.0
C      1  0.5125690000000  0.5317060000000  0.4853770000000 1.0
C      1  0.4344890000000  0.5023140000000  0.5226800000000 1.0
C      1  0.5073600000000  0.5629320000000  0.5600480000000 1.0
C      1  0.5533160000000  0.5409960000000  0.5038810000000 1.0
C      1  0.5290790000000  0.4251330000000  0.5208330000000 1.0
C      1  0.5485590000000  0.4899960000000  0.4553390000000 1.0
C      1  0.4750620000000  0.4842640000000  0.5537770000000 1.0
C      1  0.4889690000000  0.4390450000000  0.5586160000000 1.0
C      1  0.5471030000000  0.5130960000000  0.5137820000000 1.0
END
