TITL C-4164240-4114-461 19.0826111639132 125000 -27572.8680384454 0 0 183 (C1) n - 1
REM
REM in /home/nfs/bkarasulu/CARBON/AIRSS/Generating-Clusters/ReaxFF-fromJPCA2015/Units_Real/with-SteepDescent/Only-C1/SD-CG/Try1-3A/FIRE-CG
REM
REM
REM
REM
REM
REM ./C.cell (11c1c37f851c82e70ff6c80c92926a4b)
REM
REM compiler GCC version 9.2.1 20190827 (Red Hat 9.2.1-1)
REM options -cpp -mtune=generic -march=x86-64 -g -O0 -fpre-include=/usr/include/finclude/math-vector-fortran.h
REM seed -1723027627 -953115911 -1313787516 155029639 -2087742106 -1656560349 -2128374529 -1567937911 1849694328 2000736942 1201823816 2023999464 786317080 -88971649 1557440755 -1305460239 2105972392 -801723820 -1547490870 -849349539 617448678 937814903 1435668587 -45842470 523790474 -953753042 -684439300 1481791292 -922796430 -137254984 739609269 1866127012 -539019427
REM
CELL 1.54180   50.00000   50.00000   50.00000   90.00000   90.00000   90.00000
LATT -1
SFAC C  
C      1  0.5469520000000  0.4033220000000  0.5168140000000 1.0
C      1  0.4132460000000  0.5010820000000  0.4492780000000 1.0
C      1  0.5610400000000  0.4840360000000  0.4839140000000 1.0
C      1  0.5022710000000  0.5741100000000  0.4318280000000 1.0
C      1  0.6048280000000  0.5027550000000  0.4821680000000 1.0
C      1  0.5028260000000  0.4985840000000  0.4425100000000 1.0
C      1  0.5326040000000  0.5355460000000  0.5413660000000 1.0
C      1  0.4181640000000  0.5406990000000  0.5143170000000 1.0
C      1  0.4408350000000  0.5194660000000  0.5993500000000 1.0
C      1  0.4646810000000  0.5023250000000  0.4090860000000 1.0
C      1  0.4293000000000  0.4632690000000  0.4242750000000 1.0
C      1  0.5719200000000  0.4978260000000  0.4188540000000 1.0
C      1  0.5687590000000  0.4189700000000  0.5100430000000 1.0
C      1  0.4892120000000  0.5539740000000  0.5559060000000 1.0
C      1  0.4598500000000  0.4534610000000  0.4810450000000 1.0
C      1  0.4958410000000  0.4981350000000  0.4925340000000 1.0
C      1  0.4649690000000  0.4998690000000  0.5434090000000 1.0
C      1  0.4595370000000  0.5822310000000  0.5225960000000 1.0
C      1  0.5378640000000  0.5826110000000  0.5765620000000 1.0
C      1  0.4398290000000  0.5535930000000  0.4230690000000 1.0
C      1  0.5125450000000  0.5387150000000  0.5620430000000 1.0
C      1  0.5798870000000  0.5169290000000  0.5798530000000 1.0
C      1  0.4587200000000  0.3979940000000  0.5257510000000 1.0
C      1  0.5148840000000  0.4342620000000  0.4677910000000 1.0
C      1  0.5386530000000  0.5101720000000  0.5268340000000 1.0
C      1  0.5702340000000  0.4458170000000  0.5415830000000 1.0
C      1  0.5743640000000  0.5457360000000  0.5712860000000 1.0
C      1  0.6069230000000  0.5165980000000  0.5278520000000 1.0
C      1  0.4544590000000  0.4484040000000  0.4122580000000 1.0
C      1  0.4656510000000  0.5279910000000  0.6154520000000 1.0
C      1  0.5232280000000  0.6082760000000  0.4764670000000 1.0
C      1  0.4867040000000  0.4620820000000  0.5247170000000 1.0
C      1  0.4809490000000  0.5049570000000  0.6282810000000 1.0
C      1  0.3974100000000  0.4782780000000  0.5189490000000 1.0
C      1  0.4663010000000  0.5922610000000  0.5498510000000 1.0
C      1  0.4212020000000  0.5626260000000  0.4919570000000 1.0
C      1  0.5478410000000  0.4363390000000  0.6021370000000 1.0
C      1  0.4829090000000  0.5917660000000  0.4452680000000 1.0
C      1  0.4225960000000  0.4918900000000  0.4222320000000 1.0
C      1  0.4937610000000  0.5395740000000  0.4638730000000 1.0
C      1  0.4868940000000  0.3953980000000  0.5331720000000 1.0
C      1  0.5755700000000  0.4504980000000  0.4359040000000 1.0
C      1  0.5182310000000  0.4253220000000  0.5603410000000 1.0
C      1  0.4751120000000  0.6118760000000  0.4843420000000 1.0
C      1  0.5282840000000  0.5707440000000  0.4455800000000 1.0
C      1  0.4719150000000  0.5380100000000  0.4470280000000 1.0
C      1  0.4244100000000  0.4644320000000  0.5191640000000 1.0
C      1  0.5394170000000  0.4686220000000  0.5660950000000 1.0
C      1  0.5277280000000  0.5597230000000  0.4899220000000 1.0
C      1  0.4622490000000  0.5044010000000  0.4920420000000 1.0
C      1  0.4932110000000  0.4710550000000  0.4454220000000 1.0
C      1  0.5214380000000  0.5358020000000  0.4106130000000 1.0
C      1  0.4570040000000  0.5256680000000  0.5336760000000 1.0
C      1  0.5041050000000  0.5369570000000  0.5120830000000 1.0
C      1  0.4040600000000  0.5249450000000  0.4635040000000 1.0
C      1  0.5368350000000  0.5483150000000  0.4635900000000 1.0
C      1  0.5669310000000  0.5542090000000  0.4262400000000 1.0
C      1  0.6017400000000  0.4558810000000  0.5029560000000 1.0
C      1  0.4526170000000  0.5774080000000  0.5702910000000 1.0
C      1  0.5016870000000  0.4578660000000  0.6026920000000 1.0
C      1  0.3969690000000  0.5030590000000  0.5356830000000 1.0
C      1  0.4945480000000  0.4343520000000  0.5146260000000 1.0
C      1  0.6140670000000  0.4745120000000  0.4831570000000 1.0
C      1  0.5409010000000  0.4267730000000  0.5390930000000 1.0
C      1  0.4800440000000  0.4955030000000  0.5878480000000 1.0
C      1  0.4875810000000  0.4243590000000  0.4682620000000 1.0
C      1  0.4987400000000  0.5547100000000  0.4097900000000 1.0
C      1  0.4766960000000  0.5422840000000  0.3951800000000 1.0
C      1  0.5014830000000  0.3865040000000  0.5081090000000 1.0
C      1  0.4785770000000  0.4511310000000  0.5937860000000 1.0
C      1  0.5408990000000  0.5945830000000  0.4576320000000 1.0
C      1  0.4926840000000  0.4150090000000  0.5538370000000 1.0
C      1  0.6058220000000  0.4577450000000  0.4617700000000 1.0
C      1  0.4410490000000  0.4066130000000  0.4533540000000 1.0
C      1  0.4570920000000  0.4943560000000  0.4611840000000 1.0
C      1  0.5028660000000  0.4718880000000  0.5007880000000 1.0
C      1  0.4547670000000  0.4442000000000  0.5846120000000 1.0
C      1  0.5787810000000  0.5007840000000  0.4962980000000 1.0
C      1  0.5161730000000  0.4538600000000  0.4466980000000 1.0
C      1  0.5295620000000  0.6061190000000  0.5052330000000 1.0
C      1  0.4626950000000  0.4543010000000  0.5392300000000 1.0
C      1  0.5806400000000  0.5663630000000  0.4480360000000 1.0
C      1  0.5906670000000  0.4612190000000  0.5287920000000 1.0
C      1  0.4703450000000  0.5522880000000  0.5327500000000 1.0
C      1  0.4746590000000  0.4296490000000  0.4921150000000 1.0
C      1  0.4515050000000  0.4925760000000  0.5972610000000 1.0
C      1  0.4166730000000  0.4283330000000  0.4928080000000 1.0
C      1  0.5243900000000  0.4467020000000  0.5821350000000 1.0
C      1  0.4425070000000  0.4189500000000  0.5376220000000 1.0
C      1  0.4743520000000  0.4267530000000  0.4208710000000 1.0
C      1  0.5724130000000  0.5816230000000  0.4939350000000 1.0
C      1  0.5946730000000  0.5487980000000  0.4683780000000 1.0
C      1  0.4390360000000  0.5836770000000  0.4997280000000 1.0
C      1  0.5669280000000  0.4818240000000  0.6152250000000 1.0
C      1  0.5746390000000  0.5150630000000  0.4431200000000 1.0
C      1  0.5205060000000  0.5919540000000  0.5593950000000 1.0
C      1  0.4330450000000  0.5673950000000  0.4447230000000 1.0
C      1  0.5429720000000  0.4945750000000  0.4663140000000 1.0
C      1  0.5530940000000  0.5910500000000  0.5157070000000 1.0
C      1  0.4495640000000  0.5999020000000  0.4775570000000 1.0
C      1  0.4859990000000  0.4968750000000  0.5606890000000 1.0
C      1  0.5108500000000  0.5347040000000  0.5923950000000 1.0
C      1  0.4768970000000  0.5647580000000  0.5807210000000 1.0
C      1  0.5236780000000  0.4405180000000  0.4174190000000 1.0
C      1  0.4856450000000  0.5938610000000  0.5044350000000 1.0
C      1  0.5277510000000  0.4072910000000  0.4688350000000 1.0
C      1  0.5006560000000  0.5700210000000  0.4882880000000 1.0
C      1  0.4825470000000  0.3808150000000  0.4867980000000 1.0
C      1  0.4678500000000  0.5440370000000  0.4749780000000 1.0
C      1  0.3931080000000  0.4788000000000  0.4904550000000 1.0
C      1  0.4959440000000  0.6098610000000  0.4648920000000 1.0
C      1  0.5541010000000  0.4611610000000  0.4952960000000 1.0
C      1  0.5296320000000  0.5202170000000  0.6064010000000 1.0
C      1  0.5647270000000  0.4678980000000  0.4172000000000 1.0
C      1  0.5754010000000  0.5079020000000  0.6072350000000 1.0
C      1  0.4122130000000  0.5060350000000  0.5614410000000 1.0
C      1  0.4631330000000  0.5127350000000  0.4365850000000 1.0
C      1  0.5664820000000  0.4575080000000  0.5985250000000 1.0
C      1  0.5884300000000  0.5580110000000  0.4947910000000 1.0
C      1  0.4125770000000  0.4508640000000  0.4451280000000 1.0
C      1  0.3930930000000  0.5080190000000  0.4862430000000 1.0
C      1  0.5762060000000  0.4404290000000  0.4912540000000 1.0
C      1  0.4955190000000  0.3838910000000  0.4619630000000 1.0
C      1  0.5293910000000  0.4627300000000  0.5097500000000 1.0
C      1  0.5150490000000  0.5080940000000  0.4180660000000 1.0
C      1  0.5480360000000  0.5060240000000  0.6201220000000 1.0
C      1  0.4845550000000  0.5457270000000  0.6018590000000 1.0
C      1  0.5382070000000  0.4620390000000  0.4052680000000 1.0
C      1  0.4715810000000  0.4588110000000  0.3944400000000 1.0
C      1  0.4876780000000  0.4742860000000  0.3814650000000 1.0
C      1  0.5551690000000  0.5790580000000  0.5415880000000 1.0
C      1  0.4251220000000  0.4271370000000  0.4442200000000 1.0
C      1  0.4370780000000  0.5096420000000  0.4038170000000 1.0
C      1  0.5034380000000  0.4202470000000  0.4225700000000 1.0
C      1  0.3947390000000  0.5203710000000  0.5128900000000 1.0
C      1  0.4243510000000  0.4799350000000  0.5644010000000 1.0
C      1  0.5320990000000  0.4703760000000  0.4580110000000 1.0
C      1  0.4285920000000  0.5575800000000  0.5664790000000 1.0
C      1  0.5569310000000  0.5653040000000  0.5812640000000 1.0
C      1  0.4245580000000  0.5287590000000  0.5771000000000 1.0
C      1  0.4223390000000  0.5505520000000  0.5414240000000 1.0
C      1  0.4450420000000  0.4761030000000  0.5415120000000 1.0
C      1  0.4584260000000  0.3988880000000  0.4959680000000 1.0
C      1  0.5267900000000  0.3953060000000  0.4966590000000 1.0
C      1  0.5119220000000  0.3988100000000  0.4451630000000 1.0
C      1  0.5690060000000  0.4648690000000  0.5659520000000 1.0
C      1  0.5678810000000  0.5869300000000  0.4656300000000 1.0
C      1  0.4336060000000  0.4667540000000  0.4864490000000 1.0
C      1  0.5666080000000  0.5169090000000  0.5156720000000 1.0
C      1  0.5034020000000  0.5128630000000  0.4674820000000 1.0
C      1  0.4240090000000  0.4341410000000  0.5198900000000 1.0
C      1  0.5158030000000  0.5137290000000  0.5061670000000 1.0
C      1  0.5513990000000  0.5397770000000  0.4068690000000 1.0
C      1  0.4699960000000  0.4154890000000  0.4473800000000 1.0
C      1  0.5299610000000  0.4913440000000  0.3970540000000 1.0
C      1  0.5268000000000  0.5529470000000  0.5189570000000 1.0
C      1  0.4633620000000  0.4311490000000  0.5570070000000 1.0
C      1  0.5053050000000  0.6070070000000  0.5207680000000 1.0
C      1  0.4375730000000  0.4685320000000  0.5872530000000 1.0
C      1  0.5986400000000  0.5208150000000  0.4604580000000 1.0
C      1  0.4312490000000  0.4904770000000  0.4702160000000 1.0
C      1  0.5988920000000  0.4916330000000  0.5398080000000 1.0
C      1  0.4168340000000  0.5514720000000  0.4659610000000 1.0
C      1  0.5838680000000  0.4937160000000  0.5634460000000 1.0
C      1  0.4078820000000  0.4545150000000  0.4771960000000 1.0
C      1  0.4544270000000  0.5876820000000  0.4516480000000 1.0
C      1  0.4462320000000  0.5193850000000  0.5076750000000 1.0
C      1  0.4969650000000  0.4867710000000  0.6103410000000 1.0
C      1  0.4968560000000  0.6007950000000  0.5474980000000 1.0
C      1  0.4466000000000  0.5398110000000  0.4014510000000 1.0
C      1  0.5006460000000  0.4793630000000  0.5462140000000 1.0
C      1  0.5227180000000  0.4367810000000  0.5176410000000 1.0
C      1  0.4826240000000  0.5149000000000  0.3876880000000 1.0
C      1  0.4707190000000  0.4689270000000  0.4612260000000 1.0
C      1  0.5864020000000  0.4386290000000  0.4582000000000 1.0
C      1  0.4819860000000  0.5499500000000  0.5007680000000 1.0
C      1  0.5043790000000  0.4963090000000  0.3789200000000 1.0
C      1  0.5295270000000  0.4805440000000  0.5414900000000 1.0
C      1  0.5858230000000  0.5397230000000  0.5205060000000 1.0
C      1  0.5550540000000  0.5110700000000  0.4004090000000 1.0
C      1  0.5742140000000  0.5581250000000  0.5445920000000 1.0
C      1  0.4325130000000  0.4068340000000  0.4814540000000 1.0
C      1  0.5489190000000  0.5223430000000  0.4560060000000 1.0
END
