TITL C-4164240-4114-59 -3.78827394150759 125000 -17565.1884818135 0 0 118 (C1) n - 1
REM
REM in /home/nfs/bkarasulu/CARBON/AIRSS/Generating-Clusters/ReaxFF-fromJPCA2015/Units_Real/with-SteepDescent/Only-C1/SD-CG/Try1-3A/FIRE-CG
REM
REM
REM
REM
REM
REM ./C.cell (11c1c37f851c82e70ff6c80c92926a4b)
REM
REM compiler GCC version 9.2.1 20190827 (Red Hat 9.2.1-1)
REM options -cpp -mtune=generic -march=x86-64 -g -O0 -fpre-include=/usr/include/finclude/math-vector-fortran.h
REM seed -21056737 10278557 1577721570 330385778 1924309971 1789986535 -722409624 1742852267 -1946111305 -1642953112 1225853747 -410243343 148896458 -259620771 -1660467734 1506617099 908106988 -883323234 937018866 -182182378 1108962632 -296048579 715795155 -855748666 45761569 2029938879 1878698890 1011390711 916597155 -1572344249 895373707 -539751712 -1218383592
REM
CELL 1.54180   50.00000   50.00000   50.00000   90.00000   90.00000   90.00000
LATT -1
SFAC C  
C      1  0.4027480000000  0.4635680000000  0.4812610000000 1.0
C      1  0.5956520000000  0.5069330000000  0.5380370000000 1.0
C      1  0.5145380000000  0.5702580000000  0.5628900000000 1.0
C      1  0.5611030000000  0.5289720000000  0.4539290000000 1.0
C      1  0.5026250000000  0.5440770000000  0.4498060000000 1.0
C      1  0.4468170000000  0.5130370000000  0.5727920000000 1.0
C      1  0.4684880000000  0.4783280000000  0.4179050000000 1.0
C      1  0.4816760000000  0.4801840000000  0.5852270000000 1.0
C      1  0.5039530000000  0.5063940000000  0.4941270000000 1.0
C      1  0.5171190000000  0.4571770000000  0.4834500000000 1.0
C      1  0.4053230000000  0.4824920000000  0.5567910000000 1.0
C      1  0.5872000000000  0.5330390000000  0.5306710000000 1.0
C      1  0.5314270000000  0.5159220000000  0.5005180000000 1.0
C      1  0.4305270000000  0.5324740000000  0.5322640000000 1.0
C      1  0.4705390000000  0.5462140000000  0.4952460000000 1.0
C      1  0.5271200000000  0.4999410000000  0.5786010000000 1.0
C      1  0.4730410000000  0.5079490000000  0.5841570000000 1.0
C      1  0.4421140000000  0.5707160000000  0.5184420000000 1.0
C      1  0.4654500000000  0.4544520000000  0.5782010000000 1.0
C      1  0.5084980000000  0.4136590000000  0.4713900000000 1.0
C      1  0.5482350000000  0.4276420000000  0.5378590000000 1.0
C      1  0.5731940000000  0.5105840000000  0.4336260000000 1.0
C      1  0.4527770000000  0.5271400000000  0.4838040000000 1.0
C      1  0.4507470000000  0.4768900000000  0.4615090000000 1.0
C      1  0.4745910000000  0.4286690000000  0.4912660000000 1.0
C      1  0.4704750000000  0.4669050000000  0.5374950000000 1.0
C      1  0.4639070000000  0.5989730000000  0.4496540000000 1.0
C      1  0.5107760000000  0.5004570000000  0.4543390000000 1.0
C      1  0.5250400000000  0.5107930000000  0.5506120000000 1.0
C      1  0.5881160000000  0.4827330000000  0.5228820000000 1.0
C      1  0.4981240000000  0.4150790000000  0.5471430000000 1.0
C      1  0.5697110000000  0.4363680000000  0.5226950000000 1.0
C      1  0.4034800000000  0.4594960000000  0.5109810000000 1.0
C      1  0.5588800000000  0.5589680000000  0.4523340000000 1.0
C      1  0.4437080000000  0.4485880000000  0.4572190000000 1.0
C      1  0.4525840000000  0.4494380000000  0.5511760000000 1.0
C      1  0.5565930000000  0.4645850000000  0.4384990000000 1.0
C      1  0.4912490000000  0.4044310000000  0.5226940000000 1.0
C      1  0.4865820000000  0.5348150000000  0.5804890000000 1.0
C      1  0.4794620000000  0.5698100000000  0.4829660000000 1.0
C      1  0.5136080000000  0.5462500000000  0.5806240000000 1.0
C      1  0.5851410000000  0.4860800000000  0.4708230000000 1.0
C      1  0.4242750000000  0.4424660000000  0.4788300000000 1.0
C      1  0.4453930000000  0.5379910000000  0.5571840000000 1.0
C      1  0.5035490000000  0.5659480000000  0.4686790000000 1.0
C      1  0.5042350000000  0.4266490000000  0.5706080000000 1.0
C      1  0.5587550000000  0.5259850000000  0.5689940000000 1.0
C      1  0.4828350000000  0.5366690000000  0.5159240000000 1.0
C      1  0.5102380000000  0.4767280000000  0.5841070000000 1.0
C      1  0.4641490000000  0.4144760000000  0.5148070000000 1.0
C      1  0.5112540000000  0.4922140000000  0.4254900000000 1.0
C      1  0.5633090000000  0.5858810000000  0.5015030000000 1.0
C      1  0.5565890000000  0.4888540000000  0.4753880000000 1.0
C      1  0.5589450000000  0.4816310000000  0.5385170000000 1.0
C      1  0.4981590000000  0.4438740000000  0.5012970000000 1.0
C      1  0.4909150000000  0.4602330000000  0.5211100000000 1.0
C      1  0.5367210000000  0.5772370000000  0.5472930000000 1.0
C      1  0.5647290000000  0.5486420000000  0.5311330000000 1.0
C      1  0.5593160000000  0.4094190000000  0.4924450000000 1.0
C      1  0.5255450000000  0.5647010000000  0.4878930000000 1.0
C      1  0.4257760000000  0.4403020000000  0.5084400000000 1.0
C      1  0.4166150000000  0.5147740000000  0.4662400000000 1.0
C      1  0.5425590000000  0.4905430000000  0.5151790000000 1.0
C      1  0.4800660000000  0.4183310000000  0.4641020000000 1.0
C      1  0.5725330000000  0.5023800000000  0.5567950000000 1.0
C      1  0.4429310000000  0.5028570000000  0.4472360000000 1.0
C      1  0.5203770000000  0.5687790000000  0.4153600000000 1.0
C      1  0.4634500000000  0.5202220000000  0.4581360000000 1.0
C      1  0.5020050000000  0.5501260000000  0.5265790000000 1.0
C      1  0.5018120000000  0.5000780000000  0.5391230000000 1.0
C      1  0.4854240000000  0.5099420000000  0.5167870000000 1.0
C      1  0.4726280000000  0.5878500000000  0.4275640000000 1.0
C      1  0.5091830000000  0.4633610000000  0.4225910000000 1.0
C      1  0.5507160000000  0.5758550000000  0.4765790000000 1.0
C      1  0.4566320000000  0.4996040000000  0.5042410000000 1.0
C      1  0.5511840000000  0.5129830000000  0.4174660000000 1.0
C      1  0.5456900000000  0.4692840000000  0.4954650000000 1.0
C      1  0.5404540000000  0.5125350000000  0.4682870000000 1.0
C      1  0.4896900000000  0.5744100000000  0.4105040000000 1.0
C      1  0.5234260000000  0.4370900000000  0.4623620000000 1.0
C      1  0.4984240000000  0.4834880000000  0.4772390000000 1.0
C      1  0.4629280000000  0.5281290000000  0.4097780000000 1.0
C      1  0.4340630000000  0.4929870000000  0.5554850000000 1.0
C      1  0.5390850000000  0.4095980000000  0.5121350000000 1.0
C      1  0.4706240000000  0.5511820000000  0.5631440000000 1.0
C      1  0.5254190000000  0.5458630000000  0.5103810000000 1.0
C      1  0.5793470000000  0.4807500000000  0.4417290000000 1.0
C      1  0.4649400000000  0.5839730000000  0.5260960000000 1.0
C      1  0.4673760000000  0.4362270000000  0.4451440000000 1.0
C      1  0.4051070000000  0.4841890000000  0.5270410000000 1.0
C      1  0.4978590000000  0.4732440000000  0.5437080000000 1.0
C      1  0.4724260000000  0.5524950000000  0.4076000000000 1.0
C      1  0.5136300000000  0.5413590000000  0.4232470000000 1.0
C      1  0.4712950000000  0.5933300000000  0.4987780000000 1.0
C      1  0.4243720000000  0.5365420000000  0.4832020000000 1.0
C      1  0.5594050000000  0.5795580000000  0.5302370000000 1.0
C      1  0.5402170000000  0.5705180000000  0.4351580000000 1.0
C      1  0.4076940000000  0.4903440000000  0.4735190000000 1.0
C      1  0.4603600000000  0.6038200000000  0.4744110000000 1.0
C      1  0.5441550000000  0.4532300000000  0.5507260000000 1.0
C      1  0.4238750000000  0.5497680000000  0.5096970000000 1.0
C      1  0.5753590000000  0.4484690000000  0.4969020000000 1.0
C      1  0.5238770000000  0.5150190000000  0.4114260000000 1.0
C      1  0.4321630000000  0.5025600000000  0.5261820000000 1.0
C      1  0.5125100000000  0.4059150000000  0.5007450000000 1.0
C      1  0.5931560000000  0.4731250000000  0.4961540000000 1.0
C      1  0.5324760000000  0.4496050000000  0.4367950000000 1.0
C      1  0.4446940000000  0.4305960000000  0.5294470000000 1.0
C      1  0.4793280000000  0.4306880000000  0.5883840000000 1.0
C      1  0.4536810000000  0.5020170000000  0.4167240000000 1.0
C      1  0.4880150000000  0.5688550000000  0.5451180000000 1.0
C      1  0.4916550000000  0.5209570000000  0.4592060000000 1.0
C      1  0.5422320000000  0.5344590000000  0.5462020000000 1.0
C      1  0.4673280000000  0.4814840000000  0.4845770000000 1.0
C      1  0.5349810000000  0.5268570000000  0.5872770000000 1.0
C      1  0.5790330000000  0.4202650000000  0.4773020000000 1.0
C      1  0.5210050000000  0.4530820000000  0.5683150000000 1.0
C      1  0.4809080000000  0.4540690000000  0.4241590000000 1.0
END
