TITL C-4164240-4114-558 20.842204459106 125000 -24197.9807882413 0 0 164 (C1) n - 1
REM
REM in /home/nfs/bkarasulu/CARBON/AIRSS/Generating-Clusters/ReaxFF-fromJPCA2015/Units_Real/with-SteepDescent/Only-C1/SD-CG/Try1-3A/FIRE-CG
REM
REM
REM
REM
REM
REM ./C.cell (11c1c37f851c82e70ff6c80c92926a4b)
REM
REM compiler GCC version 9.2.1 20190827 (Red Hat 9.2.1-1)
REM options -cpp -mtune=generic -march=x86-64 -g -O0 -fpre-include=/usr/include/finclude/math-vector-fortran.h
REM seed 211016718 1277937362 336826833 -1759771058 -676171760 -1246364934 -1732410712 -1406032586 1955116651 -1166476786 -1742814780 -1898565908 -465583317 962167985 145043452 1217322714 -881525762 1958239432 -144183808 1841128235 -1963678389 1142117732 939368924 8971720 -1979241771 -1777450923 -472490520 1139711396 -1276504458 -1642314774 1806181893 -1901729434 -1103565471
REM
CELL 1.54180   50.00000   50.00000   50.00000   90.00000   90.00000   90.00000
LATT -1
SFAC C  
C      1  0.4217870000000  0.5125380000000  0.4459410000000 1.0
C      1  0.5817620000000  0.4320820000000  0.4558030000000 1.0
C      1  0.4753200000000  0.4666550000000  0.4117920000000 1.0
C      1  0.4555500000000  0.4490140000000  0.5176070000000 1.0
C      1  0.4088380000000  0.4440200000000  0.5011320000000 1.0
C      1  0.5201130000000  0.5186330000000  0.5223070000000 1.0
C      1  0.5744810000000  0.5752580000000  0.5455290000000 1.0
C      1  0.5768370000000  0.5369150000000  0.4272790000000 1.0
C      1  0.5117000000000  0.4133020000000  0.5722170000000 1.0
C      1  0.5263220000000  0.4371170000000  0.5821280000000 1.0
C      1  0.5059760000000  0.4581480000000  0.5871380000000 1.0
C      1  0.5575730000000  0.5444950000000  0.4773550000000 1.0
C      1  0.5915460000000  0.5181220000000  0.4456350000000 1.0
C      1  0.5139800000000  0.5900320000000  0.4528130000000 1.0
C      1  0.5861280000000  0.5005670000000  0.5692170000000 1.0
C      1  0.4508030000000  0.4257470000000  0.4577690000000 1.0
C      1  0.5475960000000  0.5137550000000  0.5449610000000 1.0
C      1  0.4626560000000  0.4132980000000  0.5517190000000 1.0
C      1  0.5984580000000  0.4893380000000  0.4485420000000 1.0
C      1  0.4860120000000  0.5027670000000  0.5524770000000 1.0
C      1  0.5070580000000  0.5162480000000  0.5649380000000 1.0
C      1  0.4946200000000  0.5511230000000  0.6076720000000 1.0
C      1  0.5030350000000  0.4520710000000  0.4919940000000 1.0
C      1  0.5414330000000  0.5922030000000  0.4851490000000 1.0
C      1  0.5572080000000  0.5658130000000  0.5652770000000 1.0
C      1  0.4855290000000  0.5261010000000  0.4811860000000 1.0
C      1  0.4288350000000  0.5030510000000  0.5903810000000 1.0
C      1  0.5766280000000  0.5682610000000  0.4689390000000 1.0
C      1  0.4984700000000  0.5765470000000  0.5923190000000 1.0
C      1  0.4893170000000  0.5126310000000  0.4161280000000 1.0
C      1  0.4372740000000  0.4967370000000  0.5205590000000 1.0
C      1  0.4014330000000  0.4612450000000  0.5240700000000 1.0
C      1  0.6004420000000  0.5043530000000  0.5434230000000 1.0
C      1  0.4319580000000  0.5249680000000  0.4888150000000 1.0
C      1  0.5200350000000  0.4338860000000  0.4222960000000 1.0
C      1  0.5150480000000  0.4664670000000  0.4470450000000 1.0
C      1  0.5453680000000  0.4489880000000  0.4174690000000 1.0
C      1  0.4061290000000  0.5106320000000  0.5729310000000 1.0
C      1  0.4943530000000  0.5892630000000  0.5053630000000 1.0
C      1  0.5418700000000  0.5014260000000  0.4184580000000 1.0
C      1  0.3969820000000  0.4838000000000  0.4711680000000 1.0
C      1  0.5706080000000  0.5194170000000  0.4653210000000 1.0
C      1  0.4529640000000  0.5358710000000  0.3999080000000 1.0
C      1  0.5016960000000  0.4850800000000  0.5995940000000 1.0
C      1  0.5587300000000  0.4906380000000  0.5604940000000 1.0
C      1  0.5274960000000  0.5496000000000  0.4175890000000 1.0
C      1  0.5274770000000  0.4207150000000  0.4982220000000 1.0
C      1  0.5497780000000  0.5447660000000  0.5093840000000 1.0
C      1  0.4605720000000  0.4050280000000  0.4762280000000 1.0
C      1  0.3964810000000  0.5047680000000  0.4925800000000 1.0
C      1  0.4923010000000  0.5130090000000  0.5268410000000 1.0
C      1  0.4841810000000  0.5646830000000  0.5147780000000 1.0
C      1  0.5802720000000  0.4281890000000  0.4849450000000 1.0
C      1  0.4869180000000  0.5899360000000  0.4416530000000 1.0
C      1  0.5927550000000  0.5288390000000  0.5251780000000 1.0
C      1  0.5037740000000  0.4476440000000  0.5370060000000 1.0
C      1  0.3958410000000  0.5061440000000  0.5462390000000 1.0
C      1  0.4494290000000  0.4776840000000  0.4162760000000 1.0
C      1  0.6111650000000  0.5182260000000  0.5009780000000 1.0
C      1  0.5660570000000  0.4499990000000  0.4383530000000 1.0
C      1  0.4500850000000  0.4058700000000  0.5035840000000 1.0
C      1  0.4268620000000  0.4687940000000  0.4314460000000 1.0
C      1  0.4903280000000  0.3945380000000  0.4768990000000 1.0
C      1  0.4988980000000  0.5456390000000  0.4113650000000 1.0
C      1  0.4348760000000  0.4308460000000  0.5066280000000 1.0
C      1  0.6074600000000  0.4741690000000  0.4721030000000 1.0
C      1  0.4737310000000  0.5272540000000  0.6064600000000 1.0
C      1  0.4052640000000  0.5324510000000  0.5518200000000 1.0
C      1  0.4770770000000  0.5404750000000  0.3834150000000 1.0
C      1  0.4835990000000  0.4209660000000  0.5707560000000 1.0
C      1  0.5132610000000  0.4237730000000  0.5246480000000 1.0
C      1  0.4445000000000  0.5258840000000  0.5170670000000 1.0
C      1  0.4330640000000  0.5804930000000  0.5062120000000 1.0
C      1  0.5719000000000  0.4772040000000  0.4481250000000 1.0
C      1  0.4047380000000  0.5336470000000  0.4916890000000 1.0
C      1  0.4057560000000  0.4919020000000  0.5200700000000 1.0
C      1  0.5242760000000  0.5837490000000  0.5820910000000 1.0
C      1  0.4480600000000  0.5917980000000  0.5291420000000 1.0
C      1  0.5713280000000  0.4043590000000  0.4997060000000 1.0
C      1  0.4322380000000  0.5027510000000  0.4708430000000 1.0
C      1  0.4869250000000  0.4890190000000  0.5112840000000 1.0
C      1  0.4502270000000  0.5299640000000  0.5665670000000 1.0
C      1  0.5432560000000  0.3967250000000  0.5030510000000 1.0
C      1  0.6016690000000  0.4452670000000  0.4730140000000 1.0
C      1  0.5483250000000  0.4377100000000  0.5624420000000 1.0
C      1  0.4775670000000  0.5003870000000  0.6012380000000 1.0
C      1  0.5180810000000  0.4202390000000  0.4449130000000 1.0
C      1  0.4764820000000  0.4375740000000  0.4548080000000 1.0
C      1  0.4903340000000  0.4490010000000  0.5644690000000 1.0
C      1  0.4930300000000  0.4520940000000  0.4326020000000 1.0
C      1  0.5218510000000  0.5427550000000  0.6157430000000 1.0
C      1  0.5990390000000  0.4813140000000  0.5256550000000 1.0
C      1  0.5493720000000  0.5295880000000  0.4162750000000 1.0
C      1  0.5675570000000  0.5868960000000  0.4895480000000 1.0
C      1  0.4932620000000  0.4865660000000  0.3993080000000 1.0
C      1  0.5804020000000  0.5641370000000  0.4400890000000 1.0
C      1  0.4562260000000  0.5558230000000  0.4625470000000 1.0
C      1  0.5265150000000  0.4935430000000  0.4438460000000 1.0
C      1  0.5461490000000  0.4116060000000  0.5492330000000 1.0
C      1  0.4156900000000  0.4589890000000  0.5479130000000 1.0
C      1  0.5179790000000  0.4030710000000  0.5455780000000 1.0
C      1  0.5571070000000  0.4653680000000  0.5057800000000 1.0
C      1  0.5615890000000  0.4618050000000  0.5528650000000 1.0
C      1  0.5081520000000  0.5487120000000  0.4835880000000 1.0
C      1  0.5227780000000  0.4541520000000  0.4716630000000 1.0
C      1  0.4502350000000  0.5966730000000  0.4873450000000 1.0
C      1  0.4051950000000  0.4559630000000  0.4751540000000 1.0
C      1  0.4942530000000  0.3873580000000  0.5265320000000 1.0
C      1  0.5540830000000  0.4949600000000  0.4650120000000 1.0
C      1  0.4825830000000  0.5678320000000  0.4220660000000 1.0
C      1  0.5618240000000  0.5201730000000  0.5194980000000 1.0
C      1  0.4521160000000  0.4403280000000  0.5468150000000 1.0
C      1  0.4478470000000  0.5215120000000  0.4372710000000 1.0
C      1  0.4567850000000  0.4786620000000  0.5160830000000 1.0
C      1  0.5184660000000  0.4750470000000  0.3969260000000 1.0
C      1  0.5251230000000  0.5031770000000  0.4996190000000 1.0
C      1  0.5467410000000  0.5886550000000  0.5719100000000 1.0
C      1  0.4683510000000  0.6030400000000  0.5101500000000 1.0
C      1  0.4902950000000  0.5587820000000  0.5555380000000 1.0
C      1  0.4556130000000  0.5808310000000  0.5557440000000 1.0
C      1  0.4680520000000  0.4734090000000  0.4755450000000 1.0
C      1  0.5414970000000  0.5382530000000  0.5664620000000 1.0
C      1  0.5425210000000  0.4456640000000  0.4905020000000 1.0
C      1  0.5039760000000  0.4669420000000  0.5167820000000 1.0
C      1  0.4977570000000  0.5045550000000  0.4437180000000 1.0
C      1  0.5210590000000  0.5458020000000  0.5133000000000 1.0
C      1  0.4613890000000  0.5522120000000  0.5512180000000 1.0
C      1  0.4771380000000  0.4889140000000  0.4542690000000 1.0
C      1  0.4591770000000  0.5101550000000  0.4139550000000 1.0
C      1  0.5034960000000  0.3861360000000  0.5000650000000 1.0
C      1  0.4368600000000  0.4579690000000  0.5657220000000 1.0
C      1  0.4385560000000  0.5674840000000  0.4399540000000 1.0
C      1  0.4824490000000  0.5837710000000  0.5682350000000 1.0
C      1  0.4462290000000  0.5268240000000  0.5956140000000 1.0
C      1  0.5288130000000  0.5664040000000  0.4419730000000 1.0
C      1  0.5528570000000  0.4940430000000  0.4979770000000 1.0
C      1  0.4480350000000  0.4832160000000  0.5805280000000 1.0
C      1  0.6098710000000  0.4899120000000  0.4985670000000 1.0
C      1  0.4670140000000  0.3981470000000  0.5270060000000 1.0
C      1  0.4592350000000  0.5030770000000  0.5617690000000 1.0
C      1  0.5603700000000  0.4000180000000  0.5266180000000 1.0
C      1  0.4297990000000  0.4515650000000  0.4573310000000 1.0
C      1  0.4830730000000  0.5319100000000  0.3602580000000 1.0
C      1  0.5766360000000  0.4624690000000  0.5275280000000 1.0
C      1  0.4541760000000  0.5613060000000  0.4155390000000 1.0
C      1  0.4652250000000  0.5302670000000  0.4591080000000 1.0
C      1  0.4147350000000  0.5568440000000  0.5091290000000 1.0
C      1  0.5301130000000  0.5485340000000  0.4646780000000 1.0
C      1  0.5674070000000  0.5698820000000  0.5171310000000 1.0
C      1  0.4077830000000  0.4879470000000  0.4432500000000 1.0
C      1  0.4764820000000  0.4482530000000  0.4830820000000 1.0
C      1  0.5902020000000  0.5581560000000  0.5300230000000 1.0
C      1  0.5143120000000  0.5422350000000  0.5532340000000 1.0
C      1  0.4809350000000  0.5662870000000  0.4739840000000 1.0
C      1  0.5211470000000  0.5040960000000  0.5871780000000 1.0
C      1  0.5152440000000  0.4074860000000  0.4679880000000 1.0
C      1  0.4735520000000  0.5929170000000  0.4691910000000 1.0
C      1  0.4754530000000  0.5369420000000  0.5117910000000 1.0
C      1  0.4249990000000  0.5444770000000  0.5333430000000 1.0
C      1  0.5367850000000  0.5272240000000  0.5945820000000 1.0
C      1  0.4429270000000  0.4762850000000  0.4713820000000 1.0
C      1  0.5153840000000  0.5963150000000  0.4822040000000 1.0
C      1  0.5006300000000  0.5004760000000  0.4848010000000 1.0
C      1  0.5453190000000  0.4755100000000  0.4032310000000 1.0
END
