TITL C-4164243-3780-612 22.5103551491892 125000 -25119.8774496715 0 0 165 (C1) n - 1
REM
REM in /home/nfs/bkarasulu/CARBON/AIRSS/Generating-Clusters/ReaxFF-fromJPCA2015/Units_Real/with-SteepDescent/Only-C1/SD-CG/Try1-3A/FIRE-CG
REM
REM
REM
REM
REM
REM ./C.cell (11c1c37f851c82e70ff6c80c92926a4b)
REM
REM compiler GCC version 9.2.1 20190827 (Red Hat 9.2.1-1)
REM options -cpp -mtune=generic -march=x86-64 -g -O0 -fpre-include=/usr/include/finclude/math-vector-fortran.h
REM seed 2107485362 1373226132 -977313563 -1818580483 561820586 461551682 -6949425 -1063755902 -422853884 -108288522 577719019 -1672457084 -724957839 931415898 -1113559119 795094872 666180337 96536409 1736657199 1348046576 -867569084 -1694187542 1051588450 -1132284889 -1416974585 1037686463 -619705960 1080986704 -1707240304 689213563 1422766194 865996917 479034306
REM
CELL 1.54180   50.00000   50.00000   50.00000   90.00000   90.00000   90.00000
LATT -1
SFAC C  
C      1  0.4209690000000  0.5178940000000  0.4442020000000 1.0
C      1  0.5443470000000  0.4749400000000  0.5052560000000 1.0
C      1  0.5416510000000  0.4209000000000  0.5604860000000 1.0
C      1  0.5179740000000  0.5349000000000  0.5479850000000 1.0
C      1  0.5442770000000  0.5408760000000  0.4112740000000 1.0
C      1  0.4804710000000  0.5303010000000  0.4855710000000 1.0
C      1  0.5689170000000  0.5852240000000  0.4875060000000 1.0
C      1  0.6002480000000  0.4518160000000  0.5148860000000 1.0
C      1  0.5110260000000  0.5712680000000  0.4809370000000 1.0
C      1  0.4743700000000  0.4040450000000  0.5277250000000 1.0
C      1  0.4988270000000  0.4119280000000  0.4429180000000 1.0
C      1  0.4137430000000  0.4959500000000  0.4264160000000 1.0
C      1  0.4039260000000  0.5231870000000  0.5283250000000 1.0
C      1  0.4222950000000  0.4544670000000  0.4559570000000 1.0
C      1  0.5289990000000  0.3984320000000  0.5170060000000 1.0
C      1  0.5448340000000  0.4899920000000  0.4135940000000 1.0
C      1  0.5348450000000  0.5361760000000  0.6052370000000 1.0
C      1  0.4886590000000  0.4555780000000  0.4435880000000 1.0
C      1  0.4518630000000  0.5540910000000  0.4271640000000 1.0
C      1  0.5019080000000  0.5163300000000  0.4994170000000 1.0
C      1  0.4528140000000  0.5128190000000  0.6004810000000 1.0
C      1  0.4488810000000  0.4665020000000  0.4229620000000 1.0
C      1  0.4322390000000  0.5464730000000  0.5783020000000 1.0
C      1  0.4823240000000  0.5757870000000  0.5381220000000 1.0
C      1  0.4944420000000  0.4613110000000  0.5165070000000 1.0
C      1  0.4329610000000  0.5646710000000  0.5553210000000 1.0
C      1  0.4836800000000  0.5296420000000  0.4571470000000 1.0
C      1  0.4027620000000  0.4755510000000  0.5165470000000 1.0
C      1  0.4415370000000  0.4997520000000  0.5734830000000 1.0
C      1  0.5190170000000  0.5478620000000  0.4686510000000 1.0
C      1  0.3947260000000  0.4829160000000  0.4689290000000 1.0
C      1  0.5518550000000  0.4173440000000  0.5168300000000 1.0
C      1  0.5701610000000  0.5851890000000  0.5174030000000 1.0
C      1  0.4478960000000  0.4830690000000  0.5013620000000 1.0
C      1  0.5004940000000  0.5076610000000  0.4465870000000 1.0
C      1  0.5698980000000  0.5437580000000  0.4236950000000 1.0
C      1  0.5743520000000  0.4326520000000  0.4759560000000 1.0
C      1  0.5015050000000  0.4356440000000  0.4247480000000 1.0
C      1  0.5523830000000  0.5884250000000  0.5412230000000 1.0
C      1  0.5838810000000  0.4683540000000  0.4346610000000 1.0
C      1  0.5017530000000  0.5724230000000  0.5807420000000 1.0
C      1  0.4502450000000  0.4481910000000  0.5922870000000 1.0
C      1  0.5576330000000  0.5240970000000  0.5905610000000 1.0
C      1  0.5162160000000  0.6110980000000  0.5136990000000 1.0
C      1  0.5942850000000  0.4481930000000  0.4855740000000 1.0
C      1  0.5678400000000  0.5664310000000  0.5555190000000 1.0
C      1  0.4384910000000  0.4181750000000  0.4818150000000 1.0
C      1  0.4317450000000  0.5620790000000  0.4471320000000 1.0
C      1  0.5004730000000  0.5615260000000  0.4190310000000 1.0
C      1  0.5922020000000  0.5007290000000  0.5405690000000 1.0
C      1  0.4356450000000  0.5316030000000  0.4854340000000 1.0
C      1  0.5455930000000  0.5811670000000  0.4432320000000 1.0
C      1  0.3900400000000  0.4923880000000  0.4948250000000 1.0
C      1  0.5678560000000  0.5396350000000  0.5174620000000 1.0
C      1  0.5688280000000  0.4878220000000  0.5019180000000 1.0
C      1  0.4501960000000  0.4653930000000  0.4527350000000 1.0
C      1  0.4562500000000  0.4398220000000  0.4133010000000 1.0
C      1  0.5829620000000  0.5676560000000  0.4688600000000 1.0
C      1  0.5417640000000  0.5457000000000  0.5076240000000 1.0
C      1  0.4181520000000  0.4806390000000  0.5632260000000 1.0
C      1  0.4790040000000  0.5572270000000  0.4409930000000 1.0
C      1  0.4787420000000  0.5062750000000  0.5383850000000 1.0
C      1  0.5927870000000  0.5004290000000  0.4986520000000 1.0
C      1  0.4818110000000  0.3980800000000  0.5007200000000 1.0
C      1  0.5469730000000  0.5955210000000  0.4703460000000 1.0
C      1  0.4944350000000  0.5247180000000  0.5641490000000 1.0
C      1  0.4399720000000  0.4270720000000  0.5584620000000 1.0
C      1  0.5650960000000  0.4203420000000  0.5432150000000 1.0
C      1  0.4562740000000  0.5093020000000  0.3982810000000 1.0
C      1  0.5225650000000  0.5670720000000  0.5080410000000 1.0
C      1  0.4517450000000  0.4247050000000  0.5304520000000 1.0
C      1  0.5810950000000  0.5611190000000  0.5299990000000 1.0
C      1  0.4081120000000  0.5396220000000  0.4829380000000 1.0
C      1  0.4494610000000  0.5736090000000  0.4987480000000 1.0
C      1  0.4902440000000  0.4738830000000  0.4038750000000 1.0
C      1  0.4536520000000  0.5046210000000  0.5203110000000 1.0
C      1  0.4999130000000  0.4972690000000  0.5202930000000 1.0
C      1  0.4048060000000  0.4907080000000  0.5409570000000 1.0
C      1  0.4330910000000  0.5233440000000  0.5617370000000 1.0
C      1  0.4635380000000  0.4034870000000  0.4784400000000 1.0
C      1  0.4934370000000  0.5936740000000  0.4735430000000 1.0
C      1  0.4945060000000  0.4495320000000  0.6121430000000 1.0
C      1  0.5844200000000  0.5197050000000  0.4308170000000 1.0
C      1  0.5034480000000  0.4608250000000  0.4881210000000 1.0
C      1  0.4710900000000  0.4066660000000  0.4500210000000 1.0
C      1  0.4557590000000  0.5406870000000  0.5949420000000 1.0
C      1  0.4597720000000  0.5375980000000  0.4047900000000 1.0
C      1  0.4522360000000  0.4873160000000  0.4725890000000 1.0
C      1  0.5246630000000  0.4924940000000  0.4622480000000 1.0
C      1  0.5280180000000  0.4936550000000  0.5307370000000 1.0
C      1  0.5291980000000  0.5638260000000  0.4241660000000 1.0
C      1  0.4698110000000  0.4511670000000  0.5298620000000 1.0
C      1  0.4649250000000  0.4905610000000  0.5577350000000 1.0
C      1  0.5626810000000  0.4535020000000  0.4223170000000 1.0
C      1  0.5035550000000  0.5893570000000  0.5570950000000 1.0
C      1  0.4587970000000  0.4247830000000  0.5791650000000 1.0
C      1  0.5040740000000  0.5183640000000  0.3940550000000 1.0
C      1  0.4714050000000  0.5833950000000  0.4576470000000 1.0
C      1  0.5875110000000  0.5298100000000  0.4999260000000 1.0
C      1  0.5690460000000  0.5398680000000  0.5685670000000 1.0
C      1  0.4454010000000  0.5788270000000  0.4671640000000 1.0
C      1  0.6029820000000  0.4948280000000  0.4698320000000 1.0
C      1  0.5404020000000  0.4443920000000  0.5184130000000 1.0
C      1  0.5175670000000  0.4509780000000  0.5343410000000 1.0
C      1  0.5720630000000  0.4939720000000  0.4228650000000 1.0
C      1  0.5952990000000  0.4630890000000  0.5536730000000 1.0
C      1  0.5198360000000  0.5570430000000  0.5935710000000 1.0
C      1  0.4973810000000  0.5072410000000  0.5883890000000 1.0
C      1  0.4120070000000  0.5557940000000  0.5354640000000 1.0
C      1  0.4498890000000  0.4202350000000  0.4346590000000 1.0
C      1  0.4215980000000  0.5739060000000  0.5164980000000 1.0
C      1  0.4336630000000  0.4331230000000  0.5060200000000 1.0
C      1  0.5548810000000  0.4281370000000  0.4563370000000 1.0
C      1  0.4896510000000  0.6060550000000  0.5007410000000 1.0
C      1  0.5066760000000  0.4455010000000  0.4641450000000 1.0
C      1  0.5245960000000  0.4765090000000  0.4838340000000 1.0
C      1  0.4566680000000  0.5443780000000  0.4963360000000 1.0
C      1  0.5407360000000  0.4706640000000  0.5770560000000 1.0
C      1  0.5419740000000  0.5185830000000  0.5392160000000 1.0
C      1  0.5448410000000  0.4965130000000  0.5922440000000 1.0
C      1  0.6067430000000  0.4773830000000  0.5321620000000 1.0
C      1  0.4826640000000  0.4990010000000  0.3902130000000 1.0
C      1  0.3943120000000  0.5214320000000  0.5008570000000 1.0
C      1  0.5423300000000  0.5147510000000  0.4645850000000 1.0
C      1  0.5218790000000  0.4045100000000  0.5445830000000 1.0
C      1  0.4770630000000  0.5505960000000  0.5758630000000 1.0
C      1  0.4100350000000  0.5432020000000  0.4541800000000 1.0
C      1  0.4400260000000  0.5122970000000  0.4654470000000 1.0
C      1  0.5702890000000  0.5676920000000  0.4421020000000 1.0
C      1  0.4273060000000  0.4615640000000  0.5073440000000 1.0
C      1  0.5700440000000  0.5161180000000  0.5503690000000 1.0
C      1  0.4593070000000  0.4654450000000  0.5498660000000 1.0
C      1  0.5346070000000  0.4595930000000  0.4222280000000 1.0
C      1  0.4834100000000  0.4447650000000  0.4036300000000 1.0
C      1  0.5424790000000  0.4085560000000  0.4717410000000 1.0
C      1  0.4617270000000  0.5637320000000  0.5546450000000 1.0
C      1  0.5962210000000  0.4685280000000  0.4616660000000 1.0
C      1  0.5255590000000  0.4725640000000  0.5528870000000 1.0
C      1  0.5171420000000  0.4005180000000  0.4656380000000 1.0
C      1  0.5250060000000  0.5991200000000  0.5406330000000 1.0
C      1  0.4915880000000  0.4818660000000  0.4313150000000 1.0
C      1  0.4710030000000  0.5888690000000  0.5138290000000 1.0
C      1  0.4929050000000  0.4054430000000  0.5498950000000 1.0
C      1  0.4326760000000  0.4542970000000  0.5680480000000 1.0
C      1  0.5946810000000  0.5416560000000  0.4752260000000 1.0
C      1  0.4024240000000  0.4739770000000  0.4438710000000 1.0
C      1  0.4749280000000  0.4952010000000  0.6035670000000 1.0
C      1  0.5215530000000  0.5083600000000  0.6048070000000 1.0
C      1  0.5253840000000  0.5305940000000  0.4470710000000 1.0
C      1  0.5887670000000  0.4394190000000  0.5395450000000 1.0
C      1  0.5318460000000  0.5146100000000  0.4045990000000 1.0
C      1  0.5995780000000  0.5199100000000  0.4556310000000 1.0
C      1  0.5278200000000  0.5266610000000  0.4896730000000 1.0
C      1  0.5338870000000  0.4413540000000  0.5804800000000 1.0
C      1  0.5066760000000  0.4330790000000  0.5902120000000 1.0
C      1  0.4334900000000  0.5204950000000  0.5331570000000 1.0
C      1  0.4368790000000  0.4899960000000  0.4097780000000 1.0
C      1  0.4292220000000  0.4262750000000  0.4543990000000 1.0
C      1  0.4892410000000  0.5428360000000  0.4003740000000 1.0
C      1  0.4861480000000  0.4186720000000  0.5747630000000 1.0
C      1  0.5085840000000  0.5546210000000  0.5296620000000 1.0
C      1  0.5106070000000  0.3947750000000  0.4943190000000 1.0
C      1  0.4699000000000  0.4650160000000  0.6060890000000 1.0
C      1  0.5324360000000  0.4491390000000  0.4496040000000 1.0
C      1  0.5297280000000  0.6081100000000  0.4892560000000 1.0
END
