TITL C-4164236-1577-569 3.78062033760318 125000 -17538.6225481742 0 0 118 (C1) n - 1
REM
REM in /home/nfs/bkarasulu/CARBON/AIRSS/Generating-Clusters/ReaxFF-fromJPCA2015/Units_Real/with-SteepDescent/Only-C1/SD-CG/Try1-3A/FIRE-CG
REM
REM
REM
REM
REM
REM ./C.cell (11c1c37f851c82e70ff6c80c92926a4b)
REM
REM compiler GCC version 9.2.1 20190827 (Red Hat 9.2.1-1)
REM options -cpp -mtune=generic -march=x86-64 -g -O0 -fpre-include=/usr/include/finclude/math-vector-fortran.h
REM seed -1520458317 846730532 -961574791 1343866853 1656653469 1749115004 -306717725 1492000144 -1734285856 871460986 1253809721 1360716896 -538522142 -1414504552 -1649731068 -2039027765 -1991518359 546872617 -781031270 -395183888 -682824078 269978539 -2093072563 -575042217 -583282041 1467489982 196636227 1353991154 -1588294832 -1965750220 -653123587 -1076218266 -686172335
REM
CELL 1.54180   50.00000   50.00000   50.00000   90.00000   90.00000   90.00000
LATT -1
SFAC C  
C      1  0.4283090000000  0.4885020000000  0.5407320000000 1.0
C      1  0.4547080000000  0.5576830000000  0.5572970000000 1.0
C      1  0.5784930000000  0.4894570000000  0.5265360000000 1.0
C      1  0.5523090000000  0.5586880000000  0.5343580000000 1.0
C      1  0.4512320000000  0.4828700000000  0.5241170000000 1.0
C      1  0.5284010000000  0.5540470000000  0.4451470000000 1.0
C      1  0.5930070000000  0.5005880000000  0.5030950000000 1.0
C      1  0.5883370000000  0.5459200000000  0.4828830000000 1.0
C      1  0.4729320000000  0.4496200000000  0.4836360000000 1.0
C      1  0.4540840000000  0.5524340000000  0.5110160000000 1.0
C      1  0.4293680000000  0.4374580000000  0.5103870000000 1.0
C      1  0.5613040000000  0.4578730000000  0.5502220000000 1.0
C      1  0.4536010000000  0.5719350000000  0.4650430000000 1.0
C      1  0.4744620000000  0.4599590000000  0.5367070000000 1.0
C      1  0.4836100000000  0.4770780000000  0.5899570000000 1.0
C      1  0.4743400000000  0.4312250000000  0.5460070000000 1.0
C      1  0.4491020000000  0.5193810000000  0.4206200000000 1.0
C      1  0.5712770000000  0.4345850000000  0.4754350000000 1.0
C      1  0.4248360000000  0.4546900000000  0.4873230000000 1.0
C      1  0.5346240000000  0.5428060000000  0.5681770000000 1.0
C      1  0.5135340000000  0.4627650000000  0.5022020000000 1.0
C      1  0.5159600000000  0.5394900000000  0.5900050000000 1.0
C      1  0.5802880000000  0.5268350000000  0.5038080000000 1.0
C      1  0.5002540000000  0.4658280000000  0.4244240000000 1.0
C      1  0.3989930000000  0.4959710000000  0.5010280000000 1.0
C      1  0.5489110000000  0.5679160000000  0.5067810000000 1.0
C      1  0.5461280000000  0.4326690000000  0.4604500000000 1.0
C      1  0.5565920000000  0.5548680000000  0.4574240000000 1.0
C      1  0.4339160000000  0.4656800000000  0.5582330000000 1.0
C      1  0.5325570000000  0.5136030000000  0.4795070000000 1.0
C      1  0.4854880000000  0.5933840000000  0.5530510000000 1.0
C      1  0.5082280000000  0.5820010000000  0.5698260000000 1.0
C      1  0.4723080000000  0.5177590000000  0.5854530000000 1.0
C      1  0.5573280000000  0.4798550000000  0.5113220000000 1.0
C      1  0.5209180000000  0.5746010000000  0.5017180000000 1.0
C      1  0.4937290000000  0.5369990000000  0.5275900000000 1.0
C      1  0.4999610000000  0.4019470000000  0.5176370000000 1.0
C      1  0.4472580000000  0.5809960000000  0.5168100000000 1.0
C      1  0.4576550000000  0.5851900000000  0.5458710000000 1.0
C      1  0.4260040000000  0.4948970000000  0.4537720000000 1.0
C      1  0.4713750000000  0.4200860000000  0.4859610000000 1.0
C      1  0.5033830000000  0.5650160000000  0.5908760000000 1.0
C      1  0.5429230000000  0.4375310000000  0.5412350000000 1.0
C      1  0.5758140000000  0.5331090000000  0.4594950000000 1.0
C      1  0.5097720000000  0.4881290000000  0.5933630000000 1.0
C      1  0.4658350000000  0.4735090000000  0.5667420000000 1.0
C      1  0.5030260000000  0.5105280000000  0.4452750000000 1.0
C      1  0.4315500000000  0.5223070000000  0.4436160000000 1.0
C      1  0.4500150000000  0.4162790000000  0.5062520000000 1.0
C      1  0.5223330000000  0.4888470000000  0.5661000000000 1.0
C      1  0.5505920000000  0.4839090000000  0.5595230000000 1.0
C      1  0.4207650000000  0.4847400000000  0.4836150000000 1.0
C      1  0.5011590000000  0.5759660000000  0.4797740000000 1.0
C      1  0.4816280000000  0.4948720000000  0.4551480000000 1.0
C      1  0.5663920000000  0.5662940000000  0.4832460000000 1.0
C      1  0.5860210000000  0.4615950000000  0.5354530000000 1.0
C      1  0.4928560000000  0.5850540000000  0.5286020000000 1.0
C      1  0.5172700000000  0.4449330000000  0.5485870000000 1.0
C      1  0.5216770000000  0.4138410000000  0.5003700000000 1.0
C      1  0.5024460000000  0.5102710000000  0.5207260000000 1.0
C      1  0.4633370000000  0.4931660000000  0.4289890000000 1.0
C      1  0.5094410000000  0.5648500000000  0.5262240000000 1.0
C      1  0.5903840000000  0.4458430000000  0.5111020000000 1.0
C      1  0.5684190000000  0.4956890000000  0.4282850000000 1.0
C      1  0.4738770000000  0.5026850000000  0.5602510000000 1.0
C      1  0.4997000000000  0.4257590000000  0.5603920000000 1.0
C      1  0.4933520000000  0.4706710000000  0.4851160000000 1.0
C      1  0.4744670000000  0.5536070000000  0.4241600000000 1.0
C      1  0.5639570000000  0.5061450000000  0.5476600000000 1.0
C      1  0.4313850000000  0.5496360000000  0.4583550000000 1.0
C      1  0.5505540000000  0.5246200000000  0.4995430000000 1.0
C      1  0.5897030000000  0.4859800000000  0.4779740000000 1.0
C      1  0.4906960000000  0.5115790000000  0.3995930000000 1.0
C      1  0.4853470000000  0.4846950000000  0.4084240000000 1.0
C      1  0.4788600000000  0.5729110000000  0.4430530000000 1.0
C      1  0.5218440000000  0.4218050000000  0.4718840000000 1.0
C      1  0.5709820000000  0.4248300000000  0.5032720000000 1.0
C      1  0.5441710000000  0.4482070000000  0.4357760000000 1.0
C      1  0.4784650000000  0.4026220000000  0.4610920000000 1.0
C      1  0.4310370000000  0.5276860000000  0.5048380000000 1.0
C      1  0.4903730000000  0.4957840000000  0.4982240000000 1.0
C      1  0.5721190000000  0.5011320000000  0.4585510000000 1.0
C      1  0.5294310000000  0.4719780000000  0.4380120000000 1.0
C      1  0.4599530000000  0.5452460000000  0.5839080000000 1.0
C      1  0.5045770000000  0.4023710000000  0.5452660000000 1.0
C      1  0.5389340000000  0.4735090000000  0.4927430000000 1.0
C      1  0.4471370000000  0.4501910000000  0.4694890000000 1.0
C      1  0.4203450000000  0.5384070000000  0.4803820000000 1.0
C      1  0.4660370000000  0.5409770000000  0.5353080000000 1.0
C      1  0.5296130000000  0.5670910000000  0.5526170000000 1.0
C      1  0.4994410000000  0.5158860000000  0.5968940000000 1.0
C      1  0.4758280000000  0.5584990000000  0.4850470000000 1.0
C      1  0.5448440000000  0.4223220000000  0.5162960000000 1.0
C      1  0.4784560000000  0.5643740000000  0.5897980000000 1.0
C      1  0.5126460000000  0.5160700000000  0.4181610000000 1.0
C      1  0.5534440000000  0.5328920000000  0.5489540000000 1.0
C      1  0.4980580000000  0.4228310000000  0.4526480000000 1.0
C      1  0.4728440000000  0.5083310000000  0.4799950000000 1.0
C      1  0.4463630000000  0.4983290000000  0.5002980000000 1.0
C      1  0.4029580000000  0.4980900000000  0.5290740000000 1.0
C      1  0.5112670000000  0.5304820000000  0.4635590000000 1.0
C      1  0.5893110000000  0.4574100000000  0.4833930000000 1.0
C      1  0.5032550000000  0.4599580000000  0.5292700000000 1.0
C      1  0.5534040000000  0.4712160000000  0.4227110000000 1.0
C      1  0.4032600000000  0.5209280000000  0.5126860000000 1.0
C      1  0.4860080000000  0.5335490000000  0.4770180000000 1.0
C      1  0.5016920000000  0.5009090000000  0.5491200000000 1.0
C      1  0.4840940000000  0.4464990000000  0.4373160000000 1.0
C      1  0.5335580000000  0.5374720000000  0.4193550000000 1.0
C      1  0.5068740000000  0.5747310000000  0.4519260000000 1.0
C      1  0.5416430000000  0.4887200000000  0.4666380000000 1.0
C      1  0.4548770000000  0.4517350000000  0.4415280000000 1.0
C      1  0.4263380000000  0.4451000000000  0.5395880000000 1.0
C      1  0.4698740000000  0.5332690000000  0.4055450000000 1.0
C      1  0.4390990000000  0.4758680000000  0.4368470000000 1.0
C      1  0.5536870000000  0.5184470000000  0.4205260000000 1.0
C      1  0.4478460000000  0.5899310000000  0.4890700000000 1.0
C      1  0.4693510000000  0.4096050000000  0.5266900000000 1.0
END
