TITL C-4164237-1827-110 1.04634441045452 125000 -14096.7996462164 0 0 95 (C1) n - 1
REM
REM in /home/nfs/bkarasulu/CARBON/AIRSS/Generating-Clusters/ReaxFF-fromJPCA2015/Units_Real/with-SteepDescent/Only-C1/SD-CG/Try1-3A/FIRE-CG
REM
REM
REM
REM
REM
REM ./C.cell (11c1c37f851c82e70ff6c80c92926a4b)
REM
REM compiler GCC version 9.2.1 20190827 (Red Hat 9.2.1-1)
REM options -cpp -mtune=generic -march=x86-64 -g -O0 -fpre-include=/usr/include/finclude/math-vector-fortran.h
REM seed 1686686904 -1966374144 -180837228 81354521 -352679492 167685464 1103514304 -1779478728 54004768 454310252 -350279678 1013695186 1762070262 -1302615021 -425990662 2090888334 905870539 -141300616 1414418456 -1418297764 1242850797 1027427454 492630037 -1238253182 622289040 -609413452 1815517056 648009151 -1689460851 -987208816 -2015354323 -1378965127 213875015
REM
CELL 1.54180   50.00000   50.00000   50.00000   90.00000   90.00000   90.00000
LATT -1
SFAC C  
C      1  0.4942060000000  0.4661550000000  0.4298500000000 1.0
C      1  0.5234970000000  0.4283570000000  0.5404420000000 1.0
C      1  0.5497330000000  0.4294550000000  0.5270060000000 1.0
C      1  0.4979000000000  0.4953120000000  0.4222950000000 1.0
C      1  0.5775180000000  0.5139670000000  0.4730860000000 1.0
C      1  0.4347700000000  0.4652920000000  0.5552590000000 1.0
C      1  0.5583710000000  0.5188940000000  0.5482710000000 1.0
C      1  0.5498900000000  0.5751600000000  0.4998600000000 1.0
C      1  0.4371120000000  0.4959650000000  0.4493520000000 1.0
C      1  0.4702000000000  0.5523310000000  0.4380850000000 1.0
C      1  0.4989630000000  0.4891320000000  0.4718700000000 1.0
C      1  0.4943640000000  0.5613100000000  0.4269130000000 1.0
C      1  0.5334700000000  0.4721620000000  0.5004310000000 1.0
C      1  0.4246830000000  0.4893180000000  0.5410150000000 1.0
C      1  0.4922130000000  0.5280240000000  0.5267570000000 1.0
C      1  0.4974740000000  0.4633380000000  0.4593130000000 1.0
C      1  0.4389500000000  0.4386370000000  0.5099910000000 1.0
C      1  0.5221010000000  0.5571750000000  0.4320460000000 1.0
C      1  0.4207170000000  0.4615760000000  0.5048450000000 1.0
C      1  0.4755880000000  0.4907320000000  0.5621090000000 1.0
C      1  0.5142510000000  0.5303790000000  0.4846870000000 1.0
C      1  0.5763770000000  0.5288780000000  0.4976610000000 1.0
C      1  0.5275670000000  0.4838540000000  0.5760920000000 1.0
C      1  0.5402080000000  0.4939230000000  0.5173830000000 1.0
C      1  0.5219930000000  0.5057810000000  0.4677740000000 1.0
C      1  0.5284710000000  0.4283940000000  0.4364700000000 1.0
C      1  0.4623260000000  0.5433450000000  0.5604520000000 1.0
C      1  0.5288610000000  0.5427780000000  0.5651620000000 1.0
C      1  0.5588230000000  0.4494240000000  0.5435200000000 1.0
C      1  0.4451580000000  0.4416960000000  0.5409440000000 1.0
C      1  0.4475530000000  0.4598160000000  0.4639080000000 1.0
C      1  0.4537690000000  0.4870500000000  0.4663840000000 1.0
C      1  0.4429050000000  0.5572150000000  0.5118400000000 1.0
C      1  0.5434950000000  0.4830410000000  0.4241010000000 1.0
C      1  0.5120820000000  0.4262730000000  0.4882170000000 1.0
C      1  0.5703750000000  0.5096120000000  0.5222720000000 1.0
C      1  0.5075360000000  0.4418180000000  0.4234970000000 1.0
C      1  0.5295700000000  0.4196800000000  0.4652780000000 1.0
C      1  0.4867650000000  0.4141750000000  0.4950990000000 1.0
C      1  0.5708040000000  0.4739970000000  0.5506540000000 1.0
C      1  0.5405230000000  0.5408870000000  0.5370350000000 1.0
C      1  0.5024870000000  0.4383440000000  0.5566290000000 1.0
C      1  0.5737030000000  0.4857560000000  0.4779710000000 1.0
C      1  0.4766990000000  0.5044250000000  0.4819590000000 1.0
C      1  0.4553150000000  0.5287250000000  0.4297110000000 1.0
C      1  0.4293820000000  0.5327970000000  0.5224470000000 1.0
C      1  0.5624400000000  0.4421940000000  0.5012150000000 1.0
C      1  0.5178820000000  0.4593290000000  0.5672590000000 1.0
C      1  0.5463260000000  0.4558720000000  0.4330100000000 1.0
C      1  0.4704490000000  0.4169210000000  0.4557940000000 1.0
C      1  0.4868870000000  0.5307100000000  0.4761760000000 1.0
C      1  0.5367620000000  0.4590770000000  0.4608070000000 1.0
C      1  0.5205240000000  0.4999080000000  0.5364190000000 1.0
C      1  0.5506520000000  0.5688180000000  0.5277690000000 1.0
C      1  0.5320410000000  0.5891810000000  0.5201610000000 1.0
C      1  0.4212740000000  0.5158630000000  0.5011980000000 1.0
C      1  0.4847290000000  0.6020690000000  0.4862470000000 1.0
C      1  0.5131480000000  0.5641040000000  0.5660100000000 1.0
C      1  0.5080460000000  0.5192220000000  0.5555570000000 1.0
C      1  0.5516300000000  0.4361750000000  0.4748630000000 1.0
C      1  0.4674390000000  0.5698860000000  0.5539840000000 1.0
C      1  0.5161940000000  0.5356100000000  0.5131590000000 1.0
C      1  0.4765390000000  0.5102920000000  0.4253220000000 1.0
C      1  0.4276950000000  0.5312380000000  0.4763670000000 1.0
C      1  0.4323180000000  0.5168040000000  0.5475700000000 1.0
C      1  0.5017250000000  0.4975630000000  0.5755650000000 1.0
C      1  0.4752080000000  0.3944870000000  0.4742060000000 1.0
C      1  0.5074620000000  0.5795660000000  0.4439240000000 1.0
C      1  0.4197000000000  0.4885130000000  0.5128930000000 1.0
C      1  0.4803740000000  0.5941870000000  0.5156600000000 1.0
C      1  0.4307060000000  0.5227330000000  0.4476590000000 1.0
C      1  0.5124540000000  0.4526610000000  0.5030420000000 1.0
C      1  0.5589970000000  0.5359120000000  0.4601580000000 1.0
C      1  0.4780600000000  0.5059960000000  0.5142340000000 1.0
C      1  0.4903640000000  0.5810600000000  0.4671610000000 1.0
C      1  0.5047220000000  0.5926760000000  0.5311470000000 1.0
C      1  0.4602130000000  0.4657810000000  0.5710360000000 1.0
C      1  0.5785660000000  0.4674530000000  0.5003120000000 1.0
C      1  0.4596210000000  0.5764920000000  0.5266240000000 1.0
C      1  0.5435480000000  0.4822780000000  0.4747840000000 1.0
C      1  0.4874040000000  0.4589100000000  0.5162040000000 1.0
C      1  0.4716330000000  0.5542670000000  0.4676200000000 1.0
C      1  0.4953700000000  0.5829530000000  0.5576850000000 1.0
C      1  0.4708600000000  0.4389370000000  0.5007730000000 1.0
C      1  0.5831350000000  0.4824140000000  0.5250350000000 1.0
C      1  0.4441050000000  0.5532280000000  0.4835080000000 1.0
C      1  0.4729400000000  0.4458490000000  0.4676720000000 1.0
C      1  0.5263400000000  0.5065180000000  0.4338470000000 1.0
C      1  0.4693330000000  0.4417170000000  0.5573660000000 1.0
C      1  0.4287980000000  0.4495470000000  0.4826310000000 1.0
C      1  0.4564050000000  0.5174290000000  0.5642360000000 1.0
C      1  0.5382970000000  0.5344820000000  0.4399340000000 1.0
C      1  0.5603020000000  0.5506510000000  0.4863530000000 1.0
C      1  0.5534340000000  0.4950040000000  0.5637890000000 1.0
C      1  0.4782270000000  0.4831120000000  0.5301130000000 1.0
END
