TITL C-4164237-1827-175 13.2899176579801 125000 -16259.3704528793 0 0 109 (C1) n - 1
REM
REM in /home/nfs/bkarasulu/CARBON/AIRSS/Generating-Clusters/ReaxFF-fromJPCA2015/Units_Real/with-SteepDescent/Only-C1/SD-CG/Try1-3A/FIRE-CG
REM
REM
REM
REM
REM
REM ./C.cell (11c1c37f851c82e70ff6c80c92926a4b)
REM
REM compiler GCC version 9.2.1 20190827 (Red Hat 9.2.1-1)
REM options -cpp -mtune=generic -march=x86-64 -g -O0 -fpre-include=/usr/include/finclude/math-vector-fortran.h
REM seed 1525953026 -31615360 -906627502 1008790326 -5084212 -1199293895 -255986150 225282895 1975446517 768829564 599282946 -6122978 1425612005 2120754755 442325640 48279734 -266041446 290475700 -489505563 -1296955897 2052233000 -227509072 1580653684 -1550667354 1982572754 763712870 -316035729 -683515078 166198128 1971897128 -1825045239 -676287028 310341227
REM
CELL 1.54180   50.00000   50.00000   50.00000   90.00000   90.00000   90.00000
LATT -1
SFAC C  
C      1  0.4494460000000  0.5777870000000  0.5094450000000 1.0
C      1  0.5544300000000  0.4816590000000  0.4159590000000 1.0
C      1  0.5459760000000  0.5162990000000  0.5818690000000 1.0
C      1  0.4200670000000  0.5095990000000  0.4522360000000 1.0
C      1  0.4610330000000  0.5352280000000  0.4992620000000 1.0
C      1  0.4935810000000  0.4449410000000  0.5600050000000 1.0
C      1  0.5629490000000  0.4949180000000  0.4422610000000 1.0
C      1  0.4866500000000  0.5201340000000  0.4150940000000 1.0
C      1  0.4162450000000  0.5080640000000  0.5323100000000 1.0
C      1  0.4724740000000  0.4448930000000  0.4410800000000 1.0
C      1  0.5054870000000  0.5435940000000  0.5159890000000 1.0
C      1  0.4788100000000  0.5838450000000  0.5154030000000 1.0
C      1  0.4148180000000  0.4821630000000  0.4598400000000 1.0
C      1  0.4627950000000  0.5411660000000  0.5659060000000 1.0
C      1  0.4217350000000  0.4499510000000  0.4969510000000 1.0
C      1  0.5751060000000  0.4083040000000  0.4699190000000 1.0
C      1  0.4738130000000  0.4886980000000  0.5383330000000 1.0
C      1  0.4491760000000  0.4888720000000  0.4970390000000 1.0
C      1  0.4467030000000  0.5605760000000  0.4605400000000 1.0
C      1  0.4859610000000  0.5578670000000  0.5278120000000 1.0
C      1  0.5022650000000  0.4261640000000  0.5397030000000 1.0
C      1  0.5023180000000  0.5626250000000  0.4433080000000 1.0
C      1  0.4830130000000  0.5460210000000  0.4291240000000 1.0
C      1  0.4728030000000  0.4187730000000  0.4576010000000 1.0
C      1  0.5033530000000  0.5972890000000  0.5348030000000 1.0
C      1  0.5088930000000  0.5008190000000  0.4118130000000 1.0
C      1  0.5375810000000  0.5431610000000  0.5709950000000 1.0
C      1  0.5002070000000  0.4121050000000  0.4626760000000 1.0
C      1  0.5246310000000  0.5727290000000  0.4764980000000 1.0
C      1  0.5178960000000  0.5112710000000  0.5900050000000 1.0
C      1  0.5112610000000  0.4245400000000  0.4380760000000 1.0
C      1  0.5127930000000  0.4844240000000  0.5864970000000 1.0
C      1  0.5559710000000  0.5212440000000  0.4307360000000 1.0
C      1  0.5410640000000  0.4663040000000  0.5625050000000 1.0
C      1  0.5310660000000  0.4244480000000  0.5334580000000 1.0
C      1  0.5434110000000  0.5328090000000  0.4983710000000 1.0
C      1  0.5558440000000  0.4911600000000  0.5684750000000 1.0
C      1  0.4979020000000  0.5178350000000  0.4736420000000 1.0
C      1  0.5558550000000  0.4815140000000  0.4922520000000 1.0
C      1  0.5333550000000  0.4661780000000  0.5081980000000 1.0
C      1  0.5286380000000  0.5592960000000  0.5023300000000 1.0
C      1  0.4442220000000  0.4523900000000  0.4286210000000 1.0
C      1  0.5785100000000  0.4957240000000  0.5512120000000 1.0
C      1  0.5588140000000  0.4108850000000  0.4922260000000 1.0
C      1  0.4992000000000  0.5791980000000  0.4675370000000 1.0
C      1  0.4607840000000  0.4886200000000  0.4703980000000 1.0
C      1  0.5858810000000  0.5523710000000  0.5438470000000 1.0
C      1  0.4110160000000  0.4752150000000  0.4883540000000 1.0
C      1  0.5178530000000  0.4994180000000  0.4650730000000 1.0
C      1  0.4250630000000  0.4552310000000  0.4496610000000 1.0
C      1  0.4389000000000  0.5228630000000  0.4322800000000 1.0
C      1  0.5306850000000  0.6021550000000  0.5266580000000 1.0
C      1  0.5842230000000  0.5449650000000  0.4973330000000 1.0
C      1  0.4383510000000  0.4949000000000  0.5731070000000 1.0
C      1  0.5101500000000  0.5800480000000  0.5567400000000 1.0
C      1  0.4682710000000  0.4615040000000  0.5584880000000 1.0
C      1  0.4441610000000  0.4457540000000  0.5478690000000 1.0
C      1  0.4526510000000  0.5342810000000  0.4724700000000 1.0
C      1  0.4918160000000  0.4659790000000  0.4973250000000 1.0
C      1  0.5362530000000  0.4105380000000  0.5086720000000 1.0
C      1  0.5977260000000  0.4255300000000  0.4874560000000 1.0
C      1  0.4132150000000  0.4908870000000  0.5563590000000 1.0
C      1  0.5108560000000  0.5318710000000  0.5653740000000 1.0
C      1  0.4290490000000  0.4361880000000  0.4736660000000 1.0
C      1  0.4890230000000  0.5553470000000  0.5576360000000 1.0
C      1  0.5150620000000  0.4589740000000  0.5753370000000 1.0
C      1  0.4542360000000  0.4748030000000  0.5851840000000 1.0
C      1  0.4343060000000  0.5294670000000  0.5380440000000 1.0
C      1  0.5047230000000  0.4790950000000  0.4519780000000 1.0
C      1  0.5008480000000  0.4957540000000  0.5321690000000 1.0
C      1  0.4656620000000  0.4738570000000  0.5144810000000 1.0
C      1  0.4528320000000  0.5812870000000  0.4807800000000 1.0
C      1  0.5464650000000  0.5739500000000  0.5266190000000 1.0
C      1  0.4218290000000  0.4980990000000  0.5023430000000 1.0
C      1  0.5458770000000  0.4503650000000  0.5370100000000 1.0
C      1  0.4131580000000  0.5206520000000  0.4793850000000 1.0
C      1  0.5365200000000  0.5680190000000  0.5547860000000 1.0
C      1  0.5808600000000  0.4907090000000  0.5041770000000 1.0
C      1  0.5101340000000  0.4832470000000  0.5111610000000 1.0
C      1  0.5870380000000  0.4377230000000  0.5102860000000 1.0
C      1  0.5867560000000  0.4770080000000  0.5304990000000 1.0
C      1  0.5645500000000  0.5360570000000  0.4776560000000 1.0
C      1  0.4615440000000  0.4218330000000  0.5066230000000 1.0
C      1  0.4802800000000  0.5890600000000  0.4849010000000 1.0
C      1  0.5467380000000  0.4930180000000  0.4678260000000 1.0
C      1  0.4877400000000  0.4168550000000  0.5155520000000 1.0
C      1  0.5310640000000  0.5597670000000  0.4510690000000 1.0
C      1  0.5095760000000  0.4178570000000  0.4932240000000 1.0
C      1  0.5148910000000  0.4474610000000  0.4933090000000 1.0
C      1  0.4539810000000  0.5492380000000  0.4347760000000 1.0
C      1  0.5541080000000  0.5425210000000  0.4503610000000 1.0
C      1  0.5881440000000  0.5187270000000  0.5093790000000 1.0
C      1  0.4389280000000  0.5494040000000  0.5133090000000 1.0
C      1  0.5446760000000  0.5212050000000  0.5244060000000 1.0
C      1  0.5172540000000  0.5193510000000  0.5367580000000 1.0
C      1  0.4889250000000  0.5317280000000  0.4973550000000 1.0
C      1  0.4583070000000  0.5091970000000  0.4147850000000 1.0
C      1  0.4815970000000  0.4682920000000  0.4648560000000 1.0
C      1  0.5767560000000  0.4494520000000  0.5322490000000 1.0
C      1  0.4715070000000  0.5142380000000  0.4627900000000 1.0
C      1  0.4140950000000  0.5455370000000  0.4917180000000 1.0
C      1  0.5760880000000  0.5641750000000  0.5203140000000 1.0
C      1  0.5072020000000  0.4743020000000  0.4246300000000 1.0
C      1  0.4454400000000  0.4466300000000  0.5180120000000 1.0
C      1  0.5378360000000  0.5068970000000  0.4106940000000 1.0
C      1  0.4553150000000  0.5147710000000  0.5535700000000 1.0
C      1  0.4527430000000  0.4194110000000  0.4789230000000 1.0
C      1  0.5733130000000  0.5219320000000  0.5364060000000 1.0
C      1  0.4970470000000  0.4469400000000  0.4236280000000 1.0
END
