TITL C-4164243-3780-191 -8.72796554970238 125000 -21185.0852100709 0 0 143 (C1) n - 1
REM
REM in /home/nfs/bkarasulu/CARBON/AIRSS/Generating-Clusters/ReaxFF-fromJPCA2015/Units_Real/with-SteepDescent/Only-C1/SD-CG/Try1-3A/FIRE-CG
REM
REM
REM
REM
REM
REM ./C.cell (11c1c37f851c82e70ff6c80c92926a4b)
REM
REM compiler GCC version 9.2.1 20190827 (Red Hat 9.2.1-1)
REM options -cpp -mtune=generic -march=x86-64 -g -O0 -fpre-include=/usr/include/finclude/math-vector-fortran.h
REM seed 1673238573 480531054 996535310 -2100610039 938433039 -1634500517 -1932813042 -1609974523 295708473 -232588202 728683311 -1335921722 1119349091 -829283718 1757644905 -1961121837 1767966875 1381753097 -1799855610 1519610960 -989353012 746334136 869571867 -61945926 -825197312 -1936799992 -424560607 -632987859 -929915046 -1775440822 -1507056233 85630130 491547322
REM
CELL 1.54180   50.00000   50.00000   50.00000   90.00000   90.00000   90.00000
LATT -1
SFAC C  
C      1  0.4848010000000  0.5582170000000  0.4100260000000 1.0
C      1  0.5285050000000  0.4934780000000  0.4054940000000 1.0
C      1  0.4942320000000  0.4432230000000  0.5223380000000 1.0
C      1  0.4292480000000  0.5115050000000  0.4605980000000 1.0
C      1  0.5093380000000  0.5612500000000  0.5747030000000 1.0
C      1  0.5487920000000  0.4512660000000  0.4465880000000 1.0
C      1  0.4037790000000  0.4644250000000  0.5416530000000 1.0
C      1  0.5638920000000  0.4741950000000  0.4531100000000 1.0
C      1  0.4731390000000  0.5091090000000  0.5409630000000 1.0
C      1  0.5698430000000  0.5436940000000  0.4367590000000 1.0
C      1  0.4794650000000  0.6087880000000  0.4742090000000 1.0
C      1  0.5010680000000  0.6165210000000  0.4910660000000 1.0
C      1  0.4359860000000  0.5051240000000  0.5051060000000 1.0
C      1  0.5537800000000  0.5046120000000  0.4141020000000 1.0
C      1  0.4086080000000  0.5165120000000  0.5004200000000 1.0
C      1  0.4401090000000  0.5294460000000  0.5887960000000 1.0
C      1  0.5944880000000  0.4699640000000  0.5244710000000 1.0
C      1  0.4609430000000  0.5483250000000  0.5974970000000 1.0
C      1  0.4595790000000  0.5504620000000  0.5548940000000 1.0
C      1  0.4588760000000  0.5341440000000  0.4380440000000 1.0
C      1  0.5369830000000  0.5569220000000  0.4146890000000 1.0
C      1  0.4930260000000  0.5599990000000  0.4761820000000 1.0
C      1  0.4934620000000  0.4757510000000  0.5697200000000 1.0
C      1  0.4776250000000  0.5330830000000  0.6152240000000 1.0
C      1  0.5875920000000  0.5519980000000  0.4858820000000 1.0
C      1  0.4934940000000  0.4087270000000  0.5205700000000 1.0
C      1  0.5611480000000  0.5133710000000  0.5395940000000 1.0
C      1  0.5767290000000  0.4285120000000  0.5163420000000 1.0
C      1  0.5300700000000  0.6159170000000  0.4762610000000 1.0
C      1  0.5329090000000  0.5336180000000  0.4742500000000 1.0
C      1  0.4790020000000  0.5362870000000  0.4841580000000 1.0
C      1  0.5120230000000  0.5556520000000  0.4029360000000 1.0
C      1  0.5426120000000  0.5215260000000  0.5812510000000 1.0
C      1  0.5268910000000  0.5853340000000  0.5279070000000 1.0
C      1  0.5374270000000  0.5209270000000  0.4985120000000 1.0
C      1  0.4175980000000  0.5381170000000  0.4584450000000 1.0
C      1  0.5338980000000  0.5964920000000  0.4560660000000 1.0
C      1  0.4760900000000  0.5644140000000  0.5763950000000 1.0
C      1  0.5717550000000  0.4949630000000  0.4352640000000 1.0
C      1  0.4881740000000  0.4383750000000  0.5866510000000 1.0
C      1  0.4123350000000  0.4686680000000  0.4591860000000 1.0
C      1  0.4100070000000  0.5548190000000  0.4821700000000 1.0
C      1  0.4865730000000  0.4223300000000  0.4615520000000 1.0
C      1  0.4913590000000  0.5756740000000  0.4320230000000 1.0
C      1  0.5123640000000  0.3929030000000  0.4507850000000 1.0
C      1  0.4883970000000  0.5041710000000  0.3999460000000 1.0
C      1  0.5385330000000  0.3988110000000  0.5018920000000 1.0
C      1  0.4972900000000  0.3981260000000  0.4733240000000 1.0
C      1  0.4387760000000  0.5518870000000  0.4472190000000 1.0
C      1  0.5200080000000  0.5587930000000  0.4683580000000 1.0
C      1  0.4798080000000  0.5195190000000  0.4549190000000 1.0
C      1  0.6055300000000  0.5150210000000  0.4905380000000 1.0
C      1  0.5703570000000  0.5737700000000  0.5300410000000 1.0
C      1  0.5185160000000  0.4638070000000  0.4086380000000 1.0
C      1  0.4888000000000  0.5006610000000  0.5191610000000 1.0
C      1  0.3976980000000  0.5100610000000  0.5266510000000 1.0
C      1  0.5524700000000  0.5881220000000  0.5124890000000 1.0
C      1  0.4920630000000  0.4535270000000  0.4201150000000 1.0
C      1  0.5218960000000  0.4555030000000  0.4548440000000 1.0
C      1  0.5035130000000  0.4359330000000  0.4417570000000 1.0
C      1  0.6060930000000  0.4936960000000  0.4728090000000 1.0
C      1  0.5504690000000  0.4132680000000  0.4815170000000 1.0
C      1  0.5554270000000  0.5598710000000  0.5521250000000 1.0
C      1  0.4058850000000  0.4662360000000  0.4891810000000 1.0
C      1  0.5231540000000  0.5443900000000  0.5928750000000 1.0
C      1  0.5100470000000  0.4581330000000  0.5868620000000 1.0
C      1  0.4183090000000  0.4448380000000  0.4426780000000 1.0
C      1  0.4127140000000  0.4240340000000  0.5216430000000 1.0
C      1  0.4771450000000  0.4104190000000  0.5439200000000 1.0
C      1  0.4500710000000  0.5078250000000  0.4810330000000 1.0
C      1  0.4447810000000  0.5008180000000  0.5915160000000 1.0
C      1  0.5845080000000  0.4889370000000  0.5413910000000 1.0
C      1  0.4938850000000  0.4597270000000  0.5475440000000 1.0
C      1  0.4938870000000  0.4147460000000  0.5694940000000 1.0
C      1  0.4655640000000  0.5457610000000  0.5085420000000 1.0
C      1  0.5948510000000  0.4671600000000  0.4914810000000 1.0
C      1  0.4608230000000  0.5054070000000  0.4033090000000 1.0
C      1  0.4939740000000  0.5053210000000  0.5718500000000 1.0
C      1  0.4483400000000  0.4839730000000  0.4214790000000 1.0
C      1  0.5888370000000  0.5323330000000  0.5053490000000 1.0
C      1  0.5171040000000  0.5091440000000  0.5172400000000 1.0
C      1  0.4534110000000  0.5876970000000  0.5349420000000 1.0
C      1  0.4334380000000  0.5389140000000  0.5618380000000 1.0
C      1  0.4439040000000  0.4384110000000  0.5626660000000 1.0
C      1  0.5470150000000  0.4886700000000  0.5875070000000 1.0
C      1  0.5417430000000  0.4483000000000  0.4141060000000 1.0
C      1  0.5074660000000  0.5317050000000  0.6135750000000 1.0
C      1  0.4095150000000  0.4442040000000  0.5020280000000 1.0
C      1  0.5219250000000  0.4727880000000  0.4909790000000 1.0
C      1  0.4601500000000  0.4492730000000  0.5853010000000 1.0
C      1  0.4275580000000  0.4886330000000  0.4422780000000 1.0
C      1  0.5759610000000  0.5735420000000  0.5012480000000 1.0
C      1  0.5083820000000  0.3948420000000  0.5007330000000 1.0
C      1  0.5625160000000  0.5239370000000  0.5127130000000 1.0
C      1  0.5569970000000  0.5350130000000  0.4142910000000 1.0
C      1  0.4752910000000  0.4773800000000  0.5078970000000 1.0
C      1  0.4846930000000  0.4899560000000  0.4602650000000 1.0
C      1  0.5319950000000  0.5064700000000  0.5403770000000 1.0
C      1  0.4754540000000  0.5366030000000  0.5345030000000 1.0
C      1  0.5197850000000  0.4150230000000  0.5601320000000 1.0
C      1  0.5386610000000  0.4636260000000  0.5780910000000 1.0
C      1  0.4316560000000  0.5743300000000  0.4877150000000 1.0
C      1  0.5207280000000  0.5725760000000  0.4402050000000 1.0
C      1  0.4665630000000  0.4515220000000  0.5166820000000 1.0
C      1  0.5860670000000  0.5394490000000  0.4578570000000 1.0
C      1  0.5609800000000  0.5336020000000  0.5615080000000 1.0
C      1  0.4667300000000  0.4824520000000  0.4806350000000 1.0
C      1  0.5915010000000  0.5099430000000  0.4517280000000 1.0
C      1  0.5446520000000  0.4190700000000  0.5500990000000 1.0
C      1  0.4751140000000  0.5817530000000  0.4592190000000 1.0
C      1  0.4910240000000  0.5113560000000  0.6010080000000 1.0
C      1  0.5690540000000  0.4777950000000  0.4816960000000 1.0
C      1  0.4634390000000  0.4588970000000  0.4210910000000 1.0
C      1  0.5803230000000  0.4477220000000  0.5380480000000 1.0
C      1  0.5485420000000  0.4760680000000  0.5013860000000 1.0
C      1  0.4603840000000  0.4320700000000  0.4616320000000 1.0
C      1  0.4220180000000  0.5217890000000  0.5405430000000 1.0
C      1  0.5553050000000  0.4099220000000  0.5236660000000 1.0
C      1  0.4640280000000  0.5909080000000  0.5616890000000 1.0
C      1  0.5260400000000  0.5118020000000  0.4602240000000 1.0
C      1  0.4107390000000  0.5438940000000  0.5078590000000 1.0
C      1  0.4446340000000  0.5054440000000  0.5319470000000 1.0
C      1  0.4179570000000  0.4394280000000  0.5494100000000 1.0
C      1  0.5119780000000  0.6004740000000  0.5119280000000 1.0
C      1  0.3978540000000  0.4811750000000  0.5181670000000 1.0
C      1  0.4635820000000  0.5347220000000  0.4100760000000 1.0
C      1  0.5188010000000  0.4061290000000  0.4291700000000 1.0
C      1  0.5277280000000  0.5694760000000  0.5547760000000 1.0
C      1  0.5091000000000  0.5134630000000  0.4154060000000 1.0
C      1  0.5401630000000  0.4600640000000  0.5245460000000 1.0
C      1  0.5162500000000  0.4548130000000  0.5114500000000 1.0
C      1  0.5522030000000  0.4497350000000  0.5507240000000 1.0
C      1  0.4516760000000  0.4757360000000  0.5903620000000 1.0
C      1  0.4503970000000  0.5708490000000  0.5105040000000 1.0
C      1  0.5050760000000  0.5204310000000  0.4433180000000 1.0
C      1  0.4460330000000  0.5738130000000  0.4624410000000 1.0
C      1  0.4572760000000  0.4318140000000  0.5376090000000 1.0
C      1  0.5214050000000  0.5099380000000  0.5649160000000 1.0
C      1  0.4468760000000  0.4378010000000  0.4357410000000 1.0
C      1  0.4597240000000  0.4586780000000  0.4692460000000 1.0
C      1  0.5130840000000  0.4816200000000  0.4649390000000 1.0
C      1  0.5832110000000  0.4388830000000  0.4891450000000 1.0
C      1  0.5651100000000  0.4312170000000  0.4676370000000 1.0
END
