TITL C-4164243-3780-251 115.899052940669 125000 -26207.6518657846 0 0 177 (C1) n - 1
REM
REM in /home/nfs/bkarasulu/CARBON/AIRSS/Generating-Clusters/ReaxFF-fromJPCA2015/Units_Real/with-SteepDescent/Only-C1/SD-CG/Try1-3A/FIRE-CG
REM
REM
REM
REM
REM
REM ./C.cell (11c1c37f851c82e70ff6c80c92926a4b)
REM
REM compiler GCC version 9.2.1 20190827 (Red Hat 9.2.1-1)
REM options -cpp -mtune=generic -march=x86-64 -g -O0 -fpre-include=/usr/include/finclude/math-vector-fortran.h
REM seed -985899770 2005399534 678825699 -1199980505 510012387 -800038761 -192077699 -500546510 636411868 1234881332 1031801194 -191337149 1605464040 179357699 -163803179 -574987039 -611503183 1310629602 1295958830 -318403336 1306613472 201161715 403162743 -933699585 2005467503 1404838688 1700302459 -1834535900 342151737 -1742343056 -2137195782 581223577 -59150637
REM
CELL 1.54180   50.00000   50.00000   50.00000   90.00000   90.00000   90.00000
LATT -1
SFAC C  
C      1  0.4707730000000  0.5620300000000  0.4855750000000 1.0
C      1  0.4751910000000  0.5878040000000  0.4735150000000 1.0
C      1  0.4349100000000  0.5932600000000  0.5198520000000 1.0
C      1  0.4642700000000  0.4885400000000  0.5493880000000 1.0
C      1  0.5672450000000  0.5177220000000  0.4153320000000 1.0
C      1  0.5153580000000  0.4458410000000  0.5110930000000 1.0
C      1  0.4253130000000  0.4911110000000  0.5813570000000 1.0
C      1  0.4790290000000  0.5896900000000  0.5791790000000 1.0
C      1  0.4323460000000  0.4167320000000  0.5204430000000 1.0
C      1  0.5685090000000  0.5649750000000  0.5390680000000 1.0
C      1  0.4391590000000  0.4850830000000  0.5130070000000 1.0
C      1  0.4742220000000  0.3910890000000  0.5072600000000 1.0
C      1  0.5478320000000  0.4300410000000  0.5931210000000 1.0
C      1  0.5073270000000  0.4311260000000  0.5817160000000 1.0
C      1  0.3873510000000  0.5045570000000  0.5132700000000 1.0
C      1  0.5256530000000  0.5672450000000  0.4172960000000 1.0
C      1  0.6115680000000  0.5410790000000  0.5300030000000 1.0
C      1  0.5172480000000  0.4201300000000  0.5420830000000 1.0
C      1  0.5627730000000  0.4975780000000  0.5114720000000 1.0
C      1  0.5179520000000  0.5157670000000  0.4065860000000 1.0
C      1  0.4548810000000  0.5508260000000  0.5902620000000 1.0
C      1  0.5889400000000  0.4530820000000  0.4455770000000 1.0
C      1  0.4524910000000  0.4450930000000  0.5899210000000 1.0
C      1  0.5705430000000  0.5769160000000  0.5106050000000 1.0
C      1  0.4574300000000  0.5563740000000  0.5090240000000 1.0
C      1  0.5057580000000  0.5252730000000  0.5500860000000 1.0
C      1  0.5458700000000  0.4739900000000  0.4000070000000 1.0
C      1  0.4244950000000  0.4325080000000  0.5449140000000 1.0
C      1  0.4176220000000  0.5827310000000  0.4731910000000 1.0
C      1  0.5890510000000  0.4983360000000  0.4145250000000 1.0
C      1  0.4860850000000  0.4296690000000  0.4263640000000 1.0
C      1  0.4967850000000  0.4767180000000  0.3835410000000 1.0
C      1  0.4868630000000  0.5136010000000  0.6077920000000 1.0
C      1  0.4814970000000  0.4768030000000  0.4513970000000 1.0
C      1  0.4847370000000  0.5170950000000  0.4765510000000 1.0
C      1  0.4399960000000  0.4712090000000  0.5988990000000 1.0
C      1  0.4139980000000  0.4986300000000  0.4586130000000 1.0
C      1  0.4928390000000  0.4874700000000  0.5946100000000 1.0
C      1  0.5831350000000  0.4981120000000  0.5323860000000 1.0
C      1  0.4605740000000  0.5699260000000  0.4309550000000 1.0
C      1  0.5282910000000  0.5773860000000  0.5033080000000 1.0
C      1  0.6061050000000  0.5403580000000  0.5002290000000 1.0
C      1  0.4976190000000  0.5704390000000  0.4776140000000 1.0
C      1  0.4655180000000  0.5946050000000  0.4471710000000 1.0
C      1  0.5444980000000  0.5949550000000  0.4611940000000 1.0
C      1  0.6074680000000  0.4683560000000  0.4520250000000 1.0
C      1  0.5368230000000  0.4098610000000  0.4784150000000 1.0
C      1  0.4391170000000  0.5123080000000  0.5887840000000 1.0
C      1  0.5069360000000  0.5333530000000  0.6104570000000 1.0
C      1  0.5473550000000  0.5790930000000  0.4368440000000 1.0
C      1  0.6214340000000  0.5144980000000  0.5294170000000 1.0
C      1  0.5347310000000  0.5564510000000  0.4830840000000 1.0
C      1  0.6079280000000  0.5151620000000  0.4843420000000 1.0
C      1  0.5163920000000  0.5989040000000  0.5480420000000 1.0
C      1  0.4575830000000  0.4206960000000  0.4238640000000 1.0
C      1  0.5001510000000  0.5607260000000  0.6077630000000 1.0
C      1  0.4546360000000  0.4836860000000  0.4360570000000 1.0
C      1  0.4935240000000  0.4499920000000  0.4473360000000 1.0
C      1  0.5163830000000  0.5545460000000  0.4631460000000 1.0
C      1  0.4614650000000  0.5050320000000  0.5118790000000 1.0
C      1  0.5183370000000  0.5515260000000  0.5471480000000 1.0
C      1  0.4579380000000  0.5862270000000  0.5591660000000 1.0
C      1  0.4420230000000  0.5395310000000  0.5420100000000 1.0
C      1  0.5402610000000  0.4222340000000  0.4292770000000 1.0
C      1  0.5256240000000  0.5250380000000  0.5083150000000 1.0
C      1  0.5499330000000  0.4608260000000  0.5386190000000 1.0
C      1  0.5192630000000  0.6049950000000  0.4522960000000 1.0
C      1  0.4788490000000  0.5714320000000  0.4090830000000 1.0
C      1  0.5076060000000  0.5928360000000  0.5756340000000 1.0
C      1  0.4934750000000  0.4344270000000  0.5537520000000 1.0
C      1  0.5204460000000  0.4887360000000  0.3930030000000 1.0
C      1  0.5090410000000  0.3942210000000  0.4791510000000 1.0
C      1  0.4858420000000  0.5448620000000  0.3994050000000 1.0
C      1  0.3822880000000  0.4777480000000  0.5051620000000 1.0
C      1  0.5417250000000  0.5016450000000  0.5940240000000 1.0
C      1  0.5491330000000  0.5155450000000  0.4932550000000 1.0
C      1  0.5951480000000  0.5147630000000  0.4585160000000 1.0
C      1  0.4712170000000  0.5265690000000  0.4182790000000 1.0
C      1  0.5723210000000  0.4395610000000  0.5812020000000 1.0
C      1  0.5359170000000  0.4378850000000  0.5291990000000 1.0
C      1  0.4260480000000  0.4580700000000  0.4665630000000 1.0
C      1  0.4679300000000  0.4166350000000  0.5517410000000 1.0
C      1  0.5338840000000  0.5299700000000  0.5996900000000 1.0
C      1  0.4078260000000  0.4404620000000  0.4813170000000 1.0
C      1  0.5535950000000  0.4165340000000  0.4549610000000 1.0
C      1  0.5715520000000  0.5304440000000  0.4540850000000 1.0
C      1  0.4713170000000  0.4733670000000  0.4832210000000 1.0
C      1  0.5711500000000  0.4072800000000  0.5122050000000 1.0
C      1  0.4466120000000  0.4290790000000  0.5655470000000 1.0
C      1  0.5787850000000  0.5166880000000  0.5557710000000 1.0
C      1  0.4796370000000  0.4294280000000  0.4933330000000 1.0
C      1  0.5477290000000  0.3952330000000  0.5059090000000 1.0
C      1  0.4337290000000  0.5299880000000  0.4881280000000 1.0
C      1  0.5147970000000  0.5432700000000  0.3988730000000 1.0
C      1  0.5880500000000  0.4368130000000  0.5344350000000 1.0
C      1  0.5061840000000  0.4843110000000  0.5428530000000 1.0
C      1  0.5513320000000  0.5914220000000  0.4935080000000 1.0
C      1  0.4101470000000  0.5150110000000  0.4811080000000 1.0
C      1  0.5994330000000  0.4921500000000  0.4409810000000 1.0
C      1  0.5022870000000  0.5191140000000  0.4319250000000 1.0
C      1  0.5190730000000  0.5090130000000  0.5327500000000 1.0
C      1  0.4683100000000  0.4668250000000  0.6000120000000 1.0
C      1  0.5942540000000  0.4398140000000  0.4842320000000 1.0
C      1  0.4377020000000  0.6002880000000  0.4629350000000 1.0
C      1  0.4679930000000  0.4533530000000  0.5046060000000 1.0
C      1  0.4544260000000  0.5260060000000  0.4676170000000 1.0
C      1  0.5122680000000  0.4207000000000  0.4255880000000 1.0
C      1  0.4400000000000  0.4144710000000  0.4443140000000 1.0
C      1  0.4425360000000  0.4995420000000  0.4595650000000 1.0
C      1  0.5279330000000  0.3851570000000  0.5258260000000 1.0
C      1  0.6141020000000  0.4891990000000  0.4960000000000 1.0
C      1  0.3904540000000  0.4586380000000  0.4945820000000 1.0
C      1  0.4698160000000  0.4041800000000  0.4828420000000 1.0
C      1  0.5788580000000  0.4324750000000  0.4602690000000 1.0
C      1  0.4215160000000  0.5768880000000  0.5043080000000 1.0
C      1  0.5036490000000  0.3860000000000  0.5071180000000 1.0
C      1  0.3846010000000  0.5262110000000  0.4913820000000 1.0
C      1  0.4340180000000  0.4361430000000  0.4274120000000 1.0
C      1  0.4474190000000  0.5587980000000  0.5628440000000 1.0
C      1  0.5465450000000  0.5555050000000  0.5566100000000 1.0
C      1  0.4976220000000  0.6131500000000  0.5336590000000 1.0
C      1  0.5603900000000  0.5090400000000  0.5747320000000 1.0
C      1  0.4994000000000  0.4404090000000  0.4745900000000 1.0
C      1  0.4418140000000  0.4780550000000  0.4814660000000 1.0
C      1  0.5277530000000  0.4108260000000  0.5799710000000 1.0
C      1  0.6107030000000  0.4887090000000  0.5254220000000 1.0
C      1  0.5611810000000  0.5411220000000  0.4800860000000 1.0
C      1  0.4154010000000  0.4584920000000  0.5471610000000 1.0
C      1  0.5268800000000  0.4426840000000  0.4836040000000 1.0
C      1  0.3909780000000  0.5503310000000  0.4780730000000 1.0
C      1  0.5216890000000  0.4791700000000  0.5965290000000 1.0
C      1  0.5275500000000  0.4950380000000  0.4738270000000 1.0
C      1  0.5834870000000  0.5571280000000  0.4941480000000 1.0
C      1  0.4200790000000  0.5430160000000  0.4359560000000 1.0
C      1  0.4591840000000  0.5161100000000  0.5386890000000 1.0
C      1  0.5014480000000  0.5345740000000  0.4962570000000 1.0
C      1  0.4285010000000  0.4637270000000  0.4374050000000 1.0
C      1  0.5231250000000  0.5403860000000  0.4385290000000 1.0
C      1  0.4113120000000  0.4955160000000  0.5275260000000 1.0
C      1  0.4073220000000  0.4894870000000  0.4325430000000 1.0
C      1  0.4754040000000  0.5691460000000  0.5984330000000 1.0
C      1  0.5183850000000  0.4845680000000  0.4992750000000 1.0
C      1  0.4056060000000  0.5598380000000  0.4563330000000 1.0
C      1  0.5147310000000  0.5756240000000  0.5298240000000 1.0
C      1  0.6093800000000  0.4644100000000  0.4798320000000 1.0
C      1  0.4736350000000  0.6251750000000  0.5259860000000 1.0
C      1  0.4597970000000  0.5243200000000  0.6026010000000 1.0
C      1  0.4991420000000  0.4581710000000  0.5322590000000 1.0
C      1  0.4336890000000  0.5482730000000  0.5113440000000 1.0
C      1  0.5487380000000  0.4513690000000  0.4186520000000 1.0
C      1  0.4503900000000  0.5431560000000  0.4384070000000 1.0
C      1  0.4437770000000  0.4093870000000  0.4726450000000 1.0
C      1  0.4574560000000  0.4038170000000  0.5279620000000 1.0
C      1  0.5654110000000  0.4941720000000  0.4001580000000 1.0
C      1  0.5942770000000  0.4235370000000  0.5101380000000 1.0
C      1  0.5210220000000  0.5739100000000  0.5929860000000 1.0
C      1  0.4892530000000  0.4979190000000  0.5626850000000 1.0
C      1  0.5509460000000  0.5278300000000  0.4363880000000 1.0
C      1  0.5248660000000  0.4509130000000  0.5938550000000 1.0
C      1  0.5386430000000  0.4676240000000  0.4667920000000 1.0
C      1  0.5424890000000  0.4791790000000  0.5164870000000 1.0
C      1  0.4782810000000  0.4857110000000  0.3944820000000 1.0
C      1  0.5280350000000  0.3957760000000  0.5536790000000 1.0
C      1  0.5416920000000  0.5546510000000  0.5858880000000 1.0
C      1  0.5002220000000  0.5015680000000  0.4555490000000 1.0
C      1  0.4954330000000  0.6053220000000  0.4381860000000 1.0
C      1  0.4094650000000  0.4835500000000  0.5544300000000 1.0
C      1  0.5873100000000  0.5452580000000  0.5470600000000 1.0
C      1  0.4251000000000  0.4189450000000  0.4926430000000 1.0
C      1  0.4509960000000  0.6049360000000  0.5379240000000 1.0
C      1  0.5752870000000  0.4526690000000  0.5535600000000 1.0
C      1  0.4587970000000  0.4669610000000  0.5289860000000 1.0
C      1  0.4607790000000  0.4996490000000  0.4113140000000 1.0
C      1  0.4852660000000  0.4949160000000  0.4974040000000 1.0
C      1  0.5438920000000  0.4644880000000  0.4403610000000 1.0
C      1  0.4085730000000  0.5177290000000  0.4238410000000 1.0
C      1  0.5025620000000  0.5873090000000  0.4172020000000 1.0
END
