TITL C-4164234-2335-765 16.0263080422996 125000 -16521.3255438805 0 0 112 (C1) n - 1
REM
REM in /home/nfs/bkarasulu/CARBON/AIRSS/Generating-Clusters/ReaxFF-fromJPCA2015/Units_Real/with-SteepDescent/Only-C1/SD-CG/Try1-3A/FIRE-CG
REM
REM
REM
REM
REM
REM ./C.cell (11c1c37f851c82e70ff6c80c92926a4b)
REM
REM compiler GCC version 9.2.1 20190827 (Red Hat 9.2.1-1)
REM options -cpp -mtune=generic -march=x86-64 -g -O0 -fpre-include=/usr/include/finclude/math-vector-fortran.h
REM seed -976200588 214955869 7872685 -2064741698 -236101643 102242244 568174678 -365084162 489948699 1184520786 -2045885320 784368384 -1658116231 1883858937 685967812 61094995 -1621714771 109709730 1678875423 1800060656 -301788737 701648432 -1244755227 59076281 1757624234 1848087470 -1036246815 -1751197104 1081115233 -1200987055 1452407931 -1385479383 -495973914
REM
CELL 1.54180   50.00000   50.00000   50.00000   90.00000   90.00000   90.00000
LATT -1
SFAC C  
C      1  0.4958690000000  0.4230980000000  0.5589120000000 1.0
C      1  0.4521640000000  0.4954360000000  0.5039140000000 1.0
C      1  0.5275910000000  0.4645780000000  0.5109490000000 1.0
C      1  0.5714790000000  0.5303480000000  0.5539890000000 1.0
C      1  0.5104880000000  0.5791440000000  0.5021650000000 1.0
C      1  0.4744570000000  0.4538260000000  0.4421060000000 1.0
C      1  0.5137230000000  0.5383990000000  0.5672530000000 1.0
C      1  0.5519760000000  0.4402410000000  0.5458500000000 1.0
C      1  0.5503310000000  0.4249870000000  0.4739840000000 1.0
C      1  0.4048640000000  0.5056700000000  0.4871270000000 1.0
C      1  0.4653330000000  0.4214570000000  0.5553180000000 1.0
C      1  0.5434750000000  0.5824320000000  0.4589140000000 1.0
C      1  0.5223510000000  0.4180900000000  0.4670130000000 1.0
C      1  0.5084050000000  0.4577090000000  0.4906690000000 1.0
C      1  0.5288350000000  0.5620300000000  0.5500700000000 1.0
C      1  0.4718480000000  0.4701380000000  0.5639680000000 1.0
C      1  0.4729100000000  0.4321190000000  0.4637340000000 1.0
C      1  0.5688770000000  0.4455350000000  0.4610560000000 1.0
C      1  0.4531580000000  0.4708720000000  0.4874750000000 1.0
C      1  0.4546020000000  0.4075250000000  0.5329490000000 1.0
C      1  0.4287890000000  0.4869070000000  0.5268080000000 1.0
C      1  0.5224650000000  0.4732370000000  0.5403910000000 1.0
C      1  0.4615470000000  0.5677980000000  0.5558840000000 1.0
C      1  0.4477790000000  0.4278050000000  0.4767990000000 1.0
C      1  0.4318560000000  0.4519570000000  0.4775120000000 1.0
C      1  0.4386240000000  0.4921620000000  0.4502000000000 1.0
C      1  0.5080760000000  0.4445720000000  0.5754000000000 1.0
C      1  0.5834760000000  0.5491370000000  0.4674060000000 1.0
C      1  0.5692390000000  0.4566060000000  0.4330570000000 1.0
C      1  0.4843900000000  0.4885490000000  0.4113470000000 1.0
C      1  0.4961850000000  0.4833880000000  0.4926130000000 1.0
C      1  0.5392130000000  0.5646030000000  0.4362480000000 1.0
C      1  0.5303040000000  0.5169140000000  0.4247850000000 1.0
C      1  0.4587450000000  0.4479640000000  0.5140290000000 1.0
C      1  0.4834340000000  0.5178110000000  0.5299920000000 1.0
C      1  0.4523250000000  0.5630540000000  0.4256770000000 1.0
C      1  0.4866840000000  0.4447600000000  0.5241510000000 1.0
C      1  0.5406010000000  0.4928580000000  0.4684400000000 1.0
C      1  0.5083450000000  0.5265330000000  0.5214610000000 1.0
C      1  0.4894570000000  0.4709510000000  0.5385080000000 1.0
C      1  0.4545660000000  0.5225990000000  0.4900720000000 1.0
C      1  0.4796190000000  0.4923590000000  0.5168400000000 1.0
C      1  0.5318890000000  0.4538330000000  0.5619590000000 1.0
C      1  0.4851750000000  0.5690200000000  0.4902250000000 1.0
C      1  0.4650840000000  0.4806470000000  0.4619140000000 1.0
C      1  0.4358560000000  0.5252220000000  0.5651390000000 1.0
C      1  0.5061010000000  0.4954150000000  0.5872330000000 1.0
C      1  0.4822020000000  0.5811970000000  0.5403320000000 1.0
C      1  0.5579590000000  0.5069250000000  0.4222020000000 1.0
C      1  0.4983220000000  0.4323710000000  0.4790410000000 1.0
C      1  0.5538930000000  0.4295970000000  0.5023690000000 1.0
C      1  0.4637370000000  0.4686890000000  0.4179980000000 1.0
C      1  0.5187810000000  0.5443730000000  0.4310970000000 1.0
C      1  0.4232700000000  0.5129680000000  0.4629660000000 1.0
C      1  0.4602020000000  0.5410110000000  0.5698600000000 1.0
C      1  0.5845790000000  0.5190950000000  0.4709320000000 1.0
C      1  0.5953190000000  0.5273060000000  0.5355660000000 1.0
C      1  0.4741580000000  0.5751390000000  0.4410500000000 1.0
C      1  0.4786800000000  0.5392110000000  0.4899720000000 1.0
C      1  0.4438330000000  0.5637520000000  0.4799590000000 1.0
C      1  0.5217940000000  0.4345730000000  0.4450870000000 1.0
C      1  0.4988880000000  0.5372650000000  0.5427180000000 1.0
C      1  0.5351970000000  0.5850810000000  0.4872150000000 1.0
C      1  0.5738620000000  0.4515910000000  0.5043130000000 1.0
C      1  0.5751180000000  0.4860130000000  0.4355050000000 1.0
C      1  0.4121730000000  0.4299450000000  0.5081400000000 1.0
C      1  0.4436550000000  0.5346970000000  0.4655600000000 1.0
C      1  0.5364070000000  0.4995700000000  0.5477420000000 1.0
C      1  0.4981540000000  0.5228870000000  0.4764120000000 1.0
C      1  0.5365010000000  0.4254410000000  0.5261320000000 1.0
C      1  0.5100340000000  0.4792780000000  0.4238780000000 1.0
C      1  0.5555780000000  0.5537090000000  0.5439380000000 1.0
C      1  0.5463460000000  0.5286000000000  0.4980300000000 1.0
C      1  0.5825320000000  0.5643440000000  0.4922340000000 1.0
C      1  0.4648250000000  0.5342470000000  0.4350030000000 1.0
C      1  0.5656110000000  0.5649150000000  0.4499160000000 1.0
C      1  0.4524120000000  0.4489920000000  0.5597800000000 1.0
C      1  0.4437020000000  0.4903670000000  0.4215540000000 1.0
C      1  0.4853550000000  0.5356420000000  0.5831530000000 1.0
C      1  0.5625590000000  0.5019870000000  0.5583350000000 1.0
C      1  0.4072260000000  0.4553430000000  0.4942510000000 1.0
C      1  0.4235470000000  0.5066160000000  0.5483340000000 1.0
C      1  0.4151970000000  0.5327500000000  0.5464980000000 1.0
C      1  0.4663750000000  0.5791850000000  0.4704940000000 1.0
C      1  0.5236380000000  0.4953490000000  0.4443540000000 1.0
C      1  0.4383480000000  0.5645220000000  0.5084560000000 1.0
C      1  0.5526100000000  0.5049810000000  0.5153790000000 1.0
C      1  0.5607570000000  0.5812010000000  0.5008020000000 1.0
C      1  0.5042350000000  0.4514850000000  0.4318090000000 1.0
C      1  0.4926000000000  0.4689290000000  0.5845060000000 1.0
C      1  0.4066630000000  0.4828520000000  0.5056080000000 1.0
C      1  0.4162740000000  0.5473100000000  0.5200820000000 1.0
C      1  0.4070690000000  0.5249070000000  0.5068900000000 1.0
C      1  0.5252650000000  0.5117870000000  0.5705750000000 1.0
C      1  0.5101560000000  0.5762620000000  0.5317330000000 1.0
C      1  0.5560190000000  0.5175840000000  0.4718900000000 1.0
C      1  0.4908790000000  0.5496790000000  0.4361060000000 1.0
C      1  0.5401540000000  0.4855290000000  0.4968570000000 1.0
C      1  0.4543870000000  0.5776660000000  0.5294080000000 1.0
C      1  0.5827460000000  0.5036110000000  0.5219170000000 1.0
C      1  0.4823640000000  0.5091590000000  0.5865510000000 1.0
C      1  0.4419470000000  0.4597950000000  0.5353690000000 1.0
C      1  0.4418350000000  0.4195770000000  0.5070620000000 1.0
C      1  0.5730370000000  0.4571880000000  0.5330240000000 1.0
C      1  0.4650550000000  0.5105320000000  0.4164130000000 1.0
C      1  0.5627680000000  0.5538810000000  0.5139700000000 1.0
C      1  0.5180320000000  0.5307260000000  0.4962320000000 1.0
C      1  0.5808800000000  0.4650950000000  0.4786330000000 1.0
C      1  0.5069640000000  0.4243860000000  0.5318020000000 1.0
C      1  0.4889280000000  0.4968570000000  0.4688350000000 1.0
C      1  0.5859740000000  0.4906720000000  0.4633930000000 1.0
C      1  0.5798730000000  0.4835120000000  0.5432680000000 1.0
END
