TITL C-4164234-2335-513 1.57366074065423 125000 -26069.7131896434 0 0 174 (C1) n - 1
REM
REM in /home/nfs/bkarasulu/CARBON/AIRSS/Generating-Clusters/ReaxFF-fromJPCA2015/Units_Real/with-SteepDescent/Only-C1/SD-CG/Try1-3A/FIRE-CG
REM
REM
REM
REM
REM
REM ./C.cell (11c1c37f851c82e70ff6c80c92926a4b)
REM
REM compiler GCC version 9.2.1 20190827 (Red Hat 9.2.1-1)
REM options -cpp -mtune=generic -march=x86-64 -g -O0 -fpre-include=/usr/include/finclude/math-vector-fortran.h
REM seed 1767945259 -633469043 -1578393489 60716991 220350809 1602210759 333290087 925124926 -1303933798 -1612472621 409240471 1511330570 457896801 -984879360 1752909305 -1973491076 186460261 741301943 1071919271 -803817428 1460854385 762080610 -136026063 906289489 -882964746 -663313039 1586718064 536708096 163721388 1758543733 1820223164 -257519190 1882574282
REM
CELL 1.54180   50.00000   50.00000   50.00000   90.00000   90.00000   90.00000
LATT -1
SFAC C  
C      1  0.4294250000000  0.5316230000000  0.5275340000000 1.0
C      1  0.5392230000000  0.5309810000000  0.4653550000000 1.0
C      1  0.4732660000000  0.5717070000000  0.5795850000000 1.0
C      1  0.3772300000000  0.5001170000000  0.5102100000000 1.0
C      1  0.4930040000000  0.4563670000000  0.4353320000000 1.0
C      1  0.5416010000000  0.5969210000000  0.5079390000000 1.0
C      1  0.5841700000000  0.4447660000000  0.4977620000000 1.0
C      1  0.4546130000000  0.4271320000000  0.4330460000000 1.0
C      1  0.4883090000000  0.5784900000000  0.4367180000000 1.0
C      1  0.4858980000000  0.5609920000000  0.4114350000000 1.0
C      1  0.5660350000000  0.4530300000000  0.5589010000000 1.0
C      1  0.5933000000000  0.4647650000000  0.5491940000000 1.0
C      1  0.6028640000000  0.5242180000000  0.5451630000000 1.0
C      1  0.5479020000000  0.4948530000000  0.3952980000000 1.0
C      1  0.4676320000000  0.5361680000000  0.4083340000000 1.0
C      1  0.5571140000000  0.5625720000000  0.4423550000000 1.0
C      1  0.5531070000000  0.5956070000000  0.4783800000000 1.0
C      1  0.4526260000000  0.5006830000000  0.4451800000000 1.0
C      1  0.4444380000000  0.5085050000000  0.5731760000000 1.0
C      1  0.4308780000000  0.4817080000000  0.4042600000000 1.0
C      1  0.4349640000000  0.4452510000000  0.4434540000000 1.0
C      1  0.5977460000000  0.4527190000000  0.5224610000000 1.0
C      1  0.4962920000000  0.5039070000000  0.4171870000000 1.0
C      1  0.5608080000000  0.4744500000000  0.4350350000000 1.0
C      1  0.4557600000000  0.5337760000000  0.5417580000000 1.0
C      1  0.5058520000000  0.4294410000000  0.5626090000000 1.0
C      1  0.5582800000000  0.5433540000000  0.5057540000000 1.0
C      1  0.5397230000000  0.5285510000000  0.5222370000000 1.0
C      1  0.5906490000000  0.4535020000000  0.4694350000000 1.0
C      1  0.4357530000000  0.4408310000000  0.4721800000000 1.0
C      1  0.5883000000000  0.5248450000000  0.4513890000000 1.0
C      1  0.4423350000000  0.4817350000000  0.6043670000000 1.0
C      1  0.4927020000000  0.5619310000000  0.5085780000000 1.0
C      1  0.5970470000000  0.4799650000000  0.4702180000000 1.0
C      1  0.5986130000000  0.5682130000000  0.4766300000000 1.0
C      1  0.3859590000000  0.4927030000000  0.4843280000000 1.0
C      1  0.4675860000000  0.4900270000000  0.4708090000000 1.0
C      1  0.5719150000000  0.4498850000000  0.4461660000000 1.0
C      1  0.4343530000000  0.5228450000000  0.4502970000000 1.0
C      1  0.5565860000000  0.4690390000000  0.5827140000000 1.0
C      1  0.5305620000000  0.3935900000000  0.5052720000000 1.0
C      1  0.4357870000000  0.5333680000000  0.4766840000000 1.0
C      1  0.5100260000000  0.5883640000000  0.4539210000000 1.0
C      1  0.4998360000000  0.6025150000000  0.4780790000000 1.0
C      1  0.5153480000000  0.5629580000000  0.5898520000000 1.0
C      1  0.3987410000000  0.4578010000000  0.5359060000000 1.0
C      1  0.4341260000000  0.5136450000000  0.4987380000000 1.0
C      1  0.4754020000000  0.4040950000000  0.5562980000000 1.0
C      1  0.5824610000000  0.5539120000000  0.4532860000000 1.0
C      1  0.5508840000000  0.4114820000000  0.5147790000000 1.0
C      1  0.3891580000000  0.5257720000000  0.5211240000000 1.0
C      1  0.4545880000000  0.4128220000000  0.5471390000000 1.0
C      1  0.4729810000000  0.5132580000000  0.5316170000000 1.0
C      1  0.4059500000000  0.5198940000000  0.5438230000000 1.0
C      1  0.5400190000000  0.5229500000000  0.3973750000000 1.0
C      1  0.5166120000000  0.5468010000000  0.6150900000000 1.0
C      1  0.5572510000000  0.4967490000000  0.4900670000000 1.0
C      1  0.5107900000000  0.5124140000000  0.5918480000000 1.0
C      1  0.4321040000000  0.5052340000000  0.3907450000000 1.0
C      1  0.5156990000000  0.5439920000000  0.4687550000000 1.0
C      1  0.4545940000000  0.4893260000000  0.3905730000000 1.0
C      1  0.3784280000000  0.4771930000000  0.5289210000000 1.0
C      1  0.4776620000000  0.4380570000000  0.5037030000000 1.0
C      1  0.4101200000000  0.4977610000000  0.4786290000000 1.0
C      1  0.5557630000000  0.5693580000000  0.5553400000000 1.0
C      1  0.5103360000000  0.4516160000000  0.3954020000000 1.0
C      1  0.4644840000000  0.4060370000000  0.4512250000000 1.0
C      1  0.4679670000000  0.5491740000000  0.6016420000000 1.0
C      1  0.4339080000000  0.4242790000000  0.5326400000000 1.0
C      1  0.5775230000000  0.5851250000000  0.4802810000000 1.0
C      1  0.4845020000000  0.4610360000000  0.4659070000000 1.0
C      1  0.4887810000000  0.5330880000000  0.4660320000000 1.0
C      1  0.4566680000000  0.5189880000000  0.3876390000000 1.0
C      1  0.4630520000000  0.4469870000000  0.4807890000000 1.0
C      1  0.4466820000000  0.5932200000000  0.5209610000000 1.0
C      1  0.5113360000000  0.4815640000000  0.4260580000000 1.0
C      1  0.4522160000000  0.4911380000000  0.4968460000000 1.0
C      1  0.5111290000000  0.4992110000000  0.4898000000000 1.0
C      1  0.6136270000000  0.5310090000000  0.5168110000000 1.0
C      1  0.5090500000000  0.4491490000000  0.4792230000000 1.0
C      1  0.5474850000000  0.4586490000000  0.5292910000000 1.0
C      1  0.5516480000000  0.5345440000000  0.4239580000000 1.0
C      1  0.4097610000000  0.5500470000000  0.4793480000000 1.0
C      1  0.4050530000000  0.4987670000000  0.5636340000000 1.0
C      1  0.5040550000000  0.5419550000000  0.5484310000000 1.0
C      1  0.5155470000000  0.5584620000000  0.4932350000000 1.0
C      1  0.4097630000000  0.4849730000000  0.4542810000000 1.0
C      1  0.4972300000000  0.6096510000000  0.5264150000000 1.0
C      1  0.5140690000000  0.6085920000000  0.5036160000000 1.0
C      1  0.4891350000000  0.4581250000000  0.6035140000000 1.0
C      1  0.5475500000000  0.5051800000000  0.5348990000000 1.0
C      1  0.5154540000000  0.5160620000000  0.5121980000000 1.0
C      1  0.4795710000000  0.4572260000000  0.3910770000000 1.0
C      1  0.4736560000000  0.5990400000000  0.4898890000000 1.0
C      1  0.4846120000000  0.3878430000000  0.4991300000000 1.0
C      1  0.4217160000000  0.5606690000000  0.5218560000000 1.0
C      1  0.5860670000000  0.5419030000000  0.5568760000000 1.0
C      1  0.4898150000000  0.4023790000000  0.4688590000000 1.0
C      1  0.5049320000000  0.3933000000000  0.5191660000000 1.0
C      1  0.4269350000000  0.4534780000000  0.5325500000000 1.0
C      1  0.4684110000000  0.4502980000000  0.4181420000000 1.0
C      1  0.5542430000000  0.4398710000000  0.5024840000000 1.0
C      1  0.4855400000000  0.4766330000000  0.5637690000000 1.0
C      1  0.5107260000000  0.4361590000000  0.4206340000000 1.0
C      1  0.4620560000000  0.5555630000000  0.5595180000000 1.0
C      1  0.4671650000000  0.4868180000000  0.5201980000000 1.0
C      1  0.5360190000000  0.3905050000000  0.4751830000000 1.0
C      1  0.4420280000000  0.5728600000000  0.5094790000000 1.0
C      1  0.4648640000000  0.5503700000000  0.4696900000000 1.0
C      1  0.5673500000000  0.5502860000000  0.5744040000000 1.0
C      1  0.5280960000000  0.4180070000000  0.4353100000000 1.0
C      1  0.5356870000000  0.5258970000000  0.6063820000000 1.0
C      1  0.4980880000000  0.5206330000000  0.5322950000000 1.0
C      1  0.5288440000000  0.4653890000000  0.5896560000000 1.0
C      1  0.5094160000000  0.5912670000000  0.5483220000000 1.0
C      1  0.5680870000000  0.4227540000000  0.5652460000000 1.0
C      1  0.4692770000000  0.6099670000000  0.5167510000000 1.0
C      1  0.5109200000000  0.5202450000000  0.3964660000000 1.0
C      1  0.5399600000000  0.5825470000000  0.4546300000000 1.0
C      1  0.4907640000000  0.4583630000000  0.5220230000000 1.0
C      1  0.4106550000000  0.5639790000000  0.4544140000000 1.0
C      1  0.5069220000000  0.5471390000000  0.4008830000000 1.0
C      1  0.4556340000000  0.3881890000000  0.4984400000000 1.0
C      1  0.4545280000000  0.5284860000000  0.5899440000000 1.0
C      1  0.4452440000000  0.4762410000000  0.5350710000000 1.0
C      1  0.5567440000000  0.4040020000000  0.4619040000000 1.0
C      1  0.4890510000000  0.5068410000000  0.6127760000000 1.0
C      1  0.4291190000000  0.4760300000000  0.4344920000000 1.0
C      1  0.5099820000000  0.4425850000000  0.5904260000000 1.0
C      1  0.4268140000000  0.4141640000000  0.4818500000000 1.0
C      1  0.4892700000000  0.5350840000000  0.6181110000000 1.0
C      1  0.5611620000000  0.5246630000000  0.4828660000000 1.0
C      1  0.4343370000000  0.4065540000000  0.5088280000000 1.0
C      1  0.6032210000000  0.5058430000000  0.4714630000000 1.0
C      1  0.4218740000000  0.4958280000000  0.5881660000000 1.0
C      1  0.4727930000000  0.5136030000000  0.4266740000000 1.0
C      1  0.4987620000000  0.5661310000000  0.5360450000000 1.0
C      1  0.6061540000000  0.5072250000000  0.5016630000000 1.0
C      1  0.5773400000000  0.5178620000000  0.4256980000000 1.0
C      1  0.5387970000000  0.4989120000000  0.5605510000000 1.0
C      1  0.4897020000000  0.5067970000000  0.4742510000000 1.0
C      1  0.5019560000000  0.4032250000000  0.5484370000000 1.0
C      1  0.5166150000000  0.3989920000000  0.4547580000000 1.0
C      1  0.5892920000000  0.4938100000000  0.5214370000000 1.0
C      1  0.5146960000000  0.4881190000000  0.5740960000000 1.0
C      1  0.5412630000000  0.5870800000000  0.5407540000000 1.0
C      1  0.5576210000000  0.4239670000000  0.4426050000000 1.0
C      1  0.5647900000000  0.4976710000000  0.5750290000000 1.0
C      1  0.4997200000000  0.5835930000000  0.5768600000000 1.0
C      1  0.6110210000000  0.5544340000000  0.4998980000000 1.0
C      1  0.5258080000000  0.4758010000000  0.3998500000000 1.0
C      1  0.5203220000000  0.4585120000000  0.5258110000000 1.0
C      1  0.4683840000000  0.5684880000000  0.4938810000000 1.0
C      1  0.5582060000000  0.5248990000000  0.5891710000000 1.0
C      1  0.5915010000000  0.4956590000000  0.5510330000000 1.0
C      1  0.4973770000000  0.4249210000000  0.4878880000000 1.0
C      1  0.4720050000000  0.4819960000000  0.6100430000000 1.0
C      1  0.4878510000000  0.4502370000000  0.5520660000000 1.0
C      1  0.3892850000000  0.4770550000000  0.5541730000000 1.0
C      1  0.5352310000000  0.5192930000000  0.4433780000000 1.0
C      1  0.4587650000000  0.4852370000000  0.5596950000000 1.0
C      1  0.5710030000000  0.4918860000000  0.4138550000000 1.0
C      1  0.5618250000000  0.4877980000000  0.5164690000000 1.0
C      1  0.5347730000000  0.4836410000000  0.4783350000000 1.0
C      1  0.5364850000000  0.4896760000000  0.4450850000000 1.0
C      1  0.5102160000000  0.5388100000000  0.5750900000000 1.0
C      1  0.4624050000000  0.5720310000000  0.4485440000000 1.0
C      1  0.5633540000000  0.4063190000000  0.5413960000000 1.0
C      1  0.4460200000000  0.3945500000000  0.4702020000000 1.0
C      1  0.5345790000000  0.4549010000000  0.4848490000000 1.0
C      1  0.4350990000000  0.5716700000000  0.4387290000000 1.0
C      1  0.3990650000000  0.5498000000000  0.5063660000000 1.0
C      1  0.5403290000000  0.5663780000000  0.5056440000000 1.0
C      1  0.4234290000000  0.5450090000000  0.4356670000000 1.0
END
