TITL C-4164241-3639-404 15.0483370220714 125000 -17813.5718000444 0 0 120 (C1) n - 1
REM
REM in /home/nfs/bkarasulu/CARBON/AIRSS/Generating-Clusters/ReaxFF-fromJPCA2015/Units_Real/with-SteepDescent/Only-C1/SD-CG/Try1-3A/FIRE-CG
REM
REM
REM
REM
REM
REM ./C.cell (11c1c37f851c82e70ff6c80c92926a4b)
REM
REM compiler GCC version 9.2.1 20190827 (Red Hat 9.2.1-1)
REM options -cpp -mtune=generic -march=x86-64 -g -O0 -fpre-include=/usr/include/finclude/math-vector-fortran.h
REM seed -1605784549 -1309659091 109602445 -525641805 -84732945 413168859 1173862154 1506584095 -143263636 -74424002 -813034403 -2035606517 -1614003811 -1587767367 2102131766 1685053203 1653075661 210107446 2053676351 459394711 226112954 62793751 62525813 -754454200 1079866516 8156289 -712825318 811516954 -1984884770 1514392738 -751187113 -444790967 -729741611
REM
CELL 1.54180   50.00000   50.00000   50.00000   90.00000   90.00000   90.00000
LATT -1
SFAC C  
C      1  0.5025170000000  0.4909550000000  0.4897890000000 1.0
C      1  0.5482920000000  0.5585780000000  0.4653820000000 1.0
C      1  0.4460960000000  0.5664320000000  0.5441750000000 1.0
C      1  0.5329100000000  0.4518740000000  0.5524800000000 1.0
C      1  0.4423350000000  0.4581940000000  0.5385270000000 1.0
C      1  0.4571790000000  0.5160240000000  0.4837060000000 1.0
C      1  0.5129350000000  0.4027760000000  0.4782390000000 1.0
C      1  0.5741620000000  0.4452170000000  0.5026660000000 1.0
C      1  0.4435520000000  0.5470380000000  0.5650820000000 1.0
C      1  0.4533210000000  0.4617770000000  0.4438500000000 1.0
C      1  0.4255030000000  0.5322740000000  0.5144470000000 1.0
C      1  0.5221880000000  0.5253620000000  0.5820700000000 1.0
C      1  0.5293510000000  0.5913680000000  0.5383650000000 1.0
C      1  0.5487700000000  0.5800820000000  0.4880960000000 1.0
C      1  0.5123100000000  0.4860140000000  0.4470690000000 1.0
C      1  0.5397710000000  0.4110270000000  0.4880000000000 1.0
C      1  0.4724110000000  0.5899200000000  0.4966140000000 1.0
C      1  0.5355540000000  0.4591890000000  0.4852950000000 1.0
C      1  0.4746850000000  0.5754490000000  0.5442730000000 1.0
C      1  0.4458820000000  0.5269010000000  0.5831780000000 1.0
C      1  0.4435790000000  0.4927610000000  0.5726070000000 1.0
C      1  0.4880690000000  0.4866920000000  0.4100060000000 1.0
C      1  0.4382750000000  0.4336780000000  0.5068680000000 1.0
C      1  0.5806710000000  0.4671060000000  0.4793970000000 1.0
C      1  0.5099290000000  0.5019790000000  0.5934070000000 1.0
C      1  0.4854580000000  0.4034210000000  0.4886490000000 1.0
C      1  0.5713680000000  0.5240070000000  0.5400460000000 1.0
C      1  0.4266890000000  0.4781420000000  0.5523920000000 1.0
C      1  0.4089090000000  0.4676740000000  0.4667420000000 1.0
C      1  0.5500000000000  0.4313230000000  0.4700590000000 1.0
C      1  0.4661400000000  0.4754660000000  0.5832240000000 1.0
C      1  0.5281720000000  0.4626660000000  0.4561270000000 1.0
C      1  0.4847360000000  0.4214890000000  0.4437560000000 1.0
C      1  0.5249650000000  0.5472890000000  0.4864240000000 1.0
C      1  0.4817600000000  0.4893000000000  0.5193880000000 1.0
C      1  0.5072120000000  0.4882640000000  0.5644670000000 1.0
C      1  0.4318050000000  0.4488670000000  0.4583890000000 1.0
C      1  0.5299460000000  0.5633040000000  0.5387110000000 1.0
C      1  0.5215180000000  0.5917900000000  0.4917220000000 1.0
C      1  0.4809120000000  0.4966140000000  0.5967450000000 1.0
C      1  0.4938980000000  0.5541270000000  0.5512750000000 1.0
C      1  0.4819700000000  0.4052220000000  0.5188660000000 1.0
C      1  0.4787460000000  0.5357990000000  0.4768350000000 1.0
C      1  0.5896970000000  0.4597000000000  0.5221650000000 1.0
C      1  0.5993000000000  0.4874600000000  0.5138360000000 1.0
C      1  0.5461580000000  0.4775260000000  0.5080460000000 1.0
C      1  0.4404600000000  0.5267980000000  0.4375410000000 1.0
C      1  0.5652450000000  0.5337690000000  0.4642830000000 1.0
C      1  0.4465000000000  0.5167580000000  0.5286000000000 1.0
C      1  0.4657560000000  0.5112740000000  0.5104410000000 1.0
C      1  0.4925060000000  0.5336650000000  0.5283490000000 1.0
C      1  0.5095960000000  0.4642770000000  0.4905740000000 1.0
C      1  0.5581240000000  0.4859640000000  0.4324160000000 1.0
C      1  0.5888900000000  0.4938410000000  0.4877670000000 1.0
C      1  0.5122910000000  0.5992330000000  0.5180590000000 1.0
C      1  0.4614240000000  0.5465140000000  0.4284510000000 1.0
C      1  0.4874730000000  0.4498350000000  0.4849670000000 1.0
C      1  0.4473970000000  0.5009830000000  0.4310630000000 1.0
C      1  0.4097260000000  0.4801500000000  0.5287260000000 1.0
C      1  0.5603660000000  0.4656640000000  0.5671360000000 1.0
C      1  0.4837210000000  0.5932650000000  0.5228550000000 1.0
C      1  0.4677580000000  0.4156170000000  0.4691440000000 1.0
C      1  0.4883160000000  0.5407270000000  0.4202740000000 1.0
C      1  0.5372090000000  0.4757050000000  0.5346610000000 1.0
C      1  0.4468640000000  0.5747290000000  0.4947740000000 1.0
C      1  0.5118620000000  0.4126330000000  0.4506450000000 1.0
C      1  0.5303410000000  0.5012180000000  0.5458700000000 1.0
C      1  0.5246170000000  0.5125630000000  0.4562860000000 1.0
C      1  0.4741320000000  0.5247520000000  0.5909690000000 1.0
C      1  0.5719620000000  0.5208920000000  0.4899090000000 1.0
C      1  0.4416200000000  0.5646640000000  0.4678470000000 1.0
C      1  0.4689590000000  0.4299980000000  0.5503000000000 1.0
C      1  0.4613830000000  0.5690700000000  0.4468960000000 1.0
C      1  0.5315140000000  0.4289720000000  0.5319620000000 1.0
C      1  0.5248750000000  0.5238430000000  0.4017960000000 1.0
C      1  0.4300860000000  0.5232540000000  0.4865600000000 1.0
C      1  0.5439190000000  0.5060710000000  0.5009620000000 1.0
C      1  0.5296900000000  0.5454260000000  0.5149240000000 1.0
C      1  0.5080330000000  0.4644390000000  0.4122460000000 1.0
C      1  0.5323010000000  0.4347910000000  0.4470770000000 1.0
C      1  0.5218030000000  0.5193570000000  0.5238840000000 1.0
C      1  0.4604470000000  0.4801520000000  0.4201450000000 1.0
C      1  0.5521020000000  0.4258310000000  0.5111450000000 1.0
C      1  0.5033550000000  0.4243440000000  0.5268460000000 1.0
C      1  0.4838060000000  0.5476110000000  0.5040610000000 1.0
C      1  0.4792510000000  0.4514540000000  0.5698180000000 1.0
C      1  0.5374020000000  0.4729540000000  0.4171750000000 1.0
C      1  0.4952310000000  0.5887620000000  0.4780710000000 1.0
C      1  0.5872140000000  0.4998930000000  0.5381590000000 1.0
C      1  0.4294640000000  0.5383960000000  0.4634350000000 1.0
C      1  0.5546570000000  0.5179380000000  0.4419290000000 1.0
C      1  0.5062880000000  0.5356280000000  0.4674470000000 1.0
C      1  0.4970480000000  0.5148630000000  0.4070890000000 1.0
C      1  0.5495240000000  0.5173110000000  0.5652070000000 1.0
C      1  0.4846060000000  0.4969890000000  0.5473700000000 1.0
C      1  0.5436960000000  0.5372090000000  0.4209220000000 1.0
C      1  0.5701950000000  0.4752230000000  0.4553730000000 1.0
C      1  0.4889150000000  0.5779740000000  0.4516850000000 1.0
C      1  0.5055100000000  0.5616820000000  0.4334850000000 1.0
C      1  0.4053690000000  0.5020740000000  0.5100210000000 1.0
C      1  0.4974750000000  0.5393540000000  0.5777630000000 1.0
C      1  0.4713830000000  0.4661930000000  0.4667280000000 1.0
C      1  0.4052690000000  0.4863190000000  0.4879210000000 1.0
C      1  0.4436430000000  0.4300180000000  0.4777880000000 1.0
C      1  0.4881430000000  0.4892930000000  0.4631720000000 1.0
C      1  0.5069540000000  0.4583530000000  0.5670310000000 1.0
C      1  0.5821190000000  0.4718970000000  0.5486340000000 1.0
C      1  0.5542670000000  0.5797590000000  0.5354760000000 1.0
C      1  0.4946850000000  0.4424800000000  0.4268850000000 1.0
C      1  0.5251630000000  0.5050800000000  0.4827200000000 1.0
C      1  0.4350820000000  0.5611060000000  0.5173830000000 1.0
C      1  0.5586100000000  0.4920960000000  0.5796820000000 1.0
C      1  0.5641310000000  0.5680590000000  0.5106960000000 1.0
C      1  0.5720830000000  0.5396590000000  0.5156530000000 1.0
C      1  0.4582020000000  0.5061880000000  0.5515070000000 1.0
C      1  0.4840120000000  0.4450160000000  0.5125130000000 1.0
C      1  0.4567400000000  0.4187780000000  0.5269480000000 1.0
C      1  0.4675100000000  0.4639320000000  0.5250660000000 1.0
C      1  0.5338370000000  0.5587650000000  0.4372800000000 1.0
C      1  0.4202950000000  0.4525410000000  0.5201030000000 1.0
END
