TITL C-4164235-1454-238 3.6321308077658 125000 -5933.61274194057 0 0 41 (C1) n - 1
REM
REM in /home/nfs/bkarasulu/CARBON/AIRSS/Generating-Clusters/ReaxFF-fromJPCA2015/Units_Real/with-SteepDescent/Only-C1/SD-CG/Try1-3A/FIRE-CG
REM
REM
REM
REM
REM
REM ./C.cell (11c1c37f851c82e70ff6c80c92926a4b)
REM
REM compiler GCC version 9.2.1 20190827 (Red Hat 9.2.1-1)
REM options -cpp -mtune=generic -march=x86-64 -g -O0 -fpre-include=/usr/include/finclude/math-vector-fortran.h
REM seed -1503688470 -295831617 1945648967 602162281 -162526888 1239782033 1534357810 -1491283234 1878386419 215350694 -1330879857 150324314 -1182622675 -482887442 248977114 -962206701 732693355 249568521 1407635571 -1848502884 -1260086227 96635372 1905326977 -400707082 1441246404 1347919149 -831707285 634455616 -1304083443 46019942 660473509 551451565 -1132146064
REM
CELL 1.54180   50.00000   50.00000   50.00000   90.00000   90.00000   90.00000
LATT -1
SFAC C  
C      1  0.4831180000000  0.5559860000000  0.5085610000000 1.0
C      1  0.5494240000000  0.5038900000000  0.5381590000000 1.0
C      1  0.5079750000000  0.4750660000000  0.4532070000000 1.0
C      1  0.5240790000000  0.4829980000000  0.5295310000000 1.0
C      1  0.5496370000000  0.5355500000000  0.5106490000000 1.0
C      1  0.4516140000000  0.4888190000000  0.5211230000000 1.0
C      1  0.5266350000000  0.4895520000000  0.5009680000000 1.0
C      1  0.4623470000000  0.5394730000000  0.4962610000000 1.0
C      1  0.4827940000000  0.4803590000000  0.4388760000000 1.0
C      1  0.5356080000000  0.5215660000000  0.5557580000000 1.0
C      1  0.5109850000000  0.5487000000000  0.4678970000000 1.0
C      1  0.5639580000000  0.4953820000000  0.4882970000000 1.0
C      1  0.4558780000000  0.4575060000000  0.4776860000000 1.0
C      1  0.5053080000000  0.5254990000000  0.5463110000000 1.0
C      1  0.5323700000000  0.5528050000000  0.5026700000000 1.0
C      1  0.5243080000000  0.5004950000000  0.4523390000000 1.0
C      1  0.4809910000000  0.4425170000000  0.4835070000000 1.0
C      1  0.5639690000000  0.5127460000000  0.5137750000000 1.0
C      1  0.4783940000000  0.5069380000000  0.4253560000000 1.0
C      1  0.4937530000000  0.4458080000000  0.5342290000000 1.0
C      1  0.4710870000000  0.4893190000000  0.5461870000000 1.0
C      1  0.4522700000000  0.4624560000000  0.5070270000000 1.0
C      1  0.5112740000000  0.5290930000000  0.4485530000000 1.0
C      1  0.4664450000000  0.5416290000000  0.5520720000000 1.0
C      1  0.4500540000000  0.5153910000000  0.5095120000000 1.0
C      1  0.4983920000000  0.4989680000000  0.5286600000000 1.0
C      1  0.5477100000000  0.4702500000000  0.4915870000000 1.0
C      1  0.4990990000000  0.4963360000000  0.4995980000000 1.0
C      1  0.5076240000000  0.5628460000000  0.4925270000000 1.0
C      1  0.5197410000000  0.4534310000000  0.5230790000000 1.0
C      1  0.4733970000000  0.4424060000000  0.5121800000000 1.0
C      1  0.5466880000000  0.5028690000000  0.4673880000000 1.0
C      1  0.4816740000000  0.5303820000000  0.4436020000000 1.0
C      1  0.4681080000000  0.5263950000000  0.4705980000000 1.0
C      1  0.4790790000000  0.5179720000000  0.5596650000000 1.0
C      1  0.5065400000000  0.4539390000000  0.4737610000000 1.0
C      1  0.4818470000000  0.4626200000000  0.5556690000000 1.0
C      1  0.4879140000000  0.5517590000000  0.5369470000000 1.0
C      1  0.4638380000000  0.4804470000000  0.4617150000000 1.0
C      1  0.5267380000000  0.4498330000000  0.4950150000000 1.0
C      1  0.4773350000000  0.5000060000000  0.4795010000000 1.0
END
