TITL C-4164247-2821-419 25.7494481732391 125000 -16402.7638797159 0 0 112 (C1) n - 1
REM
REM in /home/nfs/bkarasulu/CARBON/AIRSS/Generating-Clusters/ReaxFF-fromJPCA2015/Units_Real/with-SteepDescent/Only-C1/SD-CG/Try1-3A/FIRE-CG
REM
REM
REM
REM
REM
REM ./C.cell (11c1c37f851c82e70ff6c80c92926a4b)
REM
REM compiler GCC version 9.2.1 20190827 (Red Hat 9.2.1-1)
REM options -cpp -mtune=generic -march=x86-64 -g -O0 -fpre-include=/usr/include/finclude/math-vector-fortran.h
REM seed 1120798929 -1244667914 -1600347200 -406686344 -19697913 -1458769659 1237427019 -1245421624 30228566 -1430642759 141701011 1314271802 -1401806138 -54670336 -455035565 446610802 -1858841551 -2118442735 369315222 -1342469770 -516279745 2112258318 -2013275399 1304714415 -366850015 81201823 774909497 106671148 1826948396 1923053576 -143132167 1986490801 -2001095586
REM
CELL 1.54180   50.00000   50.00000   50.00000   90.00000   90.00000   90.00000
LATT -1
SFAC C  
C      1  0.5143150000000  0.4546550000000  0.5843880000000 1.0
C      1  0.4193090000000  0.5357750000000  0.5606310000000 1.0
C      1  0.4731650000000  0.5666370000000  0.4817510000000 1.0
C      1  0.4467540000000  0.4941170000000  0.5649980000000 1.0
C      1  0.5139780000000  0.4803450000000  0.4085480000000 1.0
C      1  0.5585880000000  0.5757290000000  0.4887090000000 1.0
C      1  0.5353340000000  0.5915020000000  0.4978820000000 1.0
C      1  0.5552810000000  0.4888700000000  0.4551410000000 1.0
C      1  0.4111070000000  0.5132200000000  0.5261010000000 1.0
C      1  0.5137500000000  0.5411450000000  0.4612080000000 1.0
C      1  0.4877570000000  0.5380870000000  0.5344740000000 1.0
C      1  0.4546540000000  0.5084980000000  0.4292300000000 1.0
C      1  0.5059220000000  0.5287520000000  0.5834320000000 1.0
C      1  0.5385620000000  0.4681120000000  0.4171160000000 1.0
C      1  0.4472260000000  0.5080360000000  0.4688570000000 1.0
C      1  0.4940050000000  0.5194870000000  0.4636540000000 1.0
C      1  0.4912100000000  0.4776630000000  0.5068470000000 1.0
C      1  0.4990850000000  0.5450900000000  0.5606100000000 1.0
C      1  0.4909410000000  0.5054230000000  0.5942750000000 1.0
C      1  0.4186300000000  0.4775250000000  0.4596260000000 1.0
C      1  0.5110050000000  0.4148450000000  0.4535120000000 1.0
C      1  0.4165940000000  0.5073690000000  0.4975530000000 1.0
C      1  0.5527430000000  0.5555700000000  0.4403350000000 1.0
C      1  0.5042170000000  0.4340410000000  0.5655260000000 1.0
C      1  0.5661170000000  0.4826150000000  0.5278550000000 1.0
C      1  0.5699190000000  0.4547240000000  0.4864740000000 1.0
C      1  0.4305550000000  0.4447620000000  0.5350070000000 1.0
C      1  0.5253660000000  0.5478650000000  0.4333040000000 1.0
C      1  0.4700160000000  0.5815180000000  0.5072480000000 1.0
C      1  0.5029410000000  0.4296450000000  0.4285860000000 1.0
C      1  0.4295780000000  0.4539950000000  0.5073800000000 1.0
C      1  0.5813710000000  0.4993300000000  0.5135490000000 1.0
C      1  0.4967400000000  0.5677900000000  0.5735970000000 1.0
C      1  0.4712330000000  0.4334330000000  0.4828180000000 1.0
C      1  0.5787340000000  0.5278080000000  0.5236340000000 1.0
C      1  0.5445410000000  0.5486560000000  0.5182240000000 1.0
C      1  0.5557870000000  0.5422000000000  0.5756760000000 1.0
C      1  0.4649280000000  0.5337230000000  0.5813620000000 1.0
C      1  0.4554760000000  0.4452160000000  0.4405820000000 1.0
C      1  0.5060210000000  0.4802420000000  0.5960970000000 1.0
C      1  0.5212370000000  0.5924010000000  0.5231580000000 1.0
C      1  0.5653930000000  0.4607700000000  0.5141710000000 1.0
C      1  0.5223750000000  0.5303660000000  0.4099160000000 1.0
C      1  0.5690910000000  0.5464700000000  0.5002140000000 1.0
C      1  0.4999710000000  0.5674850000000  0.4703020000000 1.0
C      1  0.4517470000000  0.5480450000000  0.4710790000000 1.0
C      1  0.5618460000000  0.4823870000000  0.4294970000000 1.0
C      1  0.4256250000000  0.5614660000000  0.5281680000000 1.0
C      1  0.5038800000000  0.5065390000000  0.4076860000000 1.0
C      1  0.4994350000000  0.5198930000000  0.5179880000000 1.0
C      1  0.5063370000000  0.4061750000000  0.5040180000000 1.0
C      1  0.5505240000000  0.5255500000000  0.4102160000000 1.0
C      1  0.5387770000000  0.4267220000000  0.4507890000000 1.0
C      1  0.4772010000000  0.4389520000000  0.5554600000000 1.0
C      1  0.4467750000000  0.5721330000000  0.5180810000000 1.0
C      1  0.5186510000000  0.5393550000000  0.5081940000000 1.0
C      1  0.4500560000000  0.4282650000000  0.5478470000000 1.0
C      1  0.4636370000000  0.5279840000000  0.4511760000000 1.0
C      1  0.5695130000000  0.5110090000000  0.4250680000000 1.0
C      1  0.5802830000000  0.5011330000000  0.4831660000000 1.0
C      1  0.4769620000000  0.4989570000000  0.4129090000000 1.0
C      1  0.5222400000000  0.5860640000000  0.4716910000000 1.0
C      1  0.4446950000000  0.4291360000000  0.4998860000000 1.0
C      1  0.4923520000000  0.5912880000000  0.5260520000000 1.0
C      1  0.4931740000000  0.5843120000000  0.5536530000000 1.0
C      1  0.5341840000000  0.5205330000000  0.5775710000000 1.0
C      1  0.4193280000000  0.4800040000000  0.4883140000000 1.0
C      1  0.5329620000000  0.5017430000000  0.4982510000000 1.0
C      1  0.5202800000000  0.4758010000000  0.5440430000000 1.0
C      1  0.4776550000000  0.4423220000000  0.4218890000000 1.0
C      1  0.4303820000000  0.5288150000000  0.4797810000000 1.0
C      1  0.5289040000000  0.4807800000000  0.4577730000000 1.0
C      1  0.5476320000000  0.4392380000000  0.4757710000000 1.0
C      1  0.5703610000000  0.5324080000000  0.4470500000000 1.0
C      1  0.4316830000000  0.4627120000000  0.4374530000000 1.0
C      1  0.4516150000000  0.5089110000000  0.5190950000000 1.0
C      1  0.4854680000000  0.4725080000000  0.4492300000000 1.0
C      1  0.5186980000000  0.4765770000000  0.4968770000000 1.0
C      1  0.5398260000000  0.4933990000000  0.5312370000000 1.0
C      1  0.4459710000000  0.4812050000000  0.5251900000000 1.0
C      1  0.4062430000000  0.5415890000000  0.5346310000000 1.0
C      1  0.4314080000000  0.4914630000000  0.4350470000000 1.0
C      1  0.5278290000000  0.4282580000000  0.5469060000000 1.0
C      1  0.5289490000000  0.4204760000000  0.5192760000000 1.0
C      1  0.5488900000000  0.5641830000000  0.5605390000000 1.0
C      1  0.4804910000000  0.4509770000000  0.5041240000000 1.0
C      1  0.5307310000000  0.5262740000000  0.4848030000000 1.0
C      1  0.4538190000000  0.4127280000000  0.5219150000000 1.0
C      1  0.4831690000000  0.4071720000000  0.5218500000000 1.0
C      1  0.4225870000000  0.5074780000000  0.5530840000000 1.0
C      1  0.5448610000000  0.5109680000000  0.5526700000000 1.0
C      1  0.5252760000000  0.4579850000000  0.4752070000000 1.0
C      1  0.5750720000000  0.5278120000000  0.4751410000000 1.0
C      1  0.4637050000000  0.5037900000000  0.4928380000000 1.0
C      1  0.4870540000000  0.5194540000000  0.4923510000000 1.0
C      1  0.5036380000000  0.4929250000000  0.4565680000000 1.0
C      1  0.5372060000000  0.4482020000000  0.5271410000000 1.0
C      1  0.4484900000000  0.5443040000000  0.5605760000000 1.0
C      1  0.4602210000000  0.5319120000000  0.5355890000000 1.0
C      1  0.4962810000000  0.4128970000000  0.4780780000000 1.0
C      1  0.5251730000000  0.4797570000000  0.5737030000000 1.0
C      1  0.5302740000000  0.4416770000000  0.4264710000000 1.0
C      1  0.4656430000000  0.4816100000000  0.5465060000000 1.0
C      1  0.4617660000000  0.5069790000000  0.5881860000000 1.0
C      1  0.5763770000000  0.4766280000000  0.4674600000000 1.0
C      1  0.5669480000000  0.5288260000000  0.5503760000000 1.0
C      1  0.4935230000000  0.4878860000000  0.5348910000000 1.0
C      1  0.5497410000000  0.5764220000000  0.4613210000000 1.0
C      1  0.4877170000000  0.4359270000000  0.5282630000000 1.0
C      1  0.5413260000000  0.5728060000000  0.5361360000000 1.0
C      1  0.4864970000000  0.4712500000000  0.4177650000000 1.0
C      1  0.4689150000000  0.4555570000000  0.4648820000000 1.0
END
