TITL C-4164233-775-249 -17.0512285278072 125000 -13807.0897271373 0 0 93 (C1) n - 1
REM
REM in /home/nfs/bkarasulu/CARBON/AIRSS/Generating-Clusters/ReaxFF-fromJPCA2015/Units_Real/with-SteepDescent/Only-C1/SD-CG/Try1-3A/FIRE-CG
REM
REM
REM
REM
REM
REM ./C.cell (11c1c37f851c82e70ff6c80c92926a4b)
REM
REM compiler GCC version 9.2.1 20190827 (Red Hat 9.2.1-1)
REM options -cpp -mtune=generic -march=x86-64 -g -O0 -fpre-include=/usr/include/finclude/math-vector-fortran.h
REM seed 923766757 -1826088872 1889273716 2024094740 -1918492505 1686172190 1308292011 -1774543943 713162826 -1518712694 -1339059186 -992232081 648745834 1501854480 776182633 -733097353 1595649534 -1171190947 -1369314073 1692498277 -624733801 1934551511 720196105 590921017 1938373823 -960125370 693255334 -63959533 -1873812997 -1150935219 -1515858288 1846025029 -1638634956
REM
CELL 1.54180   50.00000   50.00000   50.00000   90.00000   90.00000   90.00000
LATT -1
SFAC C  
C      1  0.5138500000000  0.5135140000000  0.4782650000000 1.0
C      1  0.5727810000000  0.5516740000000  0.5385080000000 1.0
C      1  0.4621370000000  0.4892300000000  0.5846470000000 1.0
C      1  0.4373580000000  0.4738590000000  0.5460590000000 1.0
C      1  0.4866330000000  0.4839500000000  0.4486400000000 1.0
C      1  0.4226670000000  0.4804510000000  0.5210080000000 1.0
C      1  0.4991770000000  0.5621380000000  0.5535780000000 1.0
C      1  0.5510210000000  0.5402380000000  0.4650650000000 1.0
C      1  0.5885480000000  0.4755330000000  0.5044740000000 1.0
C      1  0.5674530000000  0.4942730000000  0.4849020000000 1.0
C      1  0.4222620000000  0.5083900000000  0.4793350000000 1.0
C      1  0.4578810000000  0.4536560000000  0.5542390000000 1.0
C      1  0.5277550000000  0.4840270000000  0.4177740000000 1.0
C      1  0.4530260000000  0.4555080000000  0.4348820000000 1.0
C      1  0.5839550000000  0.5431370000000  0.4991250000000 1.0
C      1  0.5001660000000  0.4272980000000  0.5382490000000 1.0
C      1  0.4734900000000  0.4486540000000  0.5084230000000 1.0
C      1  0.5329360000000  0.5366860000000  0.5212520000000 1.0
C      1  0.5582170000000  0.4618710000000  0.5694880000000 1.0
C      1  0.5396450000000  0.5631500000000  0.5121070000000 1.0
C      1  0.5126500000000  0.5219170000000  0.5812210000000 1.0
C      1  0.5229790000000  0.4545950000000  0.4954020000000 1.0
C      1  0.4928640000000  0.5675540000000  0.4378120000000 1.0
C      1  0.4647490000000  0.5300450000000  0.5315100000000 1.0
C      1  0.5711280000000  0.5047370000000  0.5301600000000 1.0
C      1  0.4870510000000  0.5082170000000  0.4279520000000 1.0
C      1  0.5085180000000  0.5030540000000  0.4046120000000 1.0
C      1  0.5272680000000  0.4974440000000  0.5748260000000 1.0
C      1  0.5538510000000  0.4789560000000  0.4623650000000 1.0
C      1  0.5227600000000  0.5766030000000  0.4923000000000 1.0
C      1  0.4854360000000  0.5752940000000  0.5289960000000 1.0
C      1  0.5701190000000  0.5261000000000  0.4795750000000 1.0
C      1  0.5252100000000  0.4282010000000  0.5357600000000 1.0
C      1  0.4182680000000  0.5066770000000  0.5081990000000 1.0
C      1  0.4637920000000  0.4999140000000  0.4917890000000 1.0
C      1  0.5853130000000  0.4631420000000  0.5230110000000 1.0
C      1  0.5204250000000  0.4733690000000  0.5549990000000 1.0
C      1  0.4392510000000  0.4785250000000  0.4466620000000 1.0
C      1  0.5299410000000  0.5191370000000  0.4549080000000 1.0
C      1  0.5022600000000  0.4936720000000  0.5191840000000 1.0
C      1  0.5234700000000  0.5117670000000  0.5054140000000 1.0
C      1  0.5378130000000  0.5671110000000  0.4677580000000 1.0
C      1  0.5150830000000  0.4574990000000  0.4219170000000 1.0
C      1  0.5870510000000  0.5295750000000  0.5252670000000 1.0
C      1  0.4888380000000  0.5003290000000  0.5566450000000 1.0
C      1  0.4718200000000  0.5572870000000  0.4569870000000 1.0
C      1  0.4246480000000  0.5299210000000  0.5255070000000 1.0
C      1  0.5107440000000  0.5305310000000  0.3953640000000 1.0
C      1  0.4978320000000  0.4417760000000  0.4908660000000 1.0
C      1  0.4421030000000  0.4962090000000  0.5634340000000 1.0
C      1  0.5491170000000  0.4412690000000  0.5297600000000 1.0
C      1  0.4944360000000  0.5722240000000  0.5006740000000 1.0
C      1  0.4881700000000  0.4553210000000  0.4116280000000 1.0
C      1  0.5092680000000  0.5486070000000  0.4205850000000 1.0
C      1  0.4645480000000  0.4356950000000  0.4539730000000 1.0
C      1  0.5458510000000  0.5380570000000  0.5484450000000 1.0
C      1  0.4735430000000  0.4629730000000  0.5766730000000 1.0
C      1  0.4510970000000  0.5401810000000  0.4453870000000 1.0
C      1  0.4885760000000  0.5001450000000  0.4727170000000 1.0
C      1  0.5557330000000  0.4910610000000  0.5757140000000 1.0
C      1  0.5167600000000  0.4465270000000  0.4489600000000 1.0
C      1  0.4834400000000  0.5101150000000  0.5812800000000 1.0
C      1  0.4899320000000  0.5376070000000  0.5419400000000 1.0
C      1  0.5628190000000  0.5117670000000  0.5567270000000 1.0
C      1  0.4377720000000  0.5523990000000  0.5111200000000 1.0
C      1  0.5040730000000  0.5128400000000  0.5401910000000 1.0
C      1  0.4419250000000  0.5215940000000  0.5476780000000 1.0
C      1  0.5717020000000  0.4505360000000  0.5462010000000 1.0
C      1  0.4220210000000  0.4668220000000  0.4959310000000 1.0
C      1  0.4606550000000  0.5333280000000  0.5014270000000 1.0
C      1  0.4738610000000  0.4362980000000  0.5368480000000 1.0
C      1  0.4272460000000  0.4389090000000  0.4922410000000 1.0
C      1  0.5062530000000  0.5279390000000  0.4405340000000 1.0
C      1  0.5159260000000  0.5748510000000  0.4519390000000 1.0
C      1  0.4763300000000  0.5545270000000  0.4854450000000 1.0
C      1  0.4772030000000  0.4821160000000  0.5099250000000 1.0
C      1  0.4653990000000  0.4545460000000  0.4083690000000 1.0
C      1  0.5020180000000  0.4573800000000  0.5713650000000 1.0
C      1  0.5697050000000  0.5656090000000  0.5133030000000 1.0
C      1  0.5201600000000  0.5463300000000  0.5662760000000 1.0
C      1  0.4368540000000  0.4842410000000  0.4755530000000 1.0
C      1  0.4583230000000  0.5694210000000  0.5221350000000 1.0
C      1  0.4578910000000  0.5192100000000  0.4267770000000 1.0
C      1  0.5306400000000  0.4528560000000  0.5745900000000 1.0
C      1  0.5355220000000  0.4566510000000  0.4688810000000 1.0
C      1  0.4448970000000  0.4263400000000  0.4731450000000 1.0
C      1  0.4360540000000  0.5036690000000  0.4356450000000 1.0
C      1  0.5344440000000  0.4659250000000  0.5209840000000 1.0
C      1  0.5504120000000  0.4926840000000  0.5105640000000 1.0
C      1  0.5429860000000  0.4931860000000  0.4401690000000 1.0
C      1  0.4282140000000  0.5234500000000  0.4554100000000 1.0
C      1  0.4925070000000  0.4368750000000  0.4629620000000 1.0
C      1  0.4515260000000  0.4315250000000  0.4995100000000 1.0
END
