TITL C-4164246-3563-120 60.1947301995366 125000 -24243.711199961 0 0 164 (C1) n - 1
REM
REM in /home/nfs/bkarasulu/CARBON/AIRSS/Generating-Clusters/ReaxFF-fromJPCA2015/Units_Real/with-SteepDescent/Only-C1/SD-CG/Try1-3A/FIRE-CG
REM
REM
REM
REM
REM
REM ./C.cell (11c1c37f851c82e70ff6c80c92926a4b)
REM
REM compiler GCC version 9.2.1 20190827 (Red Hat 9.2.1-1)
REM options -cpp -mtune=generic -march=x86-64 -g -O0 -fpre-include=/usr/include/finclude/math-vector-fortran.h
REM seed 257480410 -274479668 1861026422 -695444230 -1561392590 1595117493 -1434879686 62330761 420914331 1054262985 -1154236941 509945057 -1448432099 -1748977275 -53899625 1888994264 447032036 -423197274 -606021033 1117130601 -1316280507 1816844661 -1182974458 1794751803 -427240360 1508074659 422840838 1659209970 -266321527 1393554818 -21263971 1265528430 1476515899
REM
CELL 1.54180   50.00000   50.00000   50.00000   90.00000   90.00000   90.00000
LATT -1
SFAC C  
C      1  0.5234340000000  0.4523880000000  0.4941270000000 1.0
C      1  0.4532380000000  0.5564640000000  0.4339180000000 1.0
C      1  0.5406800000000  0.5484020000000  0.5912890000000 1.0
C      1  0.4082300000000  0.5877160000000  0.5243920000000 1.0
C      1  0.4317380000000  0.4428860000000  0.5624850000000 1.0
C      1  0.4119630000000  0.4936800000000  0.4913160000000 1.0
C      1  0.4921470000000  0.3991080000000  0.4799830000000 1.0
C      1  0.4474510000000  0.5205720000000  0.5883130000000 1.0
C      1  0.5950460000000  0.5465990000000  0.4988830000000 1.0
C      1  0.5086150000000  0.4649150000000  0.5478600000000 1.0
C      1  0.3965310000000  0.5475850000000  0.4798180000000 1.0
C      1  0.4552600000000  0.4162710000000  0.4984200000000 1.0
C      1  0.4224960000000  0.4658210000000  0.5786820000000 1.0
C      1  0.4963410000000  0.5929870000000  0.4370920000000 1.0
C      1  0.5607460000000  0.4328830000000  0.4456570000000 1.0
C      1  0.4941320000000  0.5140870000000  0.4384410000000 1.0
C      1  0.5136160000000  0.5519380000000  0.4771960000000 1.0
C      1  0.4752900000000  0.5235920000000  0.4814120000000 1.0
C      1  0.5235430000000  0.5943550000000  0.4514720000000 1.0
C      1  0.4675610000000  0.4601800000000  0.5169240000000 1.0
C      1  0.4481580000000  0.5543460000000  0.5407690000000 1.0
C      1  0.4640150000000  0.5838430000000  0.4996450000000 1.0
C      1  0.5389230000000  0.5267140000000  0.4459630000000 1.0
C      1  0.5773250000000  0.5755260000000  0.4603250000000 1.0
C      1  0.4339320000000  0.4305890000000  0.4479840000000 1.0
C      1  0.4228670000000  0.4945210000000  0.5385040000000 1.0
C      1  0.5636650000000  0.4189020000000  0.4705400000000 1.0
C      1  0.4461440000000  0.4465600000000  0.4256640000000 1.0
C      1  0.5208760000000  0.4915460000000  0.4003670000000 1.0
C      1  0.4221040000000  0.5772560000000  0.5032970000000 1.0
C      1  0.3863220000000  0.4991700000000  0.5028600000000 1.0
C      1  0.5651610000000  0.4715920000000  0.4206250000000 1.0
C      1  0.5262110000000  0.5950170000000  0.5426770000000 1.0
C      1  0.5551330000000  0.5519000000000  0.4955130000000 1.0
C      1  0.5013000000000  0.4265880000000  0.5635030000000 1.0
C      1  0.4847420000000  0.5389310000000  0.5040820000000 1.0
C      1  0.4474890000000  0.4134650000000  0.4661000000000 1.0
C      1  0.5410880000000  0.4045340000000  0.4813630000000 1.0
C      1  0.4415150000000  0.4179450000000  0.5256570000000 1.0
C      1  0.5290960000000  0.4488140000000  0.5356570000000 1.0
C      1  0.4842190000000  0.4926040000000  0.6063060000000 1.0
C      1  0.4232120000000  0.5404200000000  0.5483910000000 1.0
C      1  0.5193200000000  0.5213650000000  0.5519470000000 1.0
C      1  0.6020920000000  0.4935820000000  0.5222230000000 1.0
C      1  0.5161160000000  0.4089790000000  0.4678290000000 1.0
C      1  0.4235510000000  0.5212630000000  0.5713940000000 1.0
C      1  0.4735250000000  0.4386510000000  0.4178290000000 1.0
C      1  0.5441590000000  0.5726610000000  0.5739270000000 1.0
C      1  0.5750360000000  0.5402520000000  0.5613490000000 1.0
C      1  0.3950470000000  0.5087860000000  0.4442210000000 1.0
C      1  0.5701750000000  0.5020680000000  0.5934780000000 1.0
C      1  0.4836810000000  0.6033900000000  0.4613190000000 1.0
C      1  0.4697960000000  0.4996830000000  0.3935000000000 1.0
C      1  0.3958310000000  0.4330220000000  0.4931250000000 1.0
C      1  0.4064190000000  0.5359460000000  0.5259160000000 1.0
C      1  0.5122930000000  0.5473660000000  0.5423100000000 1.0
C      1  0.5041640000000  0.4812120000000  0.5715270000000 1.0
C      1  0.4585910000000  0.4313090000000  0.5682190000000 1.0
C      1  0.5956730000000  0.4467880000000  0.5111070000000 1.0
C      1  0.5285430000000  0.5188140000000  0.4022490000000 1.0
C      1  0.5451860000000  0.5046540000000  0.5439780000000 1.0
C      1  0.5789370000000  0.5234420000000  0.4225670000000 1.0
C      1  0.5232920000000  0.4465630000000  0.4105920000000 1.0
C      1  0.4406060000000  0.4788120000000  0.4511240000000 1.0
C      1  0.4731600000000  0.5286400000000  0.3967970000000 1.0
C      1  0.5249180000000  0.5131980000000  0.5059040000000 1.0
C      1  0.5597580000000  0.4190570000000  0.5236880000000 1.0
C      1  0.5835740000000  0.4516760000000  0.5373290000000 1.0
C      1  0.5562400000000  0.4392070000000  0.5440640000000 1.0
C      1  0.4476390000000  0.5597970000000  0.5102810000000 1.0
C      1  0.5936760000000  0.4778290000000  0.5457750000000 1.0
C      1  0.6004870000000  0.4674850000000  0.4757430000000 1.0
C      1  0.5927480000000  0.5212610000000  0.5170930000000 1.0
C      1  0.4551100000000  0.4979690000000  0.6074690000000 1.0
C      1  0.5788770000000  0.4838750000000  0.5710290000000 1.0
C      1  0.5417680000000  0.5351200000000  0.5124430000000 1.0
C      1  0.5760330000000  0.5654770000000  0.5126490000000 1.0
C      1  0.4836060000000  0.5013060000000  0.5361570000000 1.0
C      1  0.5479020000000  0.4829740000000  0.6030080000000 1.0
C      1  0.5483810000000  0.5779650000000  0.4511830000000 1.0
C      1  0.5510610000000  0.4548590000000  0.4924240000000 1.0
C      1  0.4399640000000  0.5708560000000  0.4562990000000 1.0
C      1  0.4642550000000  0.4136270000000  0.5447860000000 1.0
C      1  0.4199980000000  0.4972650000000  0.4629390000000 1.0
C      1  0.4462780000000  0.5007680000000  0.4107290000000 1.0
C      1  0.4714240000000  0.5294940000000  0.5746800000000 1.0
C      1  0.5755920000000  0.5205040000000  0.5401940000000 1.0
C      1  0.4917180000000  0.4101910000000  0.5344920000000 1.0
C      1  0.5589230000000  0.5626330000000  0.5504070000000 1.0
C      1  0.4037720000000  0.5344390000000  0.4541120000000 1.0
C      1  0.4314320000000  0.5264610000000  0.4649130000000 1.0
C      1  0.5786640000000  0.4560370000000  0.4413670000000 1.0
C      1  0.5172940000000  0.4319230000000  0.5139670000000 1.0
C      1  0.4687500000000  0.5542010000000  0.5608060000000 1.0
C      1  0.4733730000000  0.4054680000000  0.4574210000000 1.0
C      1  0.5063860000000  0.4710830000000  0.4778040000000 1.0
C      1  0.4163160000000  0.5686610000000  0.4753540000000 1.0
C      1  0.4466640000000  0.4725530000000  0.5024540000000 1.0
C      1  0.5031170000000  0.5538560000000  0.4275580000000 1.0
C      1  0.5748920000000  0.4970020000000  0.4196120000000 1.0
C      1  0.5639390000000  0.5299700000000  0.5865440000000 1.0
C      1  0.5096370000000  0.6022660000000  0.4763740000000 1.0
C      1  0.3976350000000  0.5965640000000  0.5444080000000 1.0
C      1  0.5362050000000  0.5997180000000  0.5172220000000 1.0
C      1  0.4943250000000  0.5089830000000  0.5608690000000 1.0
C      1  0.5959380000000  0.5286490000000  0.4492510000000 1.0
C      1  0.5657190000000  0.5932040000000  0.5084820000000 1.0
C      1  0.5513080000000  0.4830550000000  0.5632350000000 1.0
C      1  0.5258690000000  0.4993500000000  0.6058190000000 1.0
C      1  0.5495480000000  0.5090980000000  0.4615370000000 1.0
C      1  0.5127570000000  0.5418350000000  0.5922760000000 1.0
C      1  0.5052900000000  0.5166560000000  0.6063150000000 1.0
C      1  0.5121880000000  0.4303520000000  0.4468660000000 1.0
C      1  0.4952230000000  0.4534040000000  0.4038570000000 1.0
C      1  0.4301690000000  0.4568730000000  0.4855280000000 1.0
C      1  0.4939360000000  0.4811280000000  0.3952590000000 1.0
C      1  0.4845290000000  0.4733730000000  0.5345280000000 1.0
C      1  0.5624730000000  0.4908600000000  0.4748620000000 1.0
C      1  0.5409700000000  0.4546510000000  0.5891410000000 1.0
C      1  0.5008750000000  0.5297870000000  0.4125060000000 1.0
C      1  0.5184290000000  0.5849520000000  0.5672690000000 1.0
C      1  0.5003110000000  0.5591460000000  0.5683430000000 1.0
C      1  0.4590930000000  0.5891520000000  0.4709070000000 1.0
C      1  0.5381710000000  0.5514840000000  0.5339670000000 1.0
C      1  0.3853190000000  0.4746240000000  0.5183970000000 1.0
C      1  0.4828060000000  0.4029480000000  0.5076220000000 1.0
C      1  0.6077340000000  0.5039490000000  0.4564260000000 1.0
C      1  0.4375650000000  0.4751600000000  0.4228890000000 1.0
C      1  0.4145400000000  0.4420220000000  0.4694930000000 1.0
C      1  0.4313230000000  0.4957290000000  0.5123400000000 1.0
C      1  0.4861860000000  0.4209890000000  0.4364290000000 1.0
C      1  0.5364490000000  0.4093970000000  0.5103280000000 1.0
C      1  0.4388530000000  0.4788340000000  0.5959470000000 1.0
C      1  0.5125690000000  0.4669930000000  0.4479370000000 1.0
C      1  0.4145580000000  0.4933320000000  0.5642150000000 1.0
C      1  0.4217690000000  0.4356130000000  0.5360490000000 1.0
C      1  0.4911330000000  0.4678380000000  0.5926660000000 1.0
C      1  0.4488210000000  0.5349410000000  0.4858450000000 1.0
C      1  0.5266380000000  0.4356440000000  0.5740610000000 1.0
C      1  0.5402130000000  0.5604330000000  0.4730880000000 1.0
C      1  0.6081190000000  0.4714480000000  0.5021340000000 1.0
C      1  0.4905300000000  0.4998760000000  0.4887930000000 1.0
C      1  0.4831580000000  0.4401060000000  0.5811800000000 1.0
C      1  0.4683540000000  0.4756060000000  0.4585230000000 1.0
C      1  0.4516550000000  0.5316830000000  0.4157260000000 1.0
C      1  0.4794300000000  0.5696040000000  0.4287050000000 1.0
C      1  0.5080150000000  0.5371140000000  0.4516560000000 1.0
C      1  0.5387050000000  0.4924420000000  0.5188410000000 1.0
C      1  0.5334080000000  0.4722390000000  0.4209380000000 1.0
C      1  0.5568290000000  0.4809870000000  0.5012650000000 1.0
C      1  0.5716330000000  0.4327930000000  0.4969050000000 1.0
C      1  0.5911750000000  0.5504670000000  0.4700480000000 1.0
C      1  0.4959150000000  0.5131920000000  0.5129380000000 1.0
C      1  0.5720680000000  0.5929860000000  0.4814480000000 1.0
C      1  0.3978380000000  0.4471580000000  0.5187160000000 1.0
C      1  0.4910150000000  0.4858560000000  0.4426460000000 1.0
C      1  0.4719530000000  0.4411380000000  0.4970110000000 1.0
C      1  0.5356740000000  0.4300340000000  0.4303490000000 1.0
C      1  0.5125250000000  0.5896280000000  0.5028920000000 1.0
C      1  0.3909890000000  0.5309170000000  0.5046650000000 1.0
C      1  0.5864770000000  0.4781770000000  0.4596620000000 1.0
C      1  0.5501740000000  0.5302310000000  0.4182140000000 1.0
C      1  0.5056220000000  0.5595020000000  0.5037920000000 1.0
C      1  0.4803860000000  0.4573210000000  0.4757290000000 1.0
END
