TITL C-4164246-3563-660 9.32366943312392 125000 -20739.2229198219 0 0 138 (C1) n - 1
REM
REM in /home/nfs/bkarasulu/CARBON/AIRSS/Generating-Clusters/ReaxFF-fromJPCA2015/Units_Real/with-SteepDescent/Only-C1/SD-CG/Try1-3A/FIRE-CG
REM
REM
REM
REM
REM
REM ./C.cell (11c1c37f851c82e70ff6c80c92926a4b)
REM
REM compiler GCC version 9.2.1 20190827 (Red Hat 9.2.1-1)
REM options -cpp -mtune=generic -march=x86-64 -g -O0 -fpre-include=/usr/include/finclude/math-vector-fortran.h
REM seed 745762050 -2082030041 1120708382 -683478281 623199624 -1935753017 1459185480 -569802022 444433514 -313559883 -55460406 743298187 1398667488 -584863294 573651536 -522934105 -1196320169 -1624031757 -5295453 -140478535 -445544300 -517212298 82034514 -2040490315 1033299032 -679450266 1109973747 1234813062 1946470407 -1619765592 2066203477 -1707378880 -2017918817
REM
CELL 1.54180   50.00000   50.00000   50.00000   90.00000   90.00000   90.00000
LATT -1
SFAC C  
C      1  0.5729170000000  0.5025400000000  0.4435350000000 1.0
C      1  0.5643900000000  0.4120530000000  0.4733440000000 1.0
C      1  0.5419550000000  0.4631050000000  0.5879730000000 1.0
C      1  0.4152590000000  0.4718990000000  0.5122330000000 1.0
C      1  0.5800890000000  0.5265180000000  0.4655430000000 1.0
C      1  0.4564200000000  0.4622420000000  0.4827960000000 1.0
C      1  0.4167380000000  0.4886890000000  0.5366590000000 1.0
C      1  0.4643010000000  0.5060530000000  0.5057450000000 1.0
C      1  0.5539180000000  0.5022840000000  0.4218490000000 1.0
C      1  0.4608170000000  0.5346160000000  0.4149920000000 1.0
C      1  0.5429940000000  0.4081450000000  0.4536250000000 1.0
C      1  0.4891460000000  0.5290350000000  0.4025500000000 1.0
C      1  0.4847480000000  0.4573470000000  0.5912000000000 1.0
C      1  0.4499490000000  0.5786950000000  0.5594210000000 1.0
C      1  0.5261810000000  0.4779570000000  0.5662370000000 1.0
C      1  0.5624550000000  0.5568920000000  0.5321820000000 1.0
C      1  0.5006140000000  0.4472040000000  0.4093410000000 1.0
C      1  0.4529120000000  0.4597540000000  0.4267680000000 1.0
C      1  0.4616940000000  0.5118070000000  0.4785830000000 1.0
C      1  0.4066240000000  0.5108490000000  0.4851820000000 1.0
C      1  0.5113170000000  0.5348340000000  0.4712240000000 1.0
C      1  0.4793850000000  0.4770530000000  0.5449590000000 1.0
C      1  0.5402990000000  0.5291850000000  0.4136870000000 1.0
C      1  0.4299020000000  0.4581230000000  0.4453030000000 1.0
C      1  0.5262490000000  0.5863340000000  0.5413020000000 1.0
C      1  0.4567700000000  0.4186560000000  0.4669090000000 1.0
C      1  0.5886840000000  0.4577070000000  0.5141340000000 1.0
C      1  0.4312280000000  0.5856370000000  0.5377740000000 1.0
C      1  0.4836080000000  0.4929220000000  0.5208930000000 1.0
C      1  0.4284300000000  0.5262960000000  0.5652670000000 1.0
C      1  0.4445060000000  0.5943000000000  0.5130470000000 1.0
C      1  0.4676330000000  0.5478890000000  0.5829210000000 1.0
C      1  0.4514110000000  0.5570140000000  0.4492850000000 1.0
C      1  0.5405070000000  0.5392140000000  0.5246380000000 1.0
C      1  0.5516890000000  0.5771070000000  0.5517730000000 1.0
C      1  0.4665010000000  0.5073440000000  0.5921340000000 1.0
C      1  0.4668300000000  0.5346550000000  0.4605980000000 1.0
C      1  0.4387130000000  0.5167370000000  0.4201530000000 1.0
C      1  0.5706300000000  0.5060370000000  0.5416080000000 1.0
C      1  0.4245540000000  0.5597790000000  0.5256030000000 1.0
C      1  0.5845750000000  0.4384340000000  0.5348020000000 1.0
C      1  0.4451380000000  0.4252140000000  0.5159370000000 1.0
C      1  0.5542130000000  0.5210600000000  0.4796650000000 1.0
C      1  0.5672810000000  0.4530100000000  0.5551710000000 1.0
C      1  0.5156810000000  0.5239350000000  0.5852650000000 1.0
C      1  0.5614820000000  0.4420860000000  0.4745960000000 1.0
C      1  0.5307240000000  0.4067470000000  0.5385590000000 1.0
C      1  0.5443300000000  0.4752500000000  0.4164410000000 1.0
C      1  0.5452550000000  0.5166550000000  0.5860960000000 1.0
C      1  0.4863290000000  0.5298690000000  0.5927240000000 1.0
C      1  0.4855610000000  0.4254440000000  0.5033170000000 1.0
C      1  0.4851490000000  0.4852100000000  0.5951170000000 1.0
C      1  0.5434460000000  0.4734320000000  0.5180390000000 1.0
C      1  0.5087120000000  0.4759450000000  0.4572750000000 1.0
C      1  0.4295900000000  0.4484380000000  0.5136900000000 1.0
C      1  0.4556820000000  0.4608630000000  0.5505610000000 1.0
C      1  0.5476820000000  0.5403140000000  0.4386690000000 1.0
C      1  0.4586720000000  0.4330450000000  0.5406790000000 1.0
C      1  0.5016770000000  0.4362460000000  0.4567720000000 1.0
C      1  0.4401490000000  0.4427360000000  0.4681690000000 1.0
C      1  0.5844290000000  0.5075970000000  0.5153710000000 1.0
C      1  0.5782310000000  0.4670140000000  0.4742630000000 1.0
C      1  0.4580020000000  0.4868840000000  0.4669060000000 1.0
C      1  0.4176130000000  0.5613240000000  0.4799920000000 1.0
C      1  0.5039110000000  0.5601120000000  0.4363630000000 1.0
C      1  0.5319650000000  0.4157800000000  0.5644120000000 1.0
C      1  0.5724650000000  0.4192070000000  0.5175760000000 1.0
C      1  0.4218510000000  0.5549340000000  0.4524070000000 1.0
C      1  0.5246810000000  0.4844580000000  0.3991480000000 1.0
C      1  0.4815750000000  0.4529200000000  0.4938140000000 1.0
C      1  0.4390340000000  0.5802970000000  0.4870880000000 1.0
C      1  0.4931100000000  0.4884490000000  0.4362990000000 1.0
C      1  0.5659300000000  0.5763880000000  0.4614700000000 1.0
C      1  0.4770710000000  0.4237360000000  0.4462170000000 1.0
C      1  0.5019830000000  0.4139040000000  0.5682110000000 1.0
C      1  0.4043360000000  0.5385760000000  0.5238950000000 1.0
C      1  0.5075070000000  0.4427480000000  0.5341930000000 1.0
C      1  0.4885380000000  0.5867870000000  0.4736150000000 1.0
C      1  0.5436280000000  0.5924720000000  0.4932390000000 1.0
C      1  0.5889470000000  0.4812240000000  0.5008060000000 1.0
C      1  0.4873060000000  0.4227100000000  0.5430110000000 1.0
C      1  0.4423600000000  0.5036020000000  0.5747890000000 1.0
C      1  0.5402100000000  0.5369980000000  0.4991220000000 1.0
C      1  0.5331500000000  0.5188760000000  0.4612880000000 1.0
C      1  0.4120830000000  0.5175870000000  0.5425920000000 1.0
C      1  0.4634950000000  0.4120360000000  0.4947610000000 1.0
C      1  0.5268530000000  0.4925230000000  0.4718280000000 1.0
C      1  0.4082450000000  0.4851870000000  0.4835780000000 1.0
C      1  0.4605390000000  0.5789450000000  0.4674890000000 1.0
C      1  0.5285470000000  0.4920530000000  0.5015750000000 1.0
C      1  0.5712390000000  0.5788700000000  0.4904620000000 1.0
C      1  0.5100660000000  0.5060660000000  0.5198620000000 1.0
C      1  0.5888720000000  0.5309550000000  0.4977310000000 1.0
C      1  0.4901210000000  0.4340590000000  0.5831670000000 1.0
C      1  0.4974330000000  0.5467300000000  0.5441190000000 1.0
C      1  0.4561550000000  0.5214810000000  0.5251220000000 1.0
C      1  0.4346590000000  0.4802850000000  0.5577000000000 1.0
C      1  0.4948430000000  0.5944720000000  0.5013730000000 1.0
C      1  0.5107960000000  0.5812140000000  0.4551060000000 1.0
C      1  0.4758280000000  0.5880210000000  0.5483380000000 1.0
C      1  0.5181050000000  0.4174220000000  0.4721450000000 1.0
C      1  0.5220270000000  0.5931430000000  0.5127930000000 1.0
C      1  0.5032710000000  0.4626990000000  0.5546940000000 1.0
C      1  0.4727870000000  0.5970190000000  0.5205310000000 1.0
C      1  0.5724410000000  0.5506170000000  0.4492300000000 1.0
C      1  0.4510730000000  0.5483710000000  0.5206250000000 1.0
C      1  0.5659130000000  0.5535390000000  0.5603010000000 1.0
C      1  0.5286780000000  0.3994640000000  0.5122730000000 1.0
C      1  0.4709070000000  0.5405660000000  0.5383160000000 1.0
C      1  0.5293360000000  0.4484510000000  0.4195990000000 1.0
C      1  0.5505970000000  0.4387420000000  0.5732010000000 1.0
C      1  0.4152120000000  0.5050750000000  0.4351270000000 1.0
C      1  0.5145460000000  0.5442470000000  0.4140020000000 1.0
C      1  0.4051150000000  0.5369760000000  0.4942700000000 1.0
C      1  0.5526100000000  0.4895490000000  0.5962020000000 1.0
C      1  0.4747200000000  0.4400450000000  0.4219940000000 1.0
C      1  0.5387500000000  0.4275580000000  0.4348280000000 1.0
C      1  0.5292440000000  0.4477970000000  0.5147440000000 1.0
C      1  0.5685290000000  0.4767740000000  0.4502390000000 1.0
C      1  0.5014970000000  0.5745080000000  0.5518050000000 1.0
C      1  0.4921920000000  0.5410130000000  0.4536960000000 1.0
C      1  0.5173270000000  0.5288520000000  0.5354060000000 1.0
C      1  0.5580960000000  0.4023150000000  0.5012470000000 1.0
C      1  0.4648790000000  0.4836730000000  0.4382740000000 1.0
C      1  0.5165680000000  0.5435610000000  0.4937680000000 1.0
C      1  0.5824960000000  0.5575220000000  0.5062830000000 1.0
C      1  0.4988950000000  0.4567890000000  0.4729430000000 1.0
C      1  0.5019120000000  0.4704340000000  0.3927970000000 1.0
C      1  0.4049050000000  0.5321790000000  0.4405080000000 1.0
C      1  0.5354430000000  0.4390380000000  0.4877550000000 1.0
C      1  0.5380770000000  0.5873860000000  0.4650510000000 1.0
C      1  0.5011790000000  0.4961610000000  0.4093290000000 1.0
C      1  0.5093700000000  0.4970460000000  0.5817720000000 1.0
C      1  0.5548280000000  0.4798150000000  0.5451030000000 1.0
C      1  0.4154510000000  0.4820600000000  0.4548600000000 1.0
C      1  0.5044500000000  0.4061100000000  0.4959940000000 1.0
C      1  0.5634610000000  0.5248990000000  0.5626460000000 1.0
C      1  0.4432130000000  0.5526630000000  0.5728370000000 1.0
END
