TITL C-4164247-2821-369 5.82219546565253 125000 -14811.6751912631 0 0 100 (C1) n - 1
REM
REM in /home/nfs/bkarasulu/CARBON/AIRSS/Generating-Clusters/ReaxFF-fromJPCA2015/Units_Real/with-SteepDescent/Only-C1/SD-CG/Try1-3A/FIRE-CG
REM
REM
REM
REM
REM
REM ./C.cell (11c1c37f851c82e70ff6c80c92926a4b)
REM
REM compiler GCC version 9.2.1 20190827 (Red Hat 9.2.1-1)
REM options -cpp -mtune=generic -march=x86-64 -g -O0 -fpre-include=/usr/include/finclude/math-vector-fortran.h
REM seed -1575534669 -141252747 -1421932553 -652757116 -974606783 -946864345 1831250548 -43573160 -440942148 -369835952 -319926621 55876471 -1880162663 -2032602008 690804161 -1517170022 -601417654 248981831 1187699020 1789620722 -1473911679 164626306 -1990805624 -404435015 632241078 -2085217695 -1293054567 474582846 -58687277 -789055312 -2117166008 -176623840 -1486535195
REM
CELL 1.54180   50.00000   50.00000   50.00000   90.00000   90.00000   90.00000
LATT -1
SFAC C  
C      1  0.4932180000000  0.4860670000000  0.5319350000000 1.0
C      1  0.4974450000000  0.5351080000000  0.4238680000000 1.0
C      1  0.4554450000000  0.4973570000000  0.4276250000000 1.0
C      1  0.5826070000000  0.5318330000000  0.4871570000000 1.0
C      1  0.4756270000000  0.5721370000000  0.5479200000000 1.0
C      1  0.5162380000000  0.4300700000000  0.5242600000000 1.0
C      1  0.4505330000000  0.5701290000000  0.4742530000000 1.0
C      1  0.4627030000000  0.4514470000000  0.4868710000000 1.0
C      1  0.5440680000000  0.4228700000000  0.5190370000000 1.0
C      1  0.5320420000000  0.5575560000000  0.4667360000000 1.0
C      1  0.4491240000000  0.5045490000000  0.5513670000000 1.0
C      1  0.5257680000000  0.5135490000000  0.5622230000000 1.0
C      1  0.4283290000000  0.4680040000000  0.4561640000000 1.0
C      1  0.5035290000000  0.5119010000000  0.5477790000000 1.0
C      1  0.4679120000000  0.5009420000000  0.5214660000000 1.0
C      1  0.4703990000000  0.4123600000000  0.5128220000000 1.0
C      1  0.5018270000000  0.4716260000000  0.5019380000000 1.0
C      1  0.4987980000000  0.4651060000000  0.5503560000000 1.0
C      1  0.4922060000000  0.5084500000000  0.4544060000000 1.0
C      1  0.4233420000000  0.5249770000000  0.5150460000000 1.0
C      1  0.4917340000000  0.5084000000000  0.5902470000000 1.0
C      1  0.5478060000000  0.5431570000000  0.4476780000000 1.0
C      1  0.5792680000000  0.4672760000000  0.4980480000000 1.0
C      1  0.4384300000000  0.5500980000000  0.5206200000000 1.0
C      1  0.4325510000000  0.5559120000000  0.4554400000000 1.0
C      1  0.5238120000000  0.5466950000000  0.5297810000000 1.0
C      1  0.4557780000000  0.4830340000000  0.5714320000000 1.0
C      1  0.5430460000000  0.4726920000000  0.5239440000000 1.0
C      1  0.5319980000000  0.4928560000000  0.4220360000000 1.0
C      1  0.5741160000000  0.4727670000000  0.4691090000000 1.0
C      1  0.5725490000000  0.4876380000000  0.5483630000000 1.0
C      1  0.4766230000000  0.5540650000000  0.4323280000000 1.0
C      1  0.5349690000000  0.4122590000000  0.4727910000000 1.0
C      1  0.4538530000000  0.5663290000000  0.5026400000000 1.0
C      1  0.5749100000000  0.5503130000000  0.5093520000000 1.0
C      1  0.5415520000000  0.5000310000000  0.5146710000000 1.0
C      1  0.4471180000000  0.4365590000000  0.5509400000000 1.0
C      1  0.4935370000000  0.5664140000000  0.4774200000000 1.0
C      1  0.5068820000000  0.5205970000000  0.4913720000000 1.0
C      1  0.4877010000000  0.5227990000000  0.5118910000000 1.0
C      1  0.4159950000000  0.4755260000000  0.5293920000000 1.0
C      1  0.4523840000000  0.4705020000000  0.4377960000000 1.0
C      1  0.5062720000000  0.4835200000000  0.5881560000000 1.0
C      1  0.4962930000000  0.5474670000000  0.5227540000000 1.0
C      1  0.4594340000000  0.5297610000000  0.5609410000000 1.0
C      1  0.4247590000000  0.5280690000000  0.4598410000000 1.0
C      1  0.4248070000000  0.4541800000000  0.5487720000000 1.0
C      1  0.4378090000000  0.5201730000000  0.4340850000000 1.0
C      1  0.4228710000000  0.4637600000000  0.5053460000000 1.0
C      1  0.5852260000000  0.4869880000000  0.5188390000000 1.0
C      1  0.5540980000000  0.4339440000000  0.4789980000000 1.0
C      1  0.4935840000000  0.4721490000000  0.4232050000000 1.0
C      1  0.4333090000000  0.4520670000000  0.4829080000000 1.0
C      1  0.4476080000000  0.5478780000000  0.4308470000000 1.0
C      1  0.4432650000000  0.4581760000000  0.5691720000000 1.0
C      1  0.4528630000000  0.5535300000000  0.5468810000000 1.0
C      1  0.5577310000000  0.4510200000000  0.4564160000000 1.0
C      1  0.5688140000000  0.5272870000000  0.4601680000000 1.0
C      1  0.4845910000000  0.5031790000000  0.4256370000000 1.0
C      1  0.5373610000000  0.4912920000000  0.4670960000000 1.0
C      1  0.4284280000000  0.5123760000000  0.4867450000000 1.0
C      1  0.5202800000000  0.4683370000000  0.5669470000000 1.0
C      1  0.5470790000000  0.4726140000000  0.5523830000000 1.0
C      1  0.4718210000000  0.4272720000000  0.5366990000000 1.0
C      1  0.5507620000000  0.5154010000000  0.5784570000000 1.0
C      1  0.4772410000000  0.4853890000000  0.5896810000000 1.0
C      1  0.5236730000000  0.4968730000000  0.4926030000000 1.0
C      1  0.4131010000000  0.4890190000000  0.4672500000000 1.0
C      1  0.4728900000000  0.4959320000000  0.4728390000000 1.0
C      1  0.5320410000000  0.5781780000000  0.4893160000000 1.0
C      1  0.5853070000000  0.5099140000000  0.5038860000000 1.0
C      1  0.5042260000000  0.5837080000000  0.4978580000000 1.0
C      1  0.5164720000000  0.4268530000000  0.4522000000000 1.0
C      1  0.5191660000000  0.4987220000000  0.4483640000000 1.0
C      1  0.5542980000000  0.5659700000000  0.5006870000000 1.0
C      1  0.4891310000000  0.4329680000000  0.4559820000000 1.0
C      1  0.5273230000000  0.5645970000000  0.5531910000000 1.0
C      1  0.5057450000000  0.4424510000000  0.5013310000000 1.0
C      1  0.5545190000000  0.5622650000000  0.5591110000000 1.0
C      1  0.4741970000000  0.5711630000000  0.4565430000000 1.0
C      1  0.4772940000000  0.4534620000000  0.4382750000000 1.0
C      1  0.5353870000000  0.4041510000000  0.4997980000000 1.0
C      1  0.4823780000000  0.4307490000000  0.4874860000000 1.0
C      1  0.5580690000000  0.4483240000000  0.5082650000000 1.0
C      1  0.5079840000000  0.5412330000000  0.4716670000000 1.0
C      1  0.5364320000000  0.5171660000000  0.4042040000000 1.0
C      1  0.4819080000000  0.5735300000000  0.5161350000000 1.0
C      1  0.4974800000000  0.5614040000000  0.5670800000000 1.0
C      1  0.5005900000000  0.4381930000000  0.5464220000000 1.0
C      1  0.5215170000000  0.4651550000000  0.4200460000000 1.0
C      1  0.5647110000000  0.4984950000000  0.4586730000000 1.0
C      1  0.4794040000000  0.4724030000000  0.4839690000000 1.0
C      1  0.5338180000000  0.4465430000000  0.4392190000000 1.0
C      1  0.4236350000000  0.5043310000000  0.5344710000000 1.0
C      1  0.5433370000000  0.5263970000000  0.5260000000000 1.0
C      1  0.5272350000000  0.5373260000000  0.4243490000000 1.0
C      1  0.5669180000000  0.5387010000000  0.5398590000000 1.0
C      1  0.4867620000000  0.5278850000000  0.5693950000000 1.0
C      1  0.4559560000000  0.5033210000000  0.4941900000000 1.0
C      1  0.5730160000000  0.5148330000000  0.5578360000000 1.0
END
