TITL C-4164242-3624-583 -4.37522757429121 125000 -17159.422665623 0 0 116 (C1) n - 1
REM
REM in /home/nfs/bkarasulu/CARBON/AIRSS/Generating-Clusters/ReaxFF-fromJPCA2015/Units_Real/with-SteepDescent/Only-C1/SD-CG/Try1-3A/FIRE-CG
REM
REM
REM
REM
REM
REM ./C.cell (11c1c37f851c82e70ff6c80c92926a4b)
REM
REM compiler GCC version 9.2.1 20190827 (Red Hat 9.2.1-1)
REM options -cpp -mtune=generic -march=x86-64 -g -O0 -fpre-include=/usr/include/finclude/math-vector-fortran.h
REM seed -2075803552 1096481387 -660052990 -40596681 -719628044 -1671955881 -1448635957 -1712895113 1366559853 1446600865 398203075 -1217322915 -1955030516 -1834504195 -1961422421 -236026093 -126157768 -1157514010 1329299590 1804103185 275052056 -720693731 782456863 844925235 -770071671 1788932431 1008007480 -396234209 1818222274 -1377262119 -1727439860 1129539643 -2025466056
REM
CELL 1.54180   50.00000   50.00000   50.00000   90.00000   90.00000   90.00000
LATT -1
SFAC C  
C      1  0.4137950000000  0.4800320000000  0.4905310000000 1.0
C      1  0.4753790000000  0.4596640000000  0.4139760000000 1.0
C      1  0.5038570000000  0.4634550000000  0.5864360000000 1.0
C      1  0.5449280000000  0.5183980000000  0.4558810000000 1.0
C      1  0.5599270000000  0.5280840000000  0.4183130000000 1.0
C      1  0.4568780000000  0.4881040000000  0.5181350000000 1.0
C      1  0.4962960000000  0.4100020000000  0.5182980000000 1.0
C      1  0.4355750000000  0.5652050000000  0.5297170000000 1.0
C      1  0.4361220000000  0.5360970000000  0.4746880000000 1.0
C      1  0.4092960000000  0.5221120000000  0.5234320000000 1.0
C      1  0.5437130000000  0.5052560000000  0.5752040000000 1.0
C      1  0.5540610000000  0.4550570000000  0.4416850000000 1.0
C      1  0.4617230000000  0.5188430000000  0.5208300000000 1.0
C      1  0.4453950000000  0.4405390000000  0.4796330000000 1.0
C      1  0.5810380000000  0.5102740000000  0.4741610000000 1.0
C      1  0.4950330000000  0.4912840000000  0.5873770000000 1.0
C      1  0.5106400000000  0.5506100000000  0.4102570000000 1.0
C      1  0.4667550000000  0.5668290000000  0.4668030000000 1.0
C      1  0.5428010000000  0.4936620000000  0.5218370000000 1.0
C      1  0.4828380000000  0.5502020000000  0.4845780000000 1.0
C      1  0.4783020000000  0.5184670000000  0.4216790000000 1.0
C      1  0.5748140000000  0.4548980000000  0.5194360000000 1.0
C      1  0.5423630000000  0.4235100000000  0.4769810000000 1.0
C      1  0.4683080000000  0.4831160000000  0.4717870000000 1.0
C      1  0.5157640000000  0.4366620000000  0.4749520000000 1.0
C      1  0.5808870000000  0.5199320000000  0.5402170000000 1.0
C      1  0.4319250000000  0.4475950000000  0.5245360000000 1.0
C      1  0.5187430000000  0.5185430000000  0.4994830000000 1.0
C      1  0.5457910000000  0.5792580000000  0.5184950000000 1.0
C      1  0.4859660000000  0.4330570000000  0.4456360000000 1.0
C      1  0.5102050000000  0.4801970000000  0.5491050000000 1.0
C      1  0.5162980000000  0.5561270000000  0.4581580000000 1.0
C      1  0.4998550000000  0.4951070000000  0.4216050000000 1.0
C      1  0.5629400000000  0.4435790000000  0.4676010000000 1.0
C      1  0.4739730000000  0.4676440000000  0.5268220000000 1.0
C      1  0.4498800000000  0.5192780000000  0.4944580000000 1.0
C      1  0.5076890000000  0.5875990000000  0.4994570000000 1.0
C      1  0.4663830000000  0.4597060000000  0.5541260000000 1.0
C      1  0.4395260000000  0.5628980000000  0.4732370000000 1.0
C      1  0.4880600000000  0.5256080000000  0.5314390000000 1.0
C      1  0.4908990000000  0.4213370000000  0.5641310000000 1.0
C      1  0.5235370000000  0.5785630000000  0.4762920000000 1.0
C      1  0.4988560000000  0.4627990000000  0.5120580000000 1.0
C      1  0.5441560000000  0.5522380000000  0.5313700000000 1.0
C      1  0.4512060000000  0.4918870000000  0.4910000000000 1.0
C      1  0.5684640000000  0.5078050000000  0.4403790000000 1.0
C      1  0.4102050000000  0.5435600000000  0.5049770000000 1.0
C      1  0.4296230000000  0.4762110000000  0.5366270000000 1.0
C      1  0.5328980000000  0.5290670000000  0.4075270000000 1.0
C      1  0.4845060000000  0.5719100000000  0.5609100000000 1.0
C      1  0.5230700000000  0.5006820000000  0.4054060000000 1.0
C      1  0.5328630000000  0.4786080000000  0.4796740000000 1.0
C      1  0.4587060000000  0.5633810000000  0.5502510000000 1.0
C      1  0.5044480000000  0.4849180000000  0.4480510000000 1.0
C      1  0.4396090000000  0.5309430000000  0.4483230000000 1.0
C      1  0.5206960000000  0.5918060000000  0.5253330000000 1.0
C      1  0.5014030000000  0.4459090000000  0.4230970000000 1.0
C      1  0.4940780000000  0.5231190000000  0.4850770000000 1.0
C      1  0.4932240000000  0.5548930000000  0.5841660000000 1.0
C      1  0.4929670000000  0.5013040000000  0.5412250000000 1.0
C      1  0.4524150000000  0.4266870000000  0.5248650000000 1.0
C      1  0.5642460000000  0.4423490000000  0.5427910000000 1.0
C      1  0.5109530000000  0.4536320000000  0.5360980000000 1.0
C      1  0.4632140000000  0.4561080000000  0.4597970000000 1.0
C      1  0.4713830000000  0.5644840000000  0.4145730000000 1.0
C      1  0.5708320000000  0.4834790000000  0.5255260000000 1.0
C      1  0.5286700000000  0.4484010000000  0.5777160000000 1.0
C      1  0.4965660000000  0.5617580000000  0.5061800000000 1.0
C      1  0.5065010000000  0.5666300000000  0.4344750000000 1.0
C      1  0.4435100000000  0.5423100000000  0.5641890000000 1.0
C      1  0.4612400000000  0.4238130000000  0.4970150000000 1.0
C      1  0.4468320000000  0.4784730000000  0.5632470000000 1.0
C      1  0.4908410000000  0.4173110000000  0.4909360000000 1.0
C      1  0.5112360000000  0.5780550000000  0.5500580000000 1.0
C      1  0.5771010000000  0.4581580000000  0.4892480000000 1.0
C      1  0.4463290000000  0.5137230000000  0.4289740000000 1.0
C      1  0.4880990000000  0.5038660000000  0.4632750000000 1.0
C      1  0.4252750000000  0.4519730000000  0.4968950000000 1.0
C      1  0.5541840000000  0.4574280000000  0.5683520000000 1.0
C      1  0.4839120000000  0.5427810000000  0.4019980000000 1.0
C      1  0.5407060000000  0.4772970000000  0.4084970000000 1.0
C      1  0.5303270000000  0.5572890000000  0.5577180000000 1.0
C      1  0.5631010000000  0.5553440000000  0.4772950000000 1.0
C      1  0.5139260000000  0.5407540000000  0.5181990000000 1.0
C      1  0.5379720000000  0.5064770000000  0.4810100000000 1.0
C      1  0.4643320000000  0.4951340000000  0.5794010000000 1.0
C      1  0.5759960000000  0.5337910000000  0.4917310000000 1.0
C      1  0.4768800000000  0.4149560000000  0.5384710000000 1.0
C      1  0.4916320000000  0.5269810000000  0.4461580000000 1.0
C      1  0.4826170000000  0.4464130000000  0.5753090000000 1.0
C      1  0.4338480000000  0.4876580000000  0.4377210000000 1.0
C      1  0.5244360000000  0.4775500000000  0.5058800000000 1.0
C      1  0.4221610000000  0.5431220000000  0.5440930000000 1.0
C      1  0.5332570000000  0.4983770000000  0.5484460000000 1.0
C      1  0.4527150000000  0.4641700000000  0.4323000000000 1.0
C      1  0.5223170000000  0.4221930000000  0.5352830000000 1.0
C      1  0.5177650000000  0.4631830000000  0.4613750000000 1.0
C      1  0.5430570000000  0.5475650000000  0.4572710000000 1.0
C      1  0.4804320000000  0.5309110000000  0.5924350000000 1.0
C      1  0.5795520000000  0.4847870000000  0.4818710000000 1.0
C      1  0.4546670000000  0.5225520000000  0.5845260000000 1.0
C      1  0.5621730000000  0.4795500000000  0.4287780000000 1.0
C      1  0.5487330000000  0.4268850000000  0.5347290000000 1.0
C      1  0.5172130000000  0.5111690000000  0.5870030000000 1.0
C      1  0.5201760000000  0.4232550000000  0.5642900000000 1.0
C      1  0.4213610000000  0.4856090000000  0.4631450000000 1.0
C      1  0.5709950000000  0.5373910000000  0.5208920000000 1.0
C      1  0.5640060000000  0.4839470000000  0.5729520000000 1.0
C      1  0.4135460000000  0.4938410000000  0.5185800000000 1.0
C      1  0.5495690000000  0.5777960000000  0.4896200000000 1.0
C      1  0.4776640000000  0.5739400000000  0.4404740000000 1.0
C      1  0.4916590000000  0.4078340000000  0.4584970000000 1.0
C      1  0.5190130000000  0.5406280000000  0.5792220000000 1.0
C      1  0.5302660000000  0.4531140000000  0.4220110000000 1.0
C      1  0.4273210000000  0.5654600000000  0.5006180000000 1.0
C      1  0.5821360000000  0.4942310000000  0.5511350000000 1.0
END
