TITL C-4164244-2836-355 6.24154315696554 125000 -18125.2797519764 0 0 123 (C1) n - 1
REM
REM in /home/nfs/bkarasulu/CARBON/AIRSS/Generating-Clusters/ReaxFF-fromJPCA2015/Units_Real/with-SteepDescent/Only-C1/SD-CG/Try1-3A/FIRE-CG
REM
REM
REM
REM
REM
REM ./C.cell (11c1c37f851c82e70ff6c80c92926a4b)
REM
REM compiler GCC version 9.2.1 20190827 (Red Hat 9.2.1-1)
REM options -cpp -mtune=generic -march=x86-64 -g -O0 -fpre-include=/usr/include/finclude/math-vector-fortran.h
REM seed -467546978 -971472383 1074766080 -1978868205 2061321794 -1163496477 367761258 857254354 -1351622638 -1260207702 -1934241258 285447750 1928793493 1763150419 -1725596433 1332354000 -230067464 1269754220 -1982363095 1493518525 2107700684 220655785 322423259 -399443567 -1867325440 -654482624 -461728835 -1173882001 1797979495 -1621702078 -712427406 -1176734148 30980522
REM
CELL 1.54180   50.00000   50.00000   50.00000   90.00000   90.00000   90.00000
LATT -1
SFAC C  
C      1  0.4995350000000  0.4961120000000  0.5897990000000 1.0
C      1  0.4618720000000  0.5216200000000  0.4191450000000 1.0
C      1  0.5134470000000  0.5203500000000  0.4067500000000 1.0
C      1  0.5861250000000  0.4386000000000  0.5095280000000 1.0
C      1  0.5157650000000  0.4920310000000  0.4148420000000 1.0
C      1  0.5093630000000  0.4949860000000  0.5136360000000 1.0
C      1  0.5105910000000  0.5139220000000  0.5534220000000 1.0
C      1  0.3896650000000  0.5009490000000  0.4417580000000 1.0
C      1  0.4534360000000  0.4936060000000  0.5107880000000 1.0
C      1  0.4504220000000  0.5609640000000  0.4751280000000 1.0
C      1  0.5525340000000  0.4596180000000  0.5724380000000 1.0
C      1  0.4958500000000  0.4620050000000  0.4437720000000 1.0
C      1  0.5297750000000  0.4299670000000  0.5394670000000 1.0
C      1  0.5077910000000  0.5643030000000  0.5463220000000 1.0
C      1  0.5988990000000  0.5246870000000  0.5039270000000 1.0
C      1  0.4690100000000  0.5850380000000  0.4683690000000 1.0
C      1  0.5826510000000  0.5050220000000  0.5179150000000 1.0
C      1  0.5488680000000  0.5129680000000  0.5807710000000 1.0
C      1  0.5063140000000  0.5407380000000  0.5656270000000 1.0
C      1  0.4840000000000  0.5924950000000  0.5190660000000 1.0
C      1  0.4784160000000  0.5093270000000  0.4427920000000 1.0
C      1  0.4432830000000  0.4123060000000  0.4878780000000 1.0
C      1  0.4636340000000  0.4640270000000  0.5111760000000 1.0
C      1  0.4092340000000  0.4664840000000  0.4729260000000 1.0
C      1  0.5114950000000  0.4667620000000  0.5096630000000 1.0
C      1  0.5321470000000  0.4663210000000  0.4154580000000 1.0
C      1  0.5514170000000  0.5145780000000  0.4551550000000 1.0
C      1  0.4884630000000  0.4577860000000  0.5231080000000 1.0
C      1  0.4241490000000  0.5177020000000  0.4735010000000 1.0
C      1  0.5616190000000  0.3955920000000  0.5023260000000 1.0
C      1  0.4904170000000  0.5601560000000  0.4215210000000 1.0
C      1  0.5268030000000  0.4503570000000  0.5847590000000 1.0
C      1  0.5377740000000  0.4620000000000  0.4958340000000 1.0
C      1  0.4686720000000  0.4191270000000  0.4967950000000 1.0
C      1  0.4724430000000  0.5390580000000  0.5092520000000 1.0
C      1  0.3975540000000  0.4822630000000  0.5451460000000 1.0
C      1  0.4485680000000  0.5450460000000  0.4341500000000 1.0
C      1  0.4461810000000  0.4918160000000  0.4194300000000 1.0
C      1  0.5595590000000  0.4604780000000  0.4241990000000 1.0
C      1  0.5389580000000  0.4126550000000  0.4666250000000 1.0
C      1  0.5788430000000  0.4175600000000  0.4899650000000 1.0
C      1  0.4692250000000  0.4954350000000  0.4852250000000 1.0
C      1  0.4113380000000  0.4574010000000  0.5519280000000 1.0
C      1  0.5796030000000  0.4543950000000  0.5330910000000 1.0
C      1  0.5661880000000  0.4509890000000  0.4522150000000 1.0
C      1  0.5110350000000  0.5586120000000  0.4636820000000 1.0
C      1  0.4190200000000  0.4254820000000  0.4924820000000 1.0
C      1  0.5576270000000  0.5323260000000  0.4318650000000 1.0
C      1  0.5678300000000  0.5482900000000  0.5412220000000 1.0
C      1  0.5208610000000  0.5474770000000  0.5172040000000 1.0
C      1  0.5118530000000  0.4722430000000  0.5936130000000 1.0
C      1  0.5887360000000  0.4830200000000  0.5362400000000 1.0
C      1  0.5383380000000  0.5874080000000  0.5118590000000 1.0
C      1  0.5131800000000  0.4420940000000  0.5595340000000 1.0
C      1  0.5870560000000  0.5495380000000  0.5189320000000 1.0
C      1  0.4617000000000  0.5317120000000  0.5377050000000 1.0
C      1  0.4671010000000  0.5394820000000  0.4818890000000 1.0
C      1  0.4810420000000  0.5767370000000  0.5437090000000 1.0
C      1  0.5652290000000  0.4235710000000  0.4641510000000 1.0
C      1  0.5171130000000  0.4148380000000  0.5172780000000 1.0
C      1  0.5713120000000  0.4957650000000  0.4655850000000 1.0
C      1  0.4261170000000  0.4528380000000  0.4553790000000 1.0
C      1  0.4447640000000  0.4748770000000  0.4414460000000 1.0
C      1  0.5319970000000  0.5822440000000  0.5582400000000 1.0
C      1  0.4895440000000  0.4601860000000  0.5514350000000 1.0
C      1  0.4111160000000  0.5297570000000  0.5156970000000 1.0
C      1  0.5629280000000  0.4870380000000  0.5776750000000 1.0
C      1  0.4675580000000  0.5657250000000  0.4380600000000 1.0
C      1  0.5231670000000  0.5164350000000  0.5958780000000 1.0
C      1  0.5004870000000  0.5837010000000  0.4754490000000 1.0
C      1  0.5328680000000  0.5395500000000  0.4170880000000 1.0
C      1  0.4964770000000  0.5438050000000  0.5093450000000 1.0
C      1  0.4913770000000  0.5337520000000  0.4638400000000 1.0
C      1  0.3966670000000  0.5472160000000  0.5028500000000 1.0
C      1  0.5338390000000  0.4036970000000  0.4951230000000 1.0
C      1  0.5861190000000  0.5754830000000  0.5055780000000 1.0
C      1  0.5819470000000  0.4993290000000  0.5591910000000 1.0
C      1  0.5538970000000  0.5102410000000  0.5095420000000 1.0
C      1  0.4947690000000  0.4232190000000  0.4572210000000 1.0
C      1  0.4400810000000  0.4926610000000  0.5607130000000 1.0
C      1  0.5932030000000  0.5118620000000  0.4783010000000 1.0
C      1  0.4978200000000  0.4990280000000  0.4882770000000 1.0
C      1  0.5665090000000  0.5254470000000  0.5598970000000 1.0
C      1  0.5497970000000  0.5733450000000  0.5376600000000 1.0
C      1  0.5323250000000  0.5525090000000  0.4846920000000 1.0
C      1  0.4666110000000  0.5918640000000  0.4965550000000 1.0
C      1  0.4087320000000  0.4524620000000  0.4983210000000 1.0
C      1  0.4599560000000  0.4943820000000  0.4581130000000 1.0
C      1  0.5491490000000  0.4821520000000  0.5111330000000 1.0
C      1  0.4618130000000  0.4192410000000  0.5608680000000 1.0
C      1  0.5548640000000  0.4452220000000  0.5476950000000 1.0
C      1  0.3993950000000  0.4605040000000  0.5252020000000 1.0
C      1  0.4904600000000  0.4933560000000  0.5600870000000 1.0
C      1  0.5200800000000  0.5634360000000  0.4309000000000 1.0
C      1  0.4334180000000  0.5426290000000  0.4595210000000 1.0
C      1  0.5618050000000  0.5900430000000  0.4949350000000 1.0
C      1  0.4318460000000  0.5522510000000  0.5542960000000 1.0
C      1  0.5122940000000  0.5441930000000  0.5954090000000 1.0
C      1  0.5157600000000  0.4466230000000  0.4304640000000 1.0
C      1  0.5136970000000  0.5151810000000  0.4714520000000 1.0
C      1  0.4307400000000  0.4262170000000  0.4662220000000 1.0
C      1  0.5574370000000  0.4696580000000  0.4725620000000 1.0
C      1  0.4139810000000  0.5045060000000  0.5554270000000 1.0
C      1  0.4033800000000  0.4966640000000  0.4632680000000 1.0
C      1  0.4301740000000  0.5098230000000  0.5006100000000 1.0
C      1  0.4806690000000  0.4458750000000  0.4634360000000 1.0
C      1  0.4876580000000  0.5342210000000  0.4087720000000 1.0
C      1  0.4593260000000  0.5575740000000  0.5523430000000 1.0
C      1  0.5435060000000  0.5792760000000  0.4437110000000 1.0
C      1  0.4878380000000  0.4096880000000  0.5173410000000 1.0
C      1  0.4735110000000  0.4123950000000  0.5420440000000 1.0
C      1  0.4688110000000  0.4462230000000  0.4898600000000 1.0
C      1  0.4962460000000  0.4884710000000  0.4340210000000 1.0
C      1  0.4624200000000  0.4471880000000  0.5629050000000 1.0
C      1  0.5099400000000  0.5906100000000  0.5019480000000 1.0
C      1  0.5240820000000  0.5168900000000  0.5269630000000 1.0
C      1  0.4382010000000  0.4636780000000  0.5627320000000 1.0
C      1  0.5485210000000  0.5754270000000  0.4730980000000 1.0
C      1  0.5194070000000  0.4199040000000  0.4448180000000 1.0
C      1  0.5623530000000  0.5595830000000  0.4382270000000 1.0
C      1  0.4628870000000  0.5032440000000  0.5448760000000 1.0
C      1  0.5401130000000  0.5243690000000  0.4801940000000 1.0
C      1  0.4126110000000  0.5328380000000  0.5475560000000 1.0
END
