TITL C-4164246-3563-437 -0.453656995494395 125000 -5863.68134239313 0 0 41 (C1) n - 1
REM
REM in /home/nfs/bkarasulu/CARBON/AIRSS/Generating-Clusters/ReaxFF-fromJPCA2015/Units_Real/with-SteepDescent/Only-C1/SD-CG/Try1-3A/FIRE-CG
REM
REM
REM
REM
REM
REM ./C.cell (11c1c37f851c82e70ff6c80c92926a4b)
REM
REM compiler GCC version 9.2.1 20190827 (Red Hat 9.2.1-1)
REM options -cpp -mtune=generic -march=x86-64 -g -O0 -fpre-include=/usr/include/finclude/math-vector-fortran.h
REM seed 316760065 -729304915 -1815225687 -327473487 122599644 1007029279 1685295151 -588224834 1725230531 5566234 -161381137 7547726 -1668203370 -342101091 1212430523 -199981556 -2046160439 -1389581575 279961107 1980607040 -728675927 -332210612 988266920 -1070548624 -1517364103 1372379994 1335375056 -743729890 1884951060 58322861 1791366933 -74274527 205709137
REM
CELL 1.54180   50.00000   50.00000   50.00000   90.00000   90.00000   90.00000
LATT -1
SFAC C  
C      1  0.4706970000000  0.4651130000000  0.4768430000000 1.0
C      1  0.4700750000000  0.4689460000000  0.5213300000000 1.0
C      1  0.4355940000000  0.4994090000000  0.4910140000000 1.0
C      1  0.4404400000000  0.5079520000000  0.5172000000000 1.0
C      1  0.5683940000000  0.5000640000000  0.4798310000000 1.0
C      1  0.5019530000000  0.5626330000000  0.5171830000000 1.0
C      1  0.4799020000000  0.4964030000000  0.5360540000000 1.0
C      1  0.5379770000000  0.5342640000000  0.5376540000000 1.0
C      1  0.4799520000000  0.4993640000000  0.4451580000000 1.0
C      1  0.5113890000000  0.4631350000000  0.5439270000000 1.0
C      1  0.5607870000000  0.4806650000000  0.5006890000000 1.0
C      1  0.4816240000000  0.5400780000000  0.5191020000000 1.0
C      1  0.4873450000000  0.4476240000000  0.5350180000000 1.0
C      1  0.5469480000000  0.4547290000000  0.5006810000000 1.0
C      1  0.4852350000000  0.5268200000000  0.4558870000000 1.0
C      1  0.4915760000000  0.4670420000000  0.4987660000000 1.0
C      1  0.4525650000000  0.5008450000000  0.4516590000000 1.0
C      1  0.5364790000000  0.4903930000000  0.5189410000000 1.0
C      1  0.4395260000000  0.5194280000000  0.4676040000000 1.0
C      1  0.4603340000000  0.5439460000000  0.5405020000000 1.0
C      1  0.5020080000000  0.5493680000000  0.4711910000000 1.0
C      1  0.4964300000000  0.4233460000000  0.5197960000000 1.0
C      1  0.5597280000000  0.5230570000000  0.4931040000000 1.0
C      1  0.4900790000000  0.5124340000000  0.5125560000000 1.0
C      1  0.4606720000000  0.5402460000000  0.4615770000000 1.0
C      1  0.5036430000000  0.4388390000000  0.4948790000000 1.0
C      1  0.5357170000000  0.4612300000000  0.5275390000000 1.0
C      1  0.4881710000000  0.4716910000000  0.4539490000000 1.0
C      1  0.4512130000000  0.4744670000000  0.4957230000000 1.0
C      1  0.5204640000000  0.5559980000000  0.5372280000000 1.0
C      1  0.4769900000000  0.5647170000000  0.4737330000000 1.0
C      1  0.5207090000000  0.4945470000000  0.4690330000000 1.0
C      1  0.5099150000000  0.4956700000000  0.4986660000000 1.0
C      1  0.5308200000000  0.5063870000000  0.5439060000000 1.0
C      1  0.5194180000000  0.5540690000000  0.4954200000000 1.0
C      1  0.5069620000000  0.4912270000000  0.5501870000000 1.0
C      1  0.5466580000000  0.5041090000000  0.4578570000000 1.0
C      1  0.5163810000000  0.4662980000000  0.4605850000000 1.0
C      1  0.5444780000000  0.5418150000000  0.5071230000000 1.0
C      1  0.4533710000000  0.5147870000000  0.5408940000000 1.0
C      1  0.5273790000000  0.4468460000000  0.4800100000000 1.0
END
