TITL C-4164236-1577-503 18.71297633916 125000 -22832.094763186 0 0 153 (C1) n - 1
REM
REM in /home/nfs/bkarasulu/CARBON/AIRSS/Generating-Clusters/ReaxFF-fromJPCA2015/Units_Real/with-SteepDescent/Only-C1/SD-CG/Try1-3A/FIRE-CG
REM
REM
REM
REM
REM
REM ./C.cell (11c1c37f851c82e70ff6c80c92926a4b)
REM
REM compiler GCC version 9.2.1 20190827 (Red Hat 9.2.1-1)
REM options -cpp -mtune=generic -march=x86-64 -g -O0 -fpre-include=/usr/include/finclude/math-vector-fortran.h
REM seed -87280160 -1095912852 1902883279 938131599 1816160524 -1724154965 -911874922 -327777012 -1912705204 -297156060 -334642496 2086282804 -524217753 -1429355101 1355634814 -1835839348 -970214137 600925377 1738693268 -731744282 1064361152 57501851 832821530 628653503 2056821441 -2013940686 1092077567 1365923500 1782624562 280559969 803600650 -1220559973 -952874169
REM
CELL 1.54180   50.00000   50.00000   50.00000   90.00000   90.00000   90.00000
LATT -1
SFAC C  
C      1  0.4439460000000  0.4658050000000  0.5876980000000 1.0
C      1  0.4941640000000  0.6090170000000  0.5247290000000 1.0
C      1  0.4311940000000  0.5666910000000  0.4757900000000 1.0
C      1  0.4786140000000  0.4663310000000  0.5134340000000 1.0
C      1  0.5841320000000  0.5290870000000  0.5544230000000 1.0
C      1  0.4834360000000  0.5980280000000  0.4282170000000 1.0
C      1  0.5442910000000  0.4792640000000  0.4150650000000 1.0
C      1  0.6085470000000  0.5094480000000  0.5108190000000 1.0
C      1  0.4124580000000  0.5439900000000  0.4817260000000 1.0
C      1  0.5627690000000  0.4422290000000  0.5641710000000 1.0
C      1  0.4797380000000  0.5794310000000  0.5762940000000 1.0
C      1  0.4791020000000  0.3982710000000  0.4728570000000 1.0
C      1  0.5781020000000  0.4191420000000  0.5175850000000 1.0
C      1  0.5928260000000  0.4805210000000  0.5481710000000 1.0
C      1  0.5662140000000  0.5490380000000  0.5418030000000 1.0
C      1  0.4900090000000  0.5156230000000  0.5988740000000 1.0
C      1  0.6038510000000  0.4642310000000  0.4764390000000 1.0
C      1  0.5618980000000  0.4229360000000  0.5411140000000 1.0
C      1  0.5480500000000  0.5057020000000  0.5913850000000 1.0
C      1  0.4801910000000  0.5582840000000  0.5947380000000 1.0
C      1  0.5877530000000  0.4674540000000  0.4522090000000 1.0
C      1  0.4973770000000  0.5472710000000  0.5121450000000 1.0
C      1  0.4472880000000  0.5675510000000  0.4137710000000 1.0
C      1  0.4274690000000  0.4437600000000  0.5481930000000 1.0
C      1  0.4361700000000  0.4692230000000  0.5599990000000 1.0
C      1  0.4978650000000  0.4596700000000  0.4099500000000 1.0
C      1  0.4678270000000  0.4453010000000  0.4431520000000 1.0
C      1  0.4441110000000  0.5561480000000  0.5470220000000 1.0
C      1  0.5864180000000  0.4966390000000  0.4485610000000 1.0
C      1  0.4470790000000  0.5513170000000  0.5183680000000 1.0
C      1  0.5287080000000  0.4872890000000  0.4388050000000 1.0
C      1  0.5444700000000  0.5322900000000  0.5005820000000 1.0
C      1  0.4567600000000  0.4830520000000  0.3990530000000 1.0
C      1  0.5478000000000  0.4515470000000  0.4238860000000 1.0
C      1  0.4113400000000  0.5322740000000  0.5078920000000 1.0
C      1  0.5042370000000  0.6112530000000  0.4452320000000 1.0
C      1  0.4716360000000  0.5204270000000  0.4480450000000 1.0
C      1  0.5030570000000  0.3849960000000  0.4802870000000 1.0
C      1  0.4277890000000  0.5059580000000  0.4375180000000 1.0
C      1  0.5996480000000  0.4850060000000  0.4972990000000 1.0
C      1  0.4273750000000  0.5503880000000  0.4223820000000 1.0
C      1  0.4538200000000  0.5739700000000  0.4582680000000 1.0
C      1  0.5638360000000  0.4481350000000  0.4482460000000 1.0
C      1  0.4710150000000  0.5191900000000  0.5330590000000 1.0
C      1  0.4133430000000  0.5205720000000  0.5327290000000 1.0
C      1  0.4577360000000  0.4992920000000  0.5429510000000 1.0
C      1  0.4516400000000  0.4929350000000  0.5926210000000 1.0
C      1  0.5054400000000  0.5738870000000  0.5033220000000 1.0
C      1  0.5873670000000  0.5519200000000  0.4835730000000 1.0
C      1  0.4537670000000  0.4567030000000  0.4826570000000 1.0
C      1  0.5765860000000  0.4214380000000  0.4876600000000 1.0
C      1  0.3899880000000  0.5008400000000  0.4686740000000 1.0
C      1  0.5205340000000  0.4396900000000  0.4177400000000 1.0
C      1  0.5737090000000  0.4974870000000  0.4937760000000 1.0
C      1  0.5575370000000  0.5525730000000  0.4534760000000 1.0
C      1  0.5037250000000  0.4425710000000  0.4741570000000 1.0
C      1  0.6005600000000  0.5208260000000  0.4585690000000 1.0
C      1  0.5098320000000  0.5778520000000  0.5750610000000 1.0
C      1  0.4997330000000  0.3922010000000  0.5075780000000 1.0
C      1  0.4675830000000  0.5331670000000  0.5933700000000 1.0
C      1  0.4987930000000  0.4846960000000  0.3945490000000 1.0
C      1  0.4459290000000  0.5194310000000  0.5791660000000 1.0
C      1  0.4796210000000  0.4889740000000  0.6001640000000 1.0
C      1  0.5982940000000  0.4393460000000  0.5183340000000 1.0
C      1  0.4003490000000  0.5273150000000  0.4607060000000 1.0
C      1  0.4604070000000  0.5800850000000  0.5546950000000 1.0
C      1  0.4872440000000  0.4247400000000  0.4547270000000 1.0
C      1  0.4523650000000  0.5243570000000  0.5109900000000 1.0
C      1  0.4395850000000  0.4510970000000  0.4397470000000 1.0
C      1  0.5567690000000  0.5778520000000  0.5447800000000 1.0
C      1  0.4263070000000  0.4228050000000  0.5043700000000 1.0
C      1  0.4870840000000  0.5966750000000  0.4989950000000 1.0
C      1  0.4583530000000  0.5972900000000  0.5072270000000 1.0
C      1  0.4473220000000  0.4074040000000  0.5171750000000 1.0
C      1  0.5610090000000  0.5214390000000  0.5716100000000 1.0
C      1  0.4701390000000  0.3983400000000  0.5016610000000 1.0
C      1  0.4523880000000  0.4267730000000  0.5435430000000 1.0
C      1  0.5306450000000  0.6005590000000  0.4529860000000 1.0
C      1  0.6017440000000  0.4380460000000  0.4891370000000 1.0
C      1  0.5187750000000  0.4158020000000  0.5177420000000 1.0
C      1  0.4954050000000  0.4273170000000  0.5312850000000 1.0
C      1  0.3989730000000  0.4724560000000  0.4709070000000 1.0
C      1  0.3907300000000  0.4883580000000  0.4949710000000 1.0
C      1  0.4919730000000  0.4619780000000  0.5961390000000 1.0
C      1  0.5436970000000  0.5363300000000  0.5556820000000 1.0
C      1  0.4326460000000  0.4920650000000  0.4134820000000 1.0
C      1  0.5086290000000  0.5558090000000  0.5943800000000 1.0
C      1  0.5289130000000  0.4340660000000  0.4887230000000 1.0
C      1  0.5571860000000  0.5514230000000  0.4832930000000 1.0
C      1  0.4982780000000  0.4795390000000  0.5302930000000 1.0
C      1  0.5339280000000  0.4196210000000  0.5440090000000 1.0
C      1  0.5536610000000  0.5953690000000  0.5224790000000 1.0
C      1  0.4920760000000  0.4673940000000  0.5554630000000 1.0
C      1  0.4668130000000  0.6011080000000  0.5353180000000 1.0
C      1  0.5588350000000  0.5120290000000  0.5118460000000 1.0
C      1  0.4715370000000  0.4398130000000  0.5224010000000 1.0
C      1  0.4376770000000  0.4660520000000  0.4145650000000 1.0
C      1  0.4731360000000  0.5530860000000  0.4098630000000 1.0
C      1  0.4668580000000  0.4468650000000  0.5901880000000 1.0
C      1  0.5771840000000  0.4677380000000  0.5695510000000 1.0
C      1  0.4476790000000  0.5104040000000  0.4591510000000 1.0
C      1  0.4183070000000  0.4522030000000  0.4608640000000 1.0
C      1  0.4468310000000  0.5060270000000  0.4885480000000 1.0
C      1  0.6046160000000  0.5280010000000  0.4874320000000 1.0
C      1  0.4823190000000  0.4572800000000  0.4862460000000 1.0
C      1  0.4323760000000  0.5310440000000  0.5562120000000 1.0
C      1  0.4227290000000  0.4723130000000  0.5181620000000 1.0
C      1  0.5435390000000  0.5761950000000  0.4407060000000 1.0
C      1  0.5643190000000  0.4825030000000  0.5912310000000 1.0
C      1  0.5818960000000  0.4612480000000  0.5286530000000 1.0
C      1  0.4830010000000  0.4651600000000  0.4317740000000 1.0
C      1  0.5371930000000  0.4788700000000  0.5963510000000 1.0
C      1  0.4995000000000  0.4866110000000  0.4416770000000 1.0
C      1  0.5198210000000  0.4585470000000  0.5858130000000 1.0
C      1  0.5215680000000  0.4785850000000  0.4832880000000 1.0
C      1  0.5277400000000  0.5836850000000  0.5533020000000 1.0
C      1  0.4696470000000  0.4277410000000  0.5690780000000 1.0
C      1  0.5273550000000  0.4940530000000  0.3955430000000 1.0
C      1  0.5533740000000  0.4673880000000  0.5229780000000 1.0
C      1  0.5396400000000  0.4851130000000  0.4628230000000 1.0
C      1  0.5981320000000  0.5081430000000  0.5391880000000 1.0
C      1  0.4155710000000  0.4438670000000  0.5220870000000 1.0
C      1  0.4820870000000  0.5642190000000  0.4560730000000 1.0
C      1  0.4936500000000  0.5700830000000  0.4236560000000 1.0
C      1  0.4424870000000  0.4788640000000  0.4977210000000 1.0
C      1  0.4110190000000  0.5303630000000  0.4326850000000 1.0
C      1  0.4559550000000  0.5894210000000  0.4337740000000 1.0
C      1  0.5151850000000  0.5309250000000  0.5580590000000 1.0
C      1  0.5343780000000  0.4599130000000  0.5024710000000 1.0
C      1  0.4947870000000  0.5357130000000  0.5386430000000 1.0
C      1  0.5374240000000  0.5420190000000  0.4179150000000 1.0
C      1  0.4032290000000  0.4942170000000  0.5216160000000 1.0
C      1  0.4337930000000  0.4346900000000  0.4781900000000 1.0
C      1  0.4769840000000  0.5034720000000  0.3991760000000 1.0
C      1  0.5248800000000  0.5659260000000  0.4214640000000 1.0
C      1  0.4945470000000  0.5096260000000  0.4602480000000 1.0
C      1  0.4404210000000  0.5744600000000  0.5017840000000 1.0
C      1  0.5338690000000  0.4393420000000  0.5676190000000 1.0
C      1  0.4961810000000  0.5472290000000  0.4737180000000 1.0
C      1  0.5191210000000  0.5918830000000  0.5259040000000 1.0
C      1  0.5553430000000  0.4315520000000  0.4709260000000 1.0
C      1  0.5149260000000  0.5273680000000  0.5877320000000 1.0
C      1  0.5156840000000  0.5232350000000  0.5041940000000 1.0
C      1  0.5042240000000  0.5024240000000  0.4855370000000 1.0
C      1  0.4944450000000  0.4380280000000  0.5579740000000 1.0
C      1  0.5168350000000  0.5008190000000  0.5249510000000 1.0
C      1  0.5636610000000  0.4967860000000  0.4669600000000 1.0
C      1  0.5332720000000  0.5189490000000  0.4068440000000 1.0
C      1  0.4745350000000  0.5257210000000  0.4188570000000 1.0
C      1  0.5092840000000  0.4184090000000  0.4326590000000 1.0
C      1  0.5870960000000  0.5474280000000  0.4540070000000 1.0
C      1  0.5447050000000  0.4948230000000  0.5286220000000 1.0
C      1  0.4641190000000  0.4785390000000  0.5546030000000 1.0
END
