TITL C-4164237-1827-695 12.0304496454994 125000 -3449.81117501491 0 0 25 (C1) n - 1
REM
REM in /home/nfs/bkarasulu/CARBON/AIRSS/Generating-Clusters/ReaxFF-fromJPCA2015/Units_Real/with-SteepDescent/Only-C1/SD-CG/Try1-3A/FIRE-CG
REM
REM
REM
REM
REM
REM ./C.cell (11c1c37f851c82e70ff6c80c92926a4b)
REM
REM compiler GCC version 9.2.1 20190827 (Red Hat 9.2.1-1)
REM options -cpp -mtune=generic -march=x86-64 -g -O0 -fpre-include=/usr/include/finclude/math-vector-fortran.h
REM seed 1326168103 1421574674 -84719335 -1529706577 -2098421090 483646929 1094313539 454666078 -1276328357 2026406214 381379556 -2136188359 200557028 -1252975793 1913370205 -575390006 -189834795 266727329 1767387157 -2005874401 693398723 1392116891 265956182 -2115915451 1684679439 1119976293 1968895111 -1208981143 1796202251 31192905 1920665718 -1181656590 -537591667
REM
CELL 1.54180   50.00000   50.00000   50.00000   90.00000   90.00000   90.00000
LATT -1
SFAC C  
C      1  0.5301250000000  0.4452100000000  0.4803940000000 1.0
C      1  0.4715760000000  0.5093020000000  0.4819680000000 1.0
C      1  0.4896620000000  0.4495400000000  0.4883190000000 1.0
C      1  0.4677290000000  0.5594590000000  0.4947900000000 1.0
C      1  0.4619240000000  0.4588910000000  0.4863860000000 1.0
C      1  0.4783430000000  0.4808290000000  0.4520340000000 1.0
C      1  0.5058010000000  0.4828570000000  0.4582350000000 1.0
C      1  0.5465640000000  0.5322800000000  0.5078050000000 1.0
C      1  0.5072470000000  0.5082990000000  0.5304890000000 1.0
C      1  0.4976070000000  0.4555650000000  0.5404200000000 1.0
C      1  0.4609260000000  0.5305460000000  0.4985240000000 1.0
C      1  0.5087590000000  0.4605490000000  0.5130690000000 1.0
C      1  0.4574570000000  0.4852170000000  0.4709150000000 1.0
C      1  0.5655980000000  0.5171420000000  0.5095410000000 1.0
C      1  0.4809160000000  0.4696840000000  0.5605550000000 1.0
C      1  0.5394820000000  0.4449820000000  0.5052700000000 1.0
C      1  0.5005890000000  0.5004490000000  0.4817990000000 1.0
C      1  0.4920690000000  0.4969230000000  0.5526990000000 1.0
C      1  0.4927740000000  0.5671500000000  0.4858580000000 1.0
C      1  0.5076920000000  0.4536790000000  0.4648350000000 1.0
C      1  0.5052900000000  0.5375020000000  0.5232160000000 1.0
C      1  0.4768180000000  0.5446670000000  0.5187870000000 1.0
C      1  0.5256260000000  0.5489000000000  0.5059660000000 1.0
C      1  0.5197420000000  0.5696930000000  0.4804820000000 1.0
C      1  0.5096840000000  0.4906880000000  0.5076440000000 1.0
END
