TITL C-4164241-3639-492 8.25935225376978 125000 -10261.274472533 0 0 69 (C1) n - 1
REM
REM in /home/nfs/bkarasulu/CARBON/AIRSS/Generating-Clusters/ReaxFF-fromJPCA2015/Units_Real/with-SteepDescent/Only-C1/SD-CG/Try1-3A/FIRE-CG
REM
REM
REM
REM
REM
REM ./C.cell (11c1c37f851c82e70ff6c80c92926a4b)
REM
REM compiler GCC version 9.2.1 20190827 (Red Hat 9.2.1-1)
REM options -cpp -mtune=generic -march=x86-64 -g -O0 -fpre-include=/usr/include/finclude/math-vector-fortran.h
REM seed -164750297 1640567815 516767236 -1938062682 1049939133 350841840 1720474090 226250764 -534246625 -1058290190 1201753539 -487839901 -1427571753 247599923 1295342337 -202448396 -1550438675 -2104745037 -1389266982 -231613223 -1459241301 -1964998555 525841366 1544497427 -123795418 280711119 -957814424 -252207604 -1021358012 -732214991 -120453699 -1732588942 1421348501
REM
CELL 1.54180   50.00000   50.00000   50.00000   90.00000   90.00000   90.00000
LATT -1
SFAC C  
C      1  0.5176720000000  0.5863110000000  0.4965910000000 1.0
C      1  0.4663890000000  0.4581290000000  0.4387890000000 1.0
C      1  0.5627650000000  0.4986570000000  0.4355860000000 1.0
C      1  0.4642760000000  0.4494010000000  0.4869480000000 1.0
C      1  0.4302580000000  0.4810260000000  0.4976320000000 1.0
C      1  0.4661520000000  0.5672430000000  0.4852480000000 1.0
C      1  0.5290910000000  0.5187120000000  0.5271500000000 1.0
C      1  0.5344210000000  0.5059940000000  0.4290830000000 1.0
C      1  0.4402810000000  0.4624870000000  0.4520390000000 1.0
C      1  0.5625750000000  0.5504860000000  0.5289470000000 1.0
C      1  0.4660500000000  0.4995090000000  0.4835820000000 1.0
C      1  0.4914220000000  0.5246750000000  0.4340450000000 1.0
C      1  0.5486740000000  0.4604520000000  0.5163650000000 1.0
C      1  0.5578720000000  0.5084460000000  0.5273320000000 1.0
C      1  0.4817970000000  0.4733590000000  0.4890390000000 1.0
C      1  0.4913750000000  0.4468010000000  0.4509900000000 1.0
C      1  0.5245870000000  0.5640620000000  0.5145710000000 1.0
C      1  0.5722360000000  0.4944450000000  0.4855510000000 1.0
C      1  0.5398940000000  0.4622070000000  0.4615340000000 1.0
C      1  0.4895480000000  0.4500450000000  0.5630800000000 1.0
C      1  0.4654690000000  0.5433940000000  0.4669300000000 1.0
C      1  0.4921050000000  0.4871310000000  0.5912080000000 1.0
C      1  0.4885580000000  0.4193690000000  0.5252810000000 1.0
C      1  0.5194080000000  0.5271610000000  0.4441710000000 1.0
C      1  0.4426270000000  0.4778440000000  0.5465510000000 1.0
C      1  0.5002620000000  0.4202900000000  0.4980380000000 1.0
C      1  0.4416180000000  0.4552420000000  0.5045420000000 1.0
C      1  0.4743350000000  0.4648420000000  0.5837500000000 1.0
C      1  0.5085210000000  0.4670240000000  0.4893740000000 1.0
C      1  0.4648820000000  0.4862320000000  0.4269010000000 1.0
C      1  0.5645290000000  0.4844020000000  0.5125940000000 1.0
C      1  0.4990480000000  0.5156600000000  0.5347990000000 1.0
C      1  0.4782780000000  0.5291850000000  0.5161420000000 1.0
C      1  0.4962730000000  0.5288820000000  0.4960320000000 1.0
C      1  0.4861190000000  0.5112550000000  0.5562170000000 1.0
C      1  0.4394630000000  0.5473140000000  0.5229750000000 1.0
C      1  0.5154480000000  0.4835740000000  0.4253320000000 1.0
C      1  0.4588050000000  0.5082390000000  0.5092640000000 1.0
C      1  0.4493940000000  0.4533790000000  0.5334930000000 1.0
C      1  0.5294670000000  0.4504150000000  0.5355600000000 1.0
C      1  0.4345940000000  0.4978030000000  0.5227100000000 1.0
C      1  0.5391210000000  0.5611500000000  0.5400700000000 1.0
C      1  0.5325310000000  0.5357970000000  0.4687180000000 1.0
C      1  0.5162900000000  0.4270360000000  0.5221310000000 1.0
C      1  0.5612080000000  0.5400740000000  0.4690660000000 1.0
C      1  0.4491540000000  0.5042730000000  0.4432380000000 1.0
C      1  0.4617530000000  0.5311430000000  0.4411370000000 1.0
C      1  0.4731480000000  0.4380290000000  0.5420510000000 1.0
C      1  0.4908640000000  0.4985170000000  0.4205660000000 1.0
C      1  0.5160490000000  0.4610860000000  0.4441920000000 1.0
C      1  0.5185740000000  0.4858780000000  0.5770730000000 1.0
C      1  0.5586370000000  0.5704910000000  0.4687930000000 1.0
C      1  0.4217650000000  0.5289840000000  0.5306900000000 1.0
C      1  0.5318250000000  0.5123430000000  0.5730540000000 1.0
C      1  0.5156300000000  0.4622920000000  0.5585540000000 1.0
C      1  0.4719940000000  0.5064360000000  0.5796230000000 1.0
C      1  0.5393480000000  0.5912210000000  0.4747260000000 1.0
C      1  0.4848190000000  0.4319870000000  0.4759660000000 1.0
C      1  0.4838400000000  0.5207650000000  0.4733130000000 1.0
C      1  0.4372630000000  0.4894340000000  0.4680480000000 1.0
C      1  0.4913040000000  0.5786940000000  0.4909520000000 1.0
C      1  0.5339440000000  0.4564350000000  0.4901030000000 1.0
C      1  0.5620930000000  0.4819880000000  0.4605980000000 1.0
C      1  0.5762870000000  0.5290690000000  0.5165810000000 1.0
C      1  0.4619890000000  0.5586680000000  0.5133930000000 1.0
C      1  0.5216610000000  0.5373520000000  0.4983520000000 1.0
C      1  0.5320610000000  0.5340610000000  0.5533900000000 1.0
C      1  0.4536000000000  0.4828850000000  0.5726450000000 1.0
C      1  0.5767100000000  0.5228280000000  0.4870120000000 1.0
END
