TITL C-4164240-4114-666 11.4342922059852 125000 -28669.0716205017 0 0 190 (C1) n - 1
REM
REM in /home/nfs/bkarasulu/CARBON/AIRSS/Generating-Clusters/ReaxFF-fromJPCA2015/Units_Real/with-SteepDescent/Only-C1/SD-CG/Try1-3A/FIRE-CG
REM
REM
REM
REM
REM
REM ./C.cell (11c1c37f851c82e70ff6c80c92926a4b)
REM
REM compiler GCC version 9.2.1 20190827 (Red Hat 9.2.1-1)
REM options -cpp -mtune=generic -march=x86-64 -g -O0 -fpre-include=/usr/include/finclude/math-vector-fortran.h
REM seed 900143579 82662128 2017636173 827440755 -2067361439 -472635498 409919748 1866109928 1688173535 1927585937 471112065 -1707426476 -1692803754 -1959737333 1057403438 -2112321481 -1067910202 1132587230 2020590315 1800274594 -1694682433 669345155 1209473970 348443504 -485076125 -744669113 -1584601787 -1100667862 -198821710 1254401850 1364790918 52708247 -1721112894
REM
CELL 1.54180   50.00000   50.00000   50.00000   90.00000   90.00000   90.00000
LATT -1
SFAC C  
C      1  0.4398020000000  0.4944480000000  0.4041990000000 1.0
C      1  0.6037430000000  0.5498740000000  0.5032710000000 1.0
C      1  0.4844150000000  0.5193060000000  0.4670840000000 1.0
C      1  0.5693100000000  0.4383820000000  0.4291060000000 1.0
C      1  0.5146080000000  0.3800770000000  0.5265070000000 1.0
C      1  0.4863950000000  0.5320190000000  0.4416860000000 1.0
C      1  0.5310420000000  0.4964900000000  0.6086810000000 1.0
C      1  0.4929160000000  0.4792640000000  0.4002040000000 1.0
C      1  0.5836570000000  0.5754420000000  0.4422910000000 1.0
C      1  0.4215230000000  0.5278810000000  0.4238870000000 1.0
C      1  0.4050640000000  0.4459700000000  0.4860360000000 1.0
C      1  0.4535790000000  0.4597150000000  0.4421810000000 1.0
C      1  0.5673080000000  0.5184630000000  0.5299620000000 1.0
C      1  0.4397620000000  0.5235950000000  0.4016470000000 1.0
C      1  0.4672080000000  0.5627130000000  0.3945250000000 1.0
C      1  0.5982470000000  0.4593880000000  0.4624620000000 1.0
C      1  0.4707500000000  0.4834700000000  0.4439490000000 1.0
C      1  0.5396430000000  0.5075370000000  0.4847400000000 1.0
C      1  0.4786140000000  0.5064620000000  0.5625920000000 1.0
C      1  0.5326300000000  0.6049240000000  0.4914310000000 1.0
C      1  0.5279680000000  0.5238240000000  0.5636030000000 1.0
C      1  0.4218420000000  0.5187220000000  0.5799390000000 1.0
C      1  0.4948890000000  0.6074890000000  0.5377850000000 1.0
C      1  0.5365630000000  0.5732190000000  0.4458730000000 1.0
C      1  0.4549070000000  0.4389730000000  0.5718640000000 1.0
C      1  0.5608910000000  0.5408920000000  0.4128150000000 1.0
C      1  0.4630950000000  0.4744970000000  0.6109910000000 1.0
C      1  0.4851720000000  0.5050300000000  0.6249770000000 1.0
C      1  0.6061580000000  0.5022630000000  0.4806530000000 1.0
C      1  0.4734320000000  0.4180060000000  0.5613270000000 1.0
C      1  0.5330130000000  0.4470440000000  0.6016490000000 1.0
C      1  0.4727730000000  0.5963070000000  0.4563810000000 1.0
C      1  0.5534400000000  0.4549300000000  0.4129120000000 1.0
C      1  0.5765670000000  0.4940420000000  0.4386180000000 1.0
C      1  0.5677900000000  0.5114690000000  0.4159070000000 1.0
C      1  0.4009690000000  0.4725990000000  0.4738810000000 1.0
C      1  0.4175830000000  0.5534260000000  0.4399230000000 1.0
C      1  0.4686680000000  0.4028320000000  0.5356170000000 1.0
C      1  0.4175230000000  0.5580530000000  0.5542670000000 1.0
C      1  0.5494320000000  0.4967460000000  0.5323810000000 1.0
C      1  0.4338960000000  0.5154610000000  0.4659810000000 1.0
C      1  0.4875320000000  0.4443430000000  0.5087650000000 1.0
C      1  0.5307920000000  0.5136610000000  0.3892630000000 1.0
C      1  0.5169270000000  0.5354220000000  0.5406030000000 1.0
C      1  0.5225680000000  0.4028070000000  0.5438410000000 1.0
C      1  0.3973330000000  0.5402740000000  0.4858330000000 1.0
C      1  0.4448010000000  0.5239750000000  0.5967190000000 1.0
C      1  0.5161360000000  0.4373110000000  0.5046650000000 1.0
C      1  0.4118860000000  0.5656870000000  0.5263090000000 1.0
C      1  0.5385050000000  0.4963620000000  0.5589900000000 1.0
C      1  0.5445400000000  0.5883120000000  0.5089990000000 1.0
C      1  0.4289260000000  0.5822300000000  0.5094830000000 1.0
C      1  0.4941590000000  0.4788960000000  0.4806570000000 1.0
C      1  0.5364540000000  0.5415850000000  0.3967260000000 1.0
C      1  0.4951100000000  0.5153690000000  0.5407600000000 1.0
C      1  0.4639600000000  0.4522200000000  0.4942260000000 1.0
C      1  0.4991740000000  0.5756400000000  0.4989040000000 1.0
C      1  0.5177730000000  0.4712600000000  0.6122230000000 1.0
C      1  0.3879940000000  0.4954490000000  0.5235980000000 1.0
C      1  0.4414910000000  0.5669430000000  0.5688320000000 1.0
C      1  0.3919690000000  0.5221560000000  0.5343480000000 1.0
C      1  0.3964440000000  0.4692420000000  0.5335400000000 1.0
C      1  0.6072240000000  0.5198370000000  0.5034480000000 1.0
C      1  0.4516790000000  0.5159480000000  0.5544120000000 1.0
C      1  0.5928900000000  0.5609920000000  0.5270220000000 1.0
C      1  0.4432920000000  0.5906390000000  0.4586510000000 1.0
C      1  0.4527050000000  0.5352370000000  0.5317840000000 1.0
C      1  0.4969390000000  0.4302920000000  0.5729730000000 1.0
C      1  0.5037960000000  0.5086600000000  0.3989920000000 1.0
C      1  0.4257930000000  0.5808640000000  0.4806820000000 1.0
C      1  0.4956850000000  0.5745310000000  0.5716180000000 1.0
C      1  0.4868550000000  0.3871710000000  0.4616380000000 1.0
C      1  0.4682140000000  0.5524160000000  0.4448300000000 1.0
C      1  0.4808190000000  0.5019600000000  0.5205390000000 1.0
C      1  0.5113100000000  0.4573680000000  0.4094640000000 1.0
C      1  0.5380590000000  0.4724420000000  0.4167260000000 1.0
C      1  0.5072910000000  0.5236910000000  0.4238720000000 1.0
C      1  0.4088030000000  0.4829120000000  0.4488600000000 1.0
C      1  0.5405200000000  0.4072630000000  0.5669160000000 1.0
C      1  0.4593790000000  0.5032210000000  0.6133210000000 1.0
C      1  0.4492760000000  0.4482830000000  0.4688770000000 1.0
C      1  0.5532840000000  0.4981830000000  0.5903530000000 1.0
C      1  0.5628170000000  0.4107340000000  0.4727890000000 1.0
C      1  0.4623610000000  0.5530820000000  0.4729640000000 1.0
C      1  0.4980330000000  0.4828280000000  0.4517180000000 1.0
C      1  0.5697870000000  0.5470990000000  0.5709740000000 1.0
C      1  0.5000180000000  0.5268000000000  0.4902400000000 1.0
C      1  0.5998810000000  0.4875440000000  0.5404470000000 1.0
C      1  0.4327560000000  0.4945380000000  0.5158170000000 1.0
C      1  0.5321000000000  0.5351350000000  0.4902870000000 1.0
C      1  0.5558360000000  0.4184460000000  0.4464130000000 1.0
C      1  0.5428500000000  0.5398640000000  0.5187100000000 1.0
C      1  0.5791570000000  0.5223350000000  0.5597860000000 1.0
C      1  0.5058170000000  0.5173810000000  0.6085770000000 1.0
C      1  0.4403820000000  0.4058770000000  0.4674920000000 1.0
C      1  0.5081180000000  0.5640190000000  0.5478530000000 1.0
C      1  0.4902960000000  0.4769820000000  0.6221990000000 1.0
C      1  0.5264300000000  0.4136320000000  0.4329000000000 1.0
C      1  0.5460160000000  0.4804980000000  0.4472360000000 1.0
C      1  0.4929730000000  0.5954160000000  0.4782160000000 1.0
C      1  0.5578100000000  0.4583020000000  0.5954920000000 1.0
C      1  0.4042310000000  0.4933990000000  0.4982020000000 1.0
C      1  0.4802950000000  0.5975740000000  0.5621370000000 1.0
C      1  0.4936000000000  0.3795690000000  0.4908000000000 1.0
C      1  0.4303720000000  0.4966700000000  0.5458090000000 1.0
C      1  0.4472530000000  0.4657260000000  0.5149430000000 1.0
C      1  0.4866450000000  0.5885580000000  0.4324520000000 1.0
C      1  0.4760580000000  0.4210620000000  0.4277790000000 1.0
C      1  0.4510970000000  0.5170510000000  0.5101440000000 1.0
C      1  0.5907940000000  0.5479250000000  0.4426870000000 1.0
C      1  0.5796550000000  0.4253050000000  0.4967230000000 1.0
C      1  0.4818240000000  0.5534960000000  0.4977480000000 1.0
C      1  0.4169550000000  0.4719850000000  0.5547970000000 1.0
C      1  0.5368930000000  0.3994190000000  0.4808330000000 1.0
C      1  0.5751900000000  0.5843170000000  0.4702930000000 1.0
C      1  0.5070740000000  0.3959940000000  0.4436840000000 1.0
C      1  0.4693050000000  0.4775950000000  0.5296840000000 1.0
C      1  0.4306260000000  0.4461280000000  0.5572510000000 1.0
C      1  0.6030880000000  0.4507300000000  0.5021140000000 1.0
C      1  0.5403180000000  0.5452850000000  0.4593920000000 1.0
C      1  0.5293960000000  0.5382540000000  0.6069490000000 1.0
C      1  0.5052400000000  0.4319460000000  0.4207500000000 1.0
C      1  0.4895510000000  0.5464920000000  0.3893610000000 1.0
C      1  0.5504670000000  0.4947160000000  0.4001690000000 1.0
C      1  0.5119210000000  0.5762580000000  0.4261770000000 1.0
C      1  0.4046120000000  0.4473260000000  0.5152950000000 1.0
C      1  0.4094490000000  0.5596040000000  0.4678310000000 1.0
C      1  0.5897730000000  0.5112570000000  0.4593300000000 1.0
C      1  0.5744720000000  0.5656740000000  0.5474980000000 1.0
C      1  0.5739620000000  0.5390550000000  0.4647770000000 1.0
C      1  0.5064340000000  0.5821850000000  0.5262870000000 1.0
C      1  0.4560390000000  0.5502270000000  0.5885640000000 1.0
C      1  0.4837620000000  0.5576710000000  0.5927580000000 1.0
C      1  0.5130070000000  0.5588780000000  0.4028230000000 1.0
C      1  0.5600400000000  0.5675870000000  0.4262890000000 1.0
C      1  0.5977300000000  0.4603560000000  0.5291550000000 1.0
C      1  0.5514880000000  0.5671000000000  0.5264810000000 1.0
C      1  0.5296970000000  0.5013370000000  0.4583200000000 1.0
C      1  0.4543000000000  0.5884940000000  0.5540090000000 1.0
C      1  0.5016100000000  0.6164160000000  0.4964150000000 1.0
C      1  0.4964860000000  0.4573600000000  0.4609110000000 1.0
C      1  0.5450360000000  0.4482250000000  0.5460460000000 1.0
C      1  0.5014340000000  0.4982800000000  0.5012070000000 1.0
C      1  0.4056050000000  0.5317610000000  0.5600130000000 1.0
C      1  0.3957130000000  0.5437620000000  0.5151160000000 1.0
C      1  0.5634600000000  0.4110250000000  0.5491200000000 1.0
C      1  0.4828060000000  0.4799130000000  0.5713590000000 1.0
C      1  0.4561060000000  0.5868980000000  0.5231680000000 1.0
C      1  0.4619970000000  0.5725820000000  0.4212420000000 1.0
C      1  0.4450780000000  0.5339150000000  0.4852980000000 1.0
C      1  0.5764660000000  0.4117150000000  0.5242780000000 1.0
C      1  0.5859330000000  0.4612620000000  0.4384440000000 1.0
C      1  0.5284320000000  0.4695430000000  0.5547830000000 1.0
C      1  0.4246990000000  0.4315880000000  0.4690370000000 1.0
C      1  0.4172590000000  0.4986590000000  0.4270780000000 1.0
C      1  0.4344140000000  0.5763320000000  0.4353570000000 1.0
C      1  0.4655040000000  0.4837290000000  0.4019780000000 1.0
C      1  0.5828350000000  0.5606620000000  0.4858500000000 1.0
C      1  0.5013410000000  0.4604020000000  0.5590830000000 1.0
C      1  0.4295540000000  0.4379110000000  0.5286640000000 1.0
C      1  0.5029600000000  0.5454950000000  0.6089850000000 1.0
C      1  0.4662950000000  0.4042320000000  0.4507890000000 1.0
C      1  0.5228390000000  0.4244780000000  0.5840530000000 1.0
C      1  0.4431880000000  0.4049790000000  0.4948720000000 1.0
C      1  0.4868450000000  0.4569210000000  0.5333570000000 1.0
C      1  0.4638740000000  0.4638860000000  0.5853780000000 1.0
C      1  0.4061470000000  0.5140160000000  0.4766100000000 1.0
C      1  0.5415280000000  0.4583540000000  0.4659070000000 1.0
C      1  0.4660180000000  0.5582090000000  0.5224030000000 1.0
C      1  0.4791780000000  0.6115730000000  0.5141460000000 1.0
C      1  0.4863820000000  0.3853200000000  0.5195040000000 1.0
C      1  0.5425260000000  0.5416740000000  0.5814980000000 1.0
C      1  0.4548100000000  0.4397740000000  0.4190460000000 1.0
C      1  0.5218960000000  0.3787510000000  0.4975460000000 1.0
C      1  0.5392220000000  0.4598560000000  0.4949000000000 1.0
C      1  0.5886810000000  0.4956960000000  0.5661300000000 1.0
C      1  0.5289950000000  0.5246630000000  0.4425420000000 1.0
C      1  0.5754750000000  0.4795220000000  0.5895520000000 1.0
C      1  0.4604780000000  0.5034510000000  0.4618690000000 1.0
C      1  0.4442820000000  0.4099970000000  0.5215950000000 1.0
C      1  0.5352540000000  0.4890740000000  0.5071170000000 1.0
C      1  0.5626280000000  0.4481060000000  0.5046190000000 1.0
C      1  0.4606560000000  0.5386600000000  0.3875630000000 1.0
C      1  0.5923440000000  0.5080130000000  0.5228410000000 1.0
C      1  0.6108500000000  0.4712980000000  0.4831430000000 1.0
C      1  0.5698020000000  0.4524350000000  0.5316190000000 1.0
C      1  0.5180450000000  0.4215100000000  0.4807550000000 1.0
C      1  0.5476370000000  0.5941100000000  0.4685100000000 1.0
C      1  0.5193030000000  0.4409410000000  0.4610490000000 1.0
C      1  0.5289590000000  0.4280500000000  0.5312060000000 1.0
END
