TITL C-4164238-4211-280 -0.271689768033682 125000 -11647.9690055433 0 0 79 (C1) n - 1
REM
REM in /home/nfs/bkarasulu/CARBON/AIRSS/Generating-Clusters/ReaxFF-fromJPCA2015/Units_Real/with-SteepDescent/Only-C1/SD-CG/Try1-3A/FIRE-CG
REM
REM
REM
REM
REM
REM ./C.cell (11c1c37f851c82e70ff6c80c92926a4b)
REM
REM compiler GCC version 9.2.1 20190827 (Red Hat 9.2.1-1)
REM options -cpp -mtune=generic -march=x86-64 -g -O0 -fpre-include=/usr/include/finclude/math-vector-fortran.h
REM seed 1953378550 345695752 -495723673 1450278332 -1251935882 -1417153390 -1466665055 1094570735 867155205 -421682220 -727345666 698043079 1183642153 380769627 549796592 -726741471 1102850702 1455713679 1447652126 1197064753 -38069474 559754933 -36573488 1724335909 1084677768 -937571448 1503811771 1896172116 333527165 1351204143 -1045707284 319455878 673788337
REM
CELL 1.54180   50.00000   50.00000   50.00000   90.00000   90.00000   90.00000
LATT -1
SFAC C  
C      1  0.5192220000000  0.5369670000000  0.4954280000000 1.0
C      1  0.4383090000000  0.5295630000000  0.4783990000000 1.0
C      1  0.4244110000000  0.4716710000000  0.5455710000000 1.0
C      1  0.5218490000000  0.5659820000000  0.4547350000000 1.0
C      1  0.5726540000000  0.4535980000000  0.4921610000000 1.0
C      1  0.4477150000000  0.5376460000000  0.5092610000000 1.0
C      1  0.4927660000000  0.4859600000000  0.5279430000000 1.0
C      1  0.5336100000000  0.5422250000000  0.4463920000000 1.0
C      1  0.4910660000000  0.5691400000000  0.4625990000000 1.0
C      1  0.5005600000000  0.5337430000000  0.5443060000000 1.0
C      1  0.4223280000000  0.5001510000000  0.5391190000000 1.0
C      1  0.4133750000000  0.4802430000000  0.4716910000000 1.0
C      1  0.4614290000000  0.5086360000000  0.5568340000000 1.0
C      1  0.5047210000000  0.4968790000000  0.5743530000000 1.0
C      1  0.4247460000000  0.5063150000000  0.4745190000000 1.0
C      1  0.5428240000000  0.4375430000000  0.5349690000000 1.0
C      1  0.5098520000000  0.4744090000000  0.5534550000000 1.0
C      1  0.5523640000000  0.5062340000000  0.4432970000000 1.0
C      1  0.5598630000000  0.5490330000000  0.5443770000000 1.0
C      1  0.5444280000000  0.4585900000000  0.4473470000000 1.0
C      1  0.4132930000000  0.4794490000000  0.5216820000000 1.0
C      1  0.4541030000000  0.4578830000000  0.4592560000000 1.0
C      1  0.4575260000000  0.5836510000000  0.5327870000000 1.0
C      1  0.4623700000000  0.4376120000000  0.5340560000000 1.0
C      1  0.4250860000000  0.4719780000000  0.4977570000000 1.0
C      1  0.4815100000000  0.4761940000000  0.5032520000000 1.0
C      1  0.5127110000000  0.4843420000000  0.4195240000000 1.0
C      1  0.5002640000000  0.4231700000000  0.5025440000000 1.0
C      1  0.5246510000000  0.4414860000000  0.4598530000000 1.0
C      1  0.4932560000000  0.5049670000000  0.4212020000000 1.0
C      1  0.4846950000000  0.5704160000000  0.4920130000000 1.0
C      1  0.5518490000000  0.4373060000000  0.5060600000000 1.0
C      1  0.4722090000000  0.5220100000000  0.5024090000000 1.0
C      1  0.5298740000000  0.5190370000000  0.4518300000000 1.0
C      1  0.4559230000000  0.4363620000000  0.5063650000000 1.0
C      1  0.4987010000000  0.4414360000000  0.4472350000000 1.0
C      1  0.4687070000000  0.5058830000000  0.4337160000000 1.0
C      1  0.4537170000000  0.4635790000000  0.4935170000000 1.0
C      1  0.5702380000000  0.4943500000000  0.4638290000000 1.0
C      1  0.4240240000000  0.4596990000000  0.4529470000000 1.0
C      1  0.5380200000000  0.4613560000000  0.5519910000000 1.0
C      1  0.5262040000000  0.4383990000000  0.4905100000000 1.0
C      1  0.4614130000000  0.5649710000000  0.5081620000000 1.0
C      1  0.5864820000000  0.5036330000000  0.4877590000000 1.0
C      1  0.4681920000000  0.4771420000000  0.4380800000000 1.0
C      1  0.5765870000000  0.5445750000000  0.4903570000000 1.0
C      1  0.5161240000000  0.5612870000000  0.5383730000000 1.0
C      1  0.5872470000000  0.5268410000000  0.5072400000000 1.0
C      1  0.5390980000000  0.4828390000000  0.4321200000000 1.0
C      1  0.5862960000000  0.4774970000000  0.4983570000000 1.0
C      1  0.4907470000000  0.4244120000000  0.5302080000000 1.0
C      1  0.5557080000000  0.4790330000000  0.5408800000000 1.0
C      1  0.4797520000000  0.5213080000000  0.4756950000000 1.0
C      1  0.4891930000000  0.4732730000000  0.5764220000000 1.0
C      1  0.5134930000000  0.5646910000000  0.5026650000000 1.0
C      1  0.4600040000000  0.5301470000000  0.4544460000000 1.0
C      1  0.4705930000000  0.5585960000000  0.4456880000000 1.0
C      1  0.4756880000000  0.4236350000000  0.4876520000000 1.0
C      1  0.5477070000000  0.4848660000000  0.5143280000000 1.0
C      1  0.5048820000000  0.4835420000000  0.4873420000000 1.0
C      1  0.5674380000000  0.4657820000000  0.4640890000000 1.0
C      1  0.4740560000000  0.4347790000000  0.4608700000000 1.0
C      1  0.5279480000000  0.4706790000000  0.4985620000000 1.0
C      1  0.4923490000000  0.4643410000000  0.4287980000000 1.0
C      1  0.5521190000000  0.5054290000000  0.5343920000000 1.0
C      1  0.5165100000000  0.4290390000000  0.5404470000000 1.0
C      1  0.4629900000000  0.4797550000000  0.5658300000000 1.0
C      1  0.5724880000000  0.5264490000000  0.5334980000000 1.0
C      1  0.5349530000000  0.5733600000000  0.4803040000000 1.0
C      1  0.4884350000000  0.5199950000000  0.5663470000000 1.0
C      1  0.4438150000000  0.5188070000000  0.5368900000000 1.0
C      1  0.5586280000000  0.5603300000000  0.4836090000000 1.0
C      1  0.4933980000000  0.5147080000000  0.5240500000000 1.0
C      1  0.4341050000000  0.5886800000000  0.5431900000000 1.0
C      1  0.5083450000000  0.5841100000000  0.5544450000000 1.0
C      1  0.5095890000000  0.5141170000000  0.4774830000000 1.0
C      1  0.5420930000000  0.5656210000000  0.5505260000000 1.0
C      1  0.4847920000000  0.5885640000000  0.5487700000000 1.0
C      1  0.4497180000000  0.4580730000000  0.5510350000000 1.0
END
