TITL C-4164236-1577-730 -11.6698301587048 125000 -13041.1418207829 0 0 88 (C1) n - 1
REM
REM in /home/nfs/bkarasulu/CARBON/AIRSS/Generating-Clusters/ReaxFF-fromJPCA2015/Units_Real/with-SteepDescent/Only-C1/SD-CG/Try1-3A/FIRE-CG
REM
REM
REM
REM
REM
REM ./C.cell (11c1c37f851c82e70ff6c80c92926a4b)
REM
REM compiler GCC version 9.2.1 20190827 (Red Hat 9.2.1-1)
REM options -cpp -mtune=generic -march=x86-64 -g -O0 -fpre-include=/usr/include/finclude/math-vector-fortran.h
REM seed 1308902852 520333957 -1436305458 1502619176 72138144 7892409 -1503948271 1897644816 597377466 -240099878 -1369956560 1230890505 -358062510 -1488726003 -1997519090 498493075 -1992446409 -665217259 537307077 1974761639 1266996831 -837033341 -1003733110 -123446707 -1933815929 -1124211894 114946599 656627576 1693851121 1953967069 -1049608812 -1245753477 -2118724546
REM
CELL 1.54180   50.00000   50.00000   50.00000   90.00000   90.00000   90.00000
LATT -1
SFAC C  
C      1  0.4620600000000  0.4384500000000  0.5212040000000 1.0
C      1  0.4390300000000  0.5364110000000  0.4440170000000 1.0
C      1  0.4670310000000  0.4753580000000  0.4494240000000 1.0
C      1  0.4578850000000  0.5302400000000  0.4801200000000 1.0
C      1  0.4248390000000  0.4474050000000  0.5035360000000 1.0
C      1  0.5494580000000  0.5598780000000  0.4516760000000 1.0
C      1  0.5165040000000  0.4446950000000  0.4532660000000 1.0
C      1  0.5600520000000  0.5231380000000  0.5280390000000 1.0
C      1  0.4170170000000  0.5066210000000  0.4835430000000 1.0
C      1  0.5133410000000  0.5286570000000  0.4257500000000 1.0
C      1  0.5283390000000  0.4889190000000  0.5600580000000 1.0
C      1  0.4342650000000  0.4442480000000  0.5299180000000 1.0
C      1  0.5912040000000  0.4853310000000  0.5156090000000 1.0
C      1  0.4652190000000  0.5328300000000  0.5071200000000 1.0
C      1  0.4884880000000  0.4828800000000  0.5731840000000 1.0
C      1  0.5096270000000  0.5009540000000  0.4195930000000 1.0
C      1  0.5414570000000  0.4302530000000  0.4975410000000 1.0
C      1  0.4916510000000  0.5118780000000  0.5784830000000 1.0
C      1  0.5349110000000  0.4345280000000  0.5266620000000 1.0
C      1  0.5203290000000  0.4274190000000  0.4782100000000 1.0
C      1  0.5803260000000  0.4669550000000  0.5375420000000 1.0
C      1  0.5413720000000  0.5322270000000  0.4380990000000 1.0
C      1  0.5142550000000  0.5015070000000  0.5364720000000 1.0
C      1  0.5328810000000  0.5834950000000  0.5021090000000 1.0
C      1  0.4207790000000  0.4827550000000  0.4678660000000 1.0
C      1  0.5530950000000  0.4570250000000  0.5306910000000 1.0
C      1  0.4993940000000  0.5083000000000  0.4778150000000 1.0
C      1  0.5347620000000  0.4863940000000  0.4275940000000 1.0
C      1  0.5597300000000  0.5230190000000  0.5578210000000 1.0
C      1  0.4926430000000  0.5547960000000  0.5789870000000 1.0
C      1  0.5238320000000  0.4966140000000  0.4706870000000 1.0
C      1  0.5329900000000  0.4916570000000  0.4989660000000 1.0
C      1  0.5032570000000  0.4132690000000  0.5196620000000 1.0
C      1  0.5724060000000  0.4952040000000  0.4581150000000 1.0
C      1  0.5333240000000  0.5159030000000  0.5201340000000 1.0
C      1  0.4392470000000  0.5110800000000  0.4293160000000 1.0
C      1  0.5668680000000  0.5136620000000  0.4798870000000 1.0
C      1  0.5393210000000  0.5636350000000  0.4781030000000 1.0
C      1  0.5095270000000  0.4449430000000  0.5440720000000 1.0
C      1  0.4384480000000  0.4873850000000  0.4457700000000 1.0
C      1  0.5383930000000  0.5221420000000  0.4704680000000 1.0
C      1  0.4877630000000  0.5360950000000  0.4378280000000 1.0
C      1  0.5558270000000  0.4960240000000  0.5689100000000 1.0
C      1  0.4959440000000  0.4217960000000  0.4939360000000 1.0
C      1  0.5378500000000  0.5754630000000  0.5283330000000 1.0
C      1  0.5773630000000  0.5109090000000  0.5070820000000 1.0
C      1  0.5113950000000  0.4823720000000  0.5138920000000 1.0
C      1  0.4479650000000  0.4373660000000  0.4692690000000 1.0
C      1  0.5198120000000  0.5421870000000  0.4836900000000 1.0
C      1  0.5895800000000  0.4740470000000  0.4904450000000 1.0
C      1  0.4605140000000  0.4983260000000  0.5390560000000 1.0
C      1  0.4328130000000  0.4920780000000  0.5346340000000 1.0
C      1  0.4743980000000  0.4694010000000  0.4785070000000 1.0
C      1  0.4812250000000  0.4477400000000  0.5403920000000 1.0
C      1  0.4640500000000  0.5542520000000  0.4411290000000 1.0
C      1  0.4355340000000  0.4673340000000  0.5491660000000 1.0
C      1  0.4698950000000  0.5330580000000  0.5799590000000 1.0
C      1  0.4853700000000  0.5756930000000  0.5283530000000 1.0
C      1  0.4616370000000  0.5040300000000  0.4090230000000 1.0
C      1  0.4909270000000  0.5680230000000  0.5544570000000 1.0
C      1  0.4881970000000  0.4906330000000  0.4978910000000 1.0
C      1  0.5390640000000  0.5611210000000  0.5468350000000 1.0
C      1  0.4175180000000  0.5343090000000  0.5242170000000 1.0
C      1  0.4535170000000  0.5403910000000  0.5590960000000 1.0
C      1  0.5043220000000  0.5817500000000  0.5047200000000 1.0
C      1  0.5542990000000  0.4514970000000  0.4821900000000 1.0
C      1  0.4940780000000  0.5596520000000  0.4875460000000 1.0
C      1  0.4911860000000  0.4358620000000  0.4398300000000 1.0
C      1  0.4775090000000  0.5105820000000  0.5191890000000 1.0
C      1  0.4301970000000  0.5299010000000  0.4710150000000 1.0
C      1  0.5789590000000  0.4766100000000  0.5654720000000 1.0
C      1  0.5384230000000  0.5411880000000  0.5668410000000 1.0
C      1  0.5558650000000  0.5047980000000  0.4358280000000 1.0
C      1  0.5483180000000  0.4696010000000  0.5045210000000 1.0
C      1  0.5759290000000  0.4657180000000  0.4677020000000 1.0
C      1  0.4802090000000  0.5224410000000  0.4624720000000 1.0
C      1  0.5113430000000  0.4656500000000  0.5658990000000 1.0
C      1  0.4420160000000  0.5498840000000  0.5354130000000 1.0
C      1  0.4696250000000  0.4420540000000  0.4906600000000 1.0
C      1  0.5270230000000  0.4718470000000  0.4513290000000 1.0
C      1  0.4824610000000  0.4901340000000  0.4238760000000 1.0
C      1  0.4236290000000  0.4532480000000  0.4763580000000 1.0
C      1  0.5123730000000  0.5326360000000  0.5796100000000 1.0
C      1  0.4155310000000  0.5079040000000  0.5137440000000 1.0
C      1  0.4758930000000  0.5671890000000  0.4648130000000 1.0
C      1  0.4657620000000  0.4718130000000  0.5560660000000 1.0
C      1  0.4637910000000  0.5588570000000  0.5164470000000 1.0
C      1  0.4635370000000  0.4444730000000  0.4452310000000 1.0
END
