TITL C-4164240-4114-53 -15.7311780631909 125000 -7687.97496626165 0 0 52 (C1) n - 1
REM
REM in /home/nfs/bkarasulu/CARBON/AIRSS/Generating-Clusters/ReaxFF-fromJPCA2015/Units_Real/with-SteepDescent/Only-C1/SD-CG/Try1-3A/FIRE-CG
REM
REM
REM
REM
REM
REM ./C.cell (11c1c37f851c82e70ff6c80c92926a4b)
REM
REM compiler GCC version 9.2.1 20190827 (Red Hat 9.2.1-1)
REM options -cpp -mtune=generic -march=x86-64 -g -O0 -fpre-include=/usr/include/finclude/math-vector-fortran.h
REM seed -1691404067 -381375087 -126586703 -1777743154 1924144542 55652390 -515650223 -882305885 -1620364877 1460394582 1714776408 -1550315768 -134766203 79864047 -853864127 641594760 -850409702 -930908869 1985996842 -936118438 860798664 -821656403 1602823166 725361630 1132693669 1453027908 -1661736152 -1661266507 -1961639012 -1140947871 47081585 -1824239279 -1714584295
REM
CELL 1.54180   50.00000   50.00000   50.00000   90.00000   90.00000   90.00000
LATT -1
SFAC C  
C      1  0.5159280000000  0.4466890000000  0.5317330000000 1.0
C      1  0.5112570000000  0.5366910000000  0.4633950000000 1.0
C      1  0.5197340000000  0.4755160000000  0.5623270000000 1.0
C      1  0.4693020000000  0.5507900000000  0.5356990000000 1.0
C      1  0.5281000000000  0.5687960000000  0.4934790000000 1.0
C      1  0.5666290000000  0.5002860000000  0.5101340000000 1.0
C      1  0.4542070000000  0.5440020000000  0.5105930000000 1.0
C      1  0.5100590000000  0.5030750000000  0.5595300000000 1.0
C      1  0.4725670000000  0.5268990000000  0.5501580000000 1.0
C      1  0.5063410000000  0.5782060000000  0.5114230000000 1.0
C      1  0.4964080000000  0.5287780000000  0.4906650000000 1.0
C      1  0.4789270000000  0.4997660000000  0.4935980000000 1.0
C      1  0.5172380000000  0.5180810000000  0.4413840000000 1.0
C      1  0.4439130000000  0.4527370000000  0.5128460000000 1.0
C      1  0.5287430000000  0.5486710000000  0.5594520000000 1.0
C      1  0.4766780000000  0.4866050000000  0.4375540000000 1.0
C      1  0.5576470000000  0.5077880000000  0.4692660000000 1.0
C      1  0.5263400000000  0.4732360000000  0.4917360000000 1.0
C      1  0.5218640000000  0.5641490000000  0.4636850000000 1.0
C      1  0.5545820000000  0.4846750000000  0.4868540000000 1.0
C      1  0.4657950000000  0.4398800000000  0.5008590000000 1.0
C      1  0.4662270000000  0.5143110000000  0.4385040000000 1.0
C      1  0.5133430000000  0.4339550000000  0.5055290000000 1.0
C      1  0.5371470000000  0.4714020000000  0.4456640000000 1.0
C      1  0.5201730000000  0.5252230000000  0.5423810000000 1.0
C      1  0.4573180000000  0.5270550000000  0.4638720000000 1.0
C      1  0.4742270000000  0.4734260000000  0.5544170000000 1.0
C      1  0.4306670000000  0.4741640000000  0.4992170000000 1.0
C      1  0.4522190000000  0.5011380000000  0.4760130000000 1.0
C      1  0.4986220000000  0.4567360000000  0.5534160000000 1.0
C      1  0.4851640000000  0.4685550000000  0.4596350000000 1.0
C      1  0.4698360000000  0.5421150000000  0.4860310000000 1.0
C      1  0.5391650000000  0.4644140000000  0.5425860000000 1.0
C      1  0.5413630000000  0.5441290000000  0.5038540000000 1.0
C      1  0.4873420000000  0.4291570000000  0.4895270000000 1.0
C      1  0.5608930000000  0.5254230000000  0.4926630000000 1.0
C      1  0.5172440000000  0.5312070000000  0.5138800000000 1.0
C      1  0.4910200000000  0.5723750000000  0.5355580000000 1.0
C      1  0.5542150000000  0.4834330000000  0.5283580000000 1.0
C      1  0.5101060000000  0.5719120000000  0.5589120000000 1.0
C      1  0.4551750000000  0.4743100000000  0.5332160000000 1.0
C      1  0.5403330000000  0.4995020000000  0.4456490000000 1.0
C      1  0.4878610000000  0.4384940000000  0.4602390000000 1.0
C      1  0.4933560000000  0.5084790000000  0.4279160000000 1.0
C      1  0.4405420000000  0.5185680000000  0.5152680000000 1.0
C      1  0.5123560000000  0.4403760000000  0.4465810000000 1.0
C      1  0.4281570000000  0.5016400000000  0.4933960000000 1.0
C      1  0.5382320000000  0.4453530000000  0.4572500000000 1.0
C      1  0.4625530000000  0.5000480000000  0.5207220000000 1.0
C      1  0.4986400000000  0.4800990000000  0.4833620000000 1.0
C      1  0.4808080000000  0.5023140000000  0.5619640000000 1.0
C      1  0.5334370000000  0.4453720000000  0.4880510000000 1.0
END
