TITL C-4164236-1577-594 66.7214469645178 125000 -26053.1179181177 0 0 176 (C1) n - 1
REM
REM in /home/nfs/bkarasulu/CARBON/AIRSS/Generating-Clusters/ReaxFF-fromJPCA2015/Units_Real/with-SteepDescent/Only-C1/SD-CG/Try1-3A/FIRE-CG
REM
REM
REM
REM
REM
REM ./C.cell (11c1c37f851c82e70ff6c80c92926a4b)
REM
REM compiler GCC version 9.2.1 20190827 (Red Hat 9.2.1-1)
REM options -cpp -mtune=generic -march=x86-64 -g -O0 -fpre-include=/usr/include/finclude/math-vector-fortran.h
REM seed 1420952359 -1288470603 -1766607188 -176446195 358590308 -737244494 -1874151031 1957183766 -913292921 803964476 -1836694981 757572559 1545196193 -99493934 1381321969 2043554557 651771752 -1579313842 315327797 287688380 -846852639 263659723 119771119 1555718738 732563738 518295908 1770370911 1233057762 1557233992 -567267760 -1622046467 305303114 -490745454
REM
CELL 1.54180   50.00000   50.00000   50.00000   90.00000   90.00000   90.00000
LATT -1
SFAC C  
C      1  0.4459010000000  0.4770860000000  0.5025740000000 1.0
C      1  0.5948840000000  0.4773440000000  0.5096880000000 1.0
C      1  0.4139980000000  0.4234820000000  0.4896900000000 1.0
C      1  0.4942980000000  0.4747950000000  0.5176220000000 1.0
C      1  0.5774880000000  0.4398320000000  0.4783860000000 1.0
C      1  0.4098280000000  0.5521740000000  0.4630480000000 1.0
C      1  0.4979840000000  0.4478160000000  0.4422970000000 1.0
C      1  0.4879640000000  0.4881430000000  0.4679190000000 1.0
C      1  0.4853100000000  0.5490370000000  0.4068600000000 1.0
C      1  0.5292760000000  0.4819900000000  0.4883890000000 1.0
C      1  0.5453680000000  0.5090290000000  0.5885170000000 1.0
C      1  0.4565070000000  0.5841320000000  0.5443000000000 1.0
C      1  0.4770370000000  0.6033190000000  0.5403830000000 1.0
C      1  0.4828760000000  0.5165270000000  0.4960140000000 1.0
C      1  0.4267700000000  0.4987760000000  0.5869620000000 1.0
C      1  0.4676970000000  0.5297920000000  0.3928200000000 1.0
C      1  0.5471740000000  0.5927000000000  0.4714080000000 1.0
C      1  0.5302160000000  0.4807780000000  0.4483700000000 1.0
C      1  0.5822260000000  0.4570570000000  0.4568860000000 1.0
C      1  0.3985340000000  0.4375580000000  0.5116110000000 1.0
C      1  0.4196840000000  0.5737910000000  0.4786210000000 1.0
C      1  0.4771310000000  0.4042150000000  0.5791240000000 1.0
C      1  0.5245910000000  0.4393880000000  0.4737680000000 1.0
C      1  0.4470450000000  0.5280630000000  0.4690810000000 1.0
C      1  0.4996460000000  0.6043850000000  0.4362540000000 1.0
C      1  0.5321860000000  0.4860440000000  0.6029950000000 1.0
C      1  0.4823500000000  0.4438050000000  0.5521030000000 1.0
C      1  0.4757500000000  0.5302460000000  0.5892690000000 1.0
C      1  0.5048270000000  0.4008020000000  0.5700870000000 1.0
C      1  0.5312630000000  0.5227430000000  0.3941080000000 1.0
C      1  0.4555040000000  0.5480480000000  0.4868250000000 1.0
C      1  0.4459700000000  0.5667460000000  0.4376230000000 1.0
C      1  0.5584000000000  0.4786200000000  0.4039050000000 1.0
C      1  0.5818230000000  0.5376940000000  0.4840660000000 1.0
C      1  0.5307610000000  0.3979990000000  0.5254770000000 1.0
C      1  0.4038970000000  0.5055510000000  0.5446130000000 1.0
C      1  0.5720110000000  0.4046030000000  0.5149090000000 1.0
C      1  0.4710060000000  0.5512460000000  0.4326750000000 1.0
C      1  0.4420700000000  0.5429050000000  0.5589990000000 1.0
C      1  0.4169490000000  0.5051640000000  0.4413880000000 1.0
C      1  0.4524320000000  0.4590170000000  0.4674280000000 1.0
C      1  0.4094540000000  0.4422340000000  0.4689640000000 1.0
C      1  0.5083740000000  0.5307550000000  0.4984660000000 1.0
C      1  0.5097660000000  0.4927650000000  0.4129420000000 1.0
C      1  0.4432080000000  0.5918900000000  0.5211370000000 1.0
C      1  0.5830920000000  0.5340850000000  0.4412390000000 1.0
C      1  0.4423310000000  0.5529380000000  0.5109220000000 1.0
C      1  0.5623340000000  0.4411740000000  0.4385320000000 1.0
C      1  0.5199000000000  0.4629410000000  0.4271060000000 1.0
C      1  0.4414160000000  0.5843510000000  0.4611220000000 1.0
C      1  0.4384410000000  0.5249520000000  0.3980230000000 1.0
C      1  0.5339170000000  0.4950890000000  0.3949550000000 1.0
C      1  0.5400480000000  0.4230220000000  0.5380810000000 1.0
C      1  0.5799900000000  0.4915070000000  0.4177650000000 1.0
C      1  0.5299700000000  0.6029370000000  0.4937010000000 1.0
C      1  0.4871370000000  0.4890180000000  0.5417290000000 1.0
C      1  0.4206330000000  0.5527770000000  0.4357840000000 1.0
C      1  0.5030500000000  0.4530550000000  0.5333070000000 1.0
C      1  0.5533120000000  0.5322080000000  0.4821580000000 1.0
C      1  0.5845420000000  0.4303360000000  0.5244700000000 1.0
C      1  0.5827040000000  0.5014460000000  0.5490580000000 1.0
C      1  0.3988600000000  0.5249390000000  0.5214570000000 1.0
C      1  0.4758110000000  0.4545080000000  0.4019840000000 1.0
C      1  0.4754290000000  0.4937910000000  0.6097850000000 1.0
C      1  0.4860930000000  0.4813290000000  0.3968410000000 1.0
C      1  0.4997000000000  0.5982010000000  0.5565190000000 1.0
C      1  0.5937380000000  0.5233410000000  0.5288730000000 1.0
C      1  0.5253070000000  0.5278400000000  0.5810100000000 1.0
C      1  0.4765920000000  0.5142230000000  0.5438810000000 1.0
C      1  0.5350170000000  0.5783140000000  0.4504950000000 1.0
C      1  0.4672860000000  0.5922570000000  0.4718410000000 1.0
C      1  0.4077840000000  0.5168130000000  0.5710280000000 1.0
C      1  0.5996220000000  0.5198110000000  0.5006630000000 1.0
C      1  0.4064670000000  0.5506190000000  0.5299910000000 1.0
C      1  0.5175680000000  0.5828570000000  0.4278020000000 1.0
C      1  0.5364580000000  0.5316620000000  0.4574400000000 1.0
C      1  0.5907210000000  0.4475660000000  0.5028850000000 1.0
C      1  0.4997060000000  0.5144140000000  0.5816770000000 1.0
C      1  0.4825260000000  0.5990210000000  0.5125730000000 1.0
C      1  0.6059440000000  0.4790680000000  0.5430810000000 1.0
C      1  0.4701550000000  0.5112080000000  0.4685650000000 1.0
C      1  0.4519800000000  0.5152210000000  0.5592840000000 1.0
C      1  0.5285560000000  0.4456410000000  0.5241450000000 1.0
C      1  0.4324790000000  0.4985650000000  0.5430940000000 1.0
C      1  0.5493560000000  0.4639420000000  0.5964420000000 1.0
C      1  0.4667190000000  0.3964300000000  0.5089130000000 1.0
C      1  0.4894450000000  0.5710490000000  0.5112690000000 1.0
C      1  0.5502910000000  0.5344460000000  0.5314460000000 1.0
C      1  0.5878310000000  0.5543010000000  0.4609280000000 1.0
C      1  0.5957140000000  0.4839960000000  0.4604030000000 1.0
C      1  0.4310970000000  0.4500440000000  0.4508290000000 1.0
C      1  0.5220670000000  0.5549750000000  0.4562220000000 1.0
C      1  0.4762510000000  0.4359580000000  0.4256770000000 1.0
C      1  0.4697910000000  0.5019090000000  0.3830920000000 1.0
C      1  0.4438970000000  0.4331050000000  0.5732990000000 1.0
C      1  0.4369450000000  0.4264370000000  0.5038450000000 1.0
C      1  0.3942200000000  0.4587050000000  0.4876900000000 1.0
C      1  0.5531230000000  0.4288390000000  0.5633200000000 1.0
C      1  0.5078620000000  0.3901950000000  0.4306500000000 1.0
C      1  0.4786970000000  0.4642270000000  0.4566260000000 1.0
C      1  0.5466270000000  0.4003990000000  0.5003180000000 1.0
C      1  0.5485400000000  0.4176240000000  0.4492850000000 1.0
C      1  0.5329560000000  0.4547500000000  0.4971390000000 1.0
C      1  0.5063730000000  0.5155770000000  0.4374350000000 1.0
C      1  0.5385770000000  0.4861520000000  0.5296390000000 1.0
C      1  0.5383990000000  0.5423150000000  0.4114750000000 1.0
C      1  0.5013710000000  0.6087990000000  0.4910440000000 1.0
C      1  0.4290670000000  0.4714700000000  0.5788780000000 1.0
C      1  0.4218570000000  0.4477060000000  0.5614640000000 1.0
C      1  0.4631500000000  0.4095210000000  0.4601940000000 1.0
C      1  0.4980410000000  0.4299380000000  0.4830860000000 1.0
C      1  0.4885570000000  0.6100120000000  0.4638140000000 1.0
C      1  0.5751350000000  0.4750320000000  0.5859940000000 1.0
C      1  0.5400370000000  0.6031710000000  0.5208960000000 1.0
C      1  0.5942670000000  0.5051170000000  0.4385520000000 1.0
C      1  0.5762030000000  0.5441810000000  0.5393120000000 1.0
C      1  0.5527520000000  0.5171150000000  0.5074550000000 1.0
C      1  0.4126460000000  0.5445930000000  0.5582110000000 1.0
C      1  0.5174770000000  0.4940080000000  0.5119830000000 1.0
C      1  0.4780980000000  0.3964420000000  0.5328280000000 1.0
C      1  0.5059020000000  0.3935860000000  0.5411380000000 1.0
C      1  0.5138290000000  0.5573000000000  0.4088860000000 1.0
C      1  0.4949990000000  0.4879320000000  0.5687950000000 1.0
C      1  0.5748900000000  0.5723750000000  0.5486460000000 1.0
C      1  0.5278710000000  0.5488790000000  0.5394730000000 1.0
C      1  0.4229770000000  0.4777640000000  0.4340880000000 1.0
C      1  0.5481360000000  0.4548870000000  0.4176030000000 1.0
C      1  0.4212200000000  0.5742050000000  0.5103080000000 1.0
C      1  0.5756390000000  0.5844950000000  0.4998480000000 1.0
C      1  0.4566400000000  0.5549050000000  0.5366590000000 1.0
C      1  0.4829450000000  0.4492570000000  0.4986920000000 1.0
C      1  0.4545440000000  0.4505790000000  0.4946190000000 1.0
C      1  0.5195800000000  0.4067650000000  0.4452780000000 1.0
C      1  0.5281500000000  0.5558960000000  0.5675270000000 1.0
C      1  0.5729680000000  0.4466090000000  0.5489970000000 1.0
C      1  0.4785170000000  0.4636580000000  0.5717550000000 1.0
C      1  0.5684880000000  0.4930840000000  0.5025400000000 1.0
C      1  0.5068520000000  0.5508860000000  0.5208120000000 1.0
C      1  0.4829900000000  0.5561570000000  0.5821850000000 1.0
C      1  0.4795880000000  0.5649980000000  0.4842540000000 1.0
C      1  0.5037790000000  0.5501680000000  0.4766830000000 1.0
C      1  0.5739990000000  0.5802620000000  0.4733700000000 1.0
C      1  0.4623030000000  0.4477510000000  0.5908290000000 1.0
C      1  0.5678460000000  0.5915640000000  0.5253630000000 1.0
C      1  0.4286970000000  0.4769430000000  0.4058750000000 1.0
C      1  0.5475690000000  0.5996790000000  0.5618840000000 1.0
C      1  0.5721830000000  0.5026500000000  0.5781060000000 1.0
C      1  0.5111850000000  0.4973680000000  0.4573230000000 1.0
C      1  0.3973410000000  0.4857070000000  0.4910920000000 1.0
C      1  0.5545370000000  0.5274460000000  0.4362480000000 1.0
C      1  0.4422070000000  0.5008510000000  0.5154680000000 1.0
C      1  0.4143850000000  0.4412200000000  0.5341210000000 1.0
C      1  0.5385540000000  0.4385210000000  0.5862600000000 1.0
C      1  0.4219420000000  0.5263770000000  0.4226480000000 1.0
C      1  0.5547020000000  0.5735500000000  0.5694920000000 1.0
C      1  0.6057850000000  0.4935070000000  0.4867630000000 1.0
C      1  0.5038500000000  0.4857030000000  0.6115390000000 1.0
C      1  0.4536910000000  0.5103360000000  0.5985370000000 1.0
C      1  0.4492910000000  0.4039760000000  0.4886350000000 1.0
C      1  0.4405420000000  0.4978810000000  0.3870430000000 1.0
C      1  0.5612820000000  0.4789400000000  0.5427470000000 1.0
C      1  0.5922370000000  0.4620270000000  0.5658020000000 1.0
C      1  0.4524810000000  0.4277740000000  0.4412830000000 1.0
C      1  0.5123810000000  0.4246810000000  0.5871610000000 1.0
C      1  0.4006670000000  0.5116560000000  0.4938170000000 1.0
C      1  0.5013320000000  0.5739770000000  0.5725610000000 1.0
C      1  0.4807880000000  0.5271180000000  0.4448400000000 1.0
C      1  0.4922220000000  0.4093580000000  0.4635070000000 1.0
C      1  0.5505690000000  0.4212540000000  0.4770400000000 1.0
C      1  0.5555080000000  0.4892360000000  0.4778450000000 1.0
C      1  0.5253190000000  0.6089910000000  0.5467950000000 1.0
C      1  0.4655000000000  0.5203260000000  0.5180480000000 1.0
C      1  0.5548700000000  0.4955830000000  0.4488860000000 1.0
C      1  0.4170040000000  0.5218980000000  0.4680570000000 1.0
C      1  0.4652540000000  0.4187570000000  0.5548970000000 1.0
C      1  0.4839940000000  0.4271320000000  0.5962440000000 1.0
END
