TITL C-4164239-2837-11 87.6565790077034 125000 -28219.5435223742 0 0 189 (C1) n - 1
REM
REM in /home/nfs/bkarasulu/CARBON/AIRSS/Generating-Clusters/ReaxFF-fromJPCA2015/Units_Real/with-SteepDescent/Only-C1/SD-CG/Try1-3A/FIRE-CG
REM
REM
REM
REM
REM
REM ./C.cell (11c1c37f851c82e70ff6c80c92926a4b)
REM
REM compiler GCC version 9.2.1 20190827 (Red Hat 9.2.1-1)
REM options -cpp -mtune=generic -march=x86-64 -g -O0 -fpre-include=/usr/include/finclude/math-vector-fortran.h
REM seed 1961106010 592583792 1264634502 496270953 -1208482455 432580559 -1683315626 1680979648 1903946633 -1144369466 1140914167 671227701 -1475913574 -315973368 969545003 2023341099 1778964748 131692981 -284577561 -1089174816 -769859525 -868943442 280663594 -1306535208 854532419 81608609 -362152505 925917059 -1460181083 -1983542313 1933634243 -1653737798 1895247480
REM
CELL 1.54180   50.00000   50.00000   50.00000   90.00000   90.00000   90.00000
LATT -1
SFAC C  
C      1  0.5553700000000  0.5383280000000  0.4087740000000 1.0
C      1  0.5217300000000  0.4768580000000  0.6202760000000 1.0
C      1  0.4649530000000  0.5179610000000  0.6054810000000 1.0
C      1  0.4932710000000  0.4884970000000  0.3888010000000 1.0
C      1  0.4516020000000  0.4743400000000  0.4068360000000 1.0
C      1  0.5226360000000  0.4165170000000  0.5403820000000 1.0
C      1  0.5668640000000  0.4833020000000  0.6000860000000 1.0
C      1  0.5008740000000  0.4233850000000  0.5875710000000 1.0
C      1  0.4631550000000  0.5694350000000  0.5783510000000 1.0
C      1  0.5250010000000  0.4674750000000  0.4780400000000 1.0
C      1  0.5457730000000  0.4909900000000  0.6207160000000 1.0
C      1  0.5500900000000  0.4635110000000  0.4034020000000 1.0
C      1  0.4420140000000  0.5858410000000  0.4845510000000 1.0
C      1  0.6075230000000  0.5434490000000  0.4836310000000 1.0
C      1  0.4227030000000  0.5639240000000  0.4817860000000 1.0
C      1  0.4265230000000  0.5669600000000  0.5555850000000 1.0
C      1  0.4615180000000  0.5503350000000  0.4310820000000 1.0
C      1  0.4006970000000  0.4903300000000  0.4569570000000 1.0
C      1  0.5013860000000  0.5873300000000  0.5177850000000 1.0
C      1  0.4668830000000  0.4470600000000  0.5817120000000 1.0
C      1  0.4665210000000  0.5510900000000  0.5076440000000 1.0
C      1  0.4462810000000  0.5208700000000  0.5409760000000 1.0
C      1  0.4650230000000  0.3950030000000  0.5071250000000 1.0
C      1  0.5382740000000  0.4989640000000  0.4837210000000 1.0
C      1  0.4695910000000  0.5794450000000  0.5527320000000 1.0
C      1  0.4412020000000  0.5527550000000  0.5776560000000 1.0
C      1  0.5103180000000  0.4956070000000  0.4045770000000 1.0
C      1  0.5311600000000  0.4159480000000  0.4281400000000 1.0
C      1  0.4000710000000  0.5599680000000  0.5444200000000 1.0
C      1  0.5050650000000  0.5739760000000  0.5735490000000 1.0
C      1  0.5262590000000  0.5080080000000  0.4237290000000 1.0
C      1  0.5258190000000  0.5481010000000  0.4895980000000 1.0
C      1  0.4294870000000  0.5467650000000  0.4343680000000 1.0
C      1  0.4952480000000  0.5007390000000  0.4600590000000 1.0
C      1  0.4610690000000  0.5508590000000  0.3802800000000 1.0
C      1  0.4448400000000  0.5848690000000  0.5401370000000 1.0
C      1  0.4272940000000  0.5115810000000  0.3977570000000 1.0
C      1  0.4603170000000  0.4735990000000  0.5684460000000 1.0
C      1  0.5289230000000  0.3902900000000  0.5267040000000 1.0
C      1  0.5874750000000  0.4929030000000  0.5400240000000 1.0
C      1  0.4882780000000  0.5795450000000  0.4604330000000 1.0
C      1  0.4847070000000  0.5400100000000  0.6096590000000 1.0
C      1  0.4196880000000  0.4687690000000  0.5804910000000 1.0
C      1  0.4866090000000  0.4442300000000  0.6027810000000 1.0
C      1  0.4376400000000  0.4873890000000  0.4774090000000 1.0
C      1  0.4794170000000  0.5260700000000  0.4262940000000 1.0
C      1  0.5089720000000  0.4023850000000  0.4417560000000 1.0
C      1  0.6040840000000  0.4790800000000  0.5205350000000 1.0
C      1  0.4465380000000  0.4197590000000  0.4536260000000 1.0
C      1  0.5389840000000  0.3926720000000  0.4997770000000 1.0
C      1  0.5351730000000  0.4211250000000  0.4926760000000 1.0
C      1  0.4176310000000  0.5478180000000  0.5058630000000 1.0
C      1  0.4761620000000  0.5160700000000  0.3978220000000 1.0
C      1  0.4595160000000  0.4827180000000  0.4335330000000 1.0
C      1  0.4505370000000  0.4682060000000  0.4559510000000 1.0
C      1  0.4536240000000  0.4049730000000  0.5590520000000 1.0
C      1  0.5651770000000  0.4574760000000  0.5844240000000 1.0
C      1  0.5727780000000  0.5866140000000  0.5255570000000 1.0
C      1  0.4069710000000  0.4722710000000  0.4809760000000 1.0
C      1  0.4941770000000  0.6041360000000  0.4277130000000 1.0
C      1  0.5461690000000  0.5992660000000  0.5236340000000 1.0
C      1  0.6114450000000  0.5277010000000  0.5310500000000 1.0
C      1  0.4242920000000  0.5020690000000  0.5469840000000 1.0
C      1  0.3952740000000  0.5226700000000  0.4314390000000 1.0
C      1  0.5931210000000  0.4437830000000  0.4730590000000 1.0
C      1  0.4169750000000  0.4966130000000  0.5759050000000 1.0
C      1  0.5039560000000  0.4184130000000  0.4173890000000 1.0
C      1  0.4966510000000  0.5236930000000  0.5592410000000 1.0
C      1  0.4901640000000  0.5833710000000  0.4060100000000 1.0
C      1  0.4102250000000  0.4768700000000  0.4326450000000 1.0
C      1  0.5574660000000  0.4291440000000  0.4351920000000 1.0
C      1  0.5423410000000  0.4679950000000  0.5223880000000 1.0
C      1  0.5273210000000  0.4540610000000  0.3871070000000 1.0
C      1  0.6029620000000  0.4665950000000  0.4565540000000 1.0
C      1  0.5234280000000  0.5905000000000  0.5395490000000 1.0
C      1  0.4513280000000  0.5117640000000  0.3909070000000 1.0
C      1  0.5181210000000  0.5089400000000  0.5724940000000 1.0
C      1  0.4909410000000  0.4151560000000  0.5480440000000 1.0
C      1  0.5157020000000  0.5742060000000  0.4918880000000 1.0
C      1  0.6046280000000  0.5325960000000  0.5597690000000 1.0
C      1  0.5891420000000  0.4685460000000  0.4305110000000 1.0
C      1  0.4895830000000  0.5416940000000  0.3831400000000 1.0
C      1  0.4865600000000  0.4665870000000  0.5233070000000 1.0
C      1  0.4097920000000  0.4424830000000  0.4846850000000 1.0
C      1  0.6236010000000  0.5436700000000  0.5094690000000 1.0
C      1  0.5416380000000  0.5558260000000  0.5803110000000 1.0
C      1  0.4576310000000  0.4450410000000  0.4089890000000 1.0
C      1  0.5416470000000  0.5244220000000  0.5874210000000 1.0
C      1  0.5042380000000  0.5207360000000  0.6199160000000 1.0
C      1  0.5364310000000  0.4555120000000  0.5749440000000 1.0
C      1  0.5878700000000  0.5325540000000  0.4467610000000 1.0
C      1  0.6096630000000  0.4919810000000  0.4697330000000 1.0
C      1  0.5432500000000  0.5203720000000  0.5319100000000 1.0
C      1  0.4239580000000  0.4857480000000  0.4070330000000 1.0
C      1  0.5415890000000  0.4923720000000  0.5408250000000 1.0
C      1  0.5132700000000  0.3794100000000  0.5044030000000 1.0
C      1  0.4954230000000  0.4697280000000  0.6164620000000 1.0
C      1  0.5148300000000  0.5924940000000  0.4485750000000 1.0
C      1  0.5618480000000  0.5743890000000  0.4450760000000 1.0
C      1  0.4900240000000  0.5153180000000  0.4861840000000 1.0
C      1  0.5900660000000  0.5574120000000  0.5638660000000 1.0
C      1  0.5001130000000  0.4721020000000  0.4643820000000 1.0
C      1  0.5746940000000  0.5848630000000  0.4959370000000 1.0
C      1  0.4738220000000  0.4278400000000  0.4627380000000 1.0
C      1  0.5656490000000  0.5360690000000  0.5258260000000 1.0
C      1  0.5693410000000  0.5076000000000  0.5859790000000 1.0
C      1  0.5403890000000  0.4412950000000  0.4725210000000 1.0
C      1  0.5234140000000  0.4302910000000  0.5699140000000 1.0
C      1  0.4700850000000  0.5384360000000  0.4808590000000 1.0
C      1  0.5331320000000  0.5173860000000  0.6155520000000 1.0
C      1  0.4562990000000  0.4638560000000  0.5201960000000 1.0
C      1  0.5906490000000  0.5076660000000  0.5660590000000 1.0
C      1  0.4225380000000  0.4145220000000  0.5241940000000 1.0
C      1  0.4426650000000  0.5394970000000  0.5187330000000 1.0
C      1  0.4855460000000  0.4387380000000  0.4054650000000 1.0
C      1  0.4933310000000  0.4060740000000  0.4665850000000 1.0
C      1  0.4388500000000  0.4067890000000  0.5011560000000 1.0
C      1  0.4406460000000  0.4710170000000  0.5436750000000 1.0
C      1  0.4189700000000  0.4513720000000  0.5542470000000 1.0
C      1  0.4772540000000  0.6062090000000  0.5128070000000 1.0
C      1  0.4502430000000  0.5958250000000  0.5120100000000 1.0
C      1  0.4854460000000  0.4984230000000  0.6147740000000 1.0
C      1  0.5132130000000  0.5095880000000  0.5040220000000 1.0
C      1  0.5151060000000  0.5208830000000  0.4476260000000 1.0
C      1  0.4250270000000  0.4539280000000  0.4420770000000 1.0
C      1  0.4980340000000  0.4584700000000  0.3868180000000 1.0
C      1  0.5270640000000  0.4825590000000  0.5637010000000 1.0
C      1  0.5790200000000  0.4282890000000  0.5207210000000 1.0
C      1  0.5343870000000  0.5583950000000  0.4085070000000 1.0
C      1  0.4388660000000  0.4327200000000  0.4281400000000 1.0
C      1  0.5974700000000  0.4370310000000  0.5442530000000 1.0
C      1  0.5071260000000  0.5616290000000  0.3959660000000 1.0
C      1  0.5213340000000  0.4315130000000  0.5145380000000 1.0
C      1  0.6002020000000  0.4365150000000  0.5005190000000 1.0
C      1  0.4293070000000  0.4217520000000  0.4775640000000 1.0
C      1  0.4804850000000  0.4058550000000  0.5747140000000 1.0
C      1  0.4835360000000  0.5628920000000  0.5295650000000 1.0
C      1  0.5688320000000  0.5646720000000  0.5849390000000 1.0
C      1  0.3876780000000  0.5016880000000  0.5161500000000 1.0
C      1  0.5469640000000  0.4861600000000  0.4228150000000 1.0
C      1  0.5923560000000  0.4857030000000  0.4929200000000 1.0
C      1  0.4311290000000  0.4211790000000  0.5506840000000 1.0
C      1  0.5653460000000  0.5476620000000  0.4615680000000 1.0
C      1  0.4947440000000  0.4950930000000  0.5228550000000 1.0
C      1  0.5348670000000  0.5298970000000  0.4679490000000 1.0
C      1  0.4701230000000  0.6129410000000  0.4422180000000 1.0
C      1  0.5498440000000  0.6013630000000  0.4937480000000 1.0
C      1  0.5849880000000  0.5154310000000  0.5208170000000 1.0
C      1  0.4677960000000  0.5192520000000  0.5600210000000 1.0
C      1  0.4740920000000  0.5025070000000  0.5053370000000 1.0
C      1  0.6132830000000  0.4514140000000  0.5224370000000 1.0
C      1  0.5668360000000  0.4342840000000  0.4625420000000 1.0
C      1  0.5226150000000  0.5334610000000  0.5174950000000 1.0
C      1  0.4893170000000  0.3902140000000  0.4907270000000 1.0
C      1  0.6080610000000  0.5207310000000  0.4637510000000 1.0
C      1  0.5164850000000  0.4589150000000  0.5072160000000 1.0
C      1  0.5742570000000  0.4935850000000  0.4269770000000 1.0
C      1  0.4470730000000  0.5158100000000  0.4682580000000 1.0
C      1  0.5829510000000  0.4476570000000  0.5654610000000 1.0
C      1  0.4869240000000  0.5640880000000  0.5923450000000 1.0
C      1  0.4691270000000  0.3960080000000  0.5358230000000 1.0
C      1  0.5774220000000  0.5228870000000  0.4210780000000 1.0
C      1  0.3985900000000  0.4553010000000  0.5305740000000 1.0
C      1  0.4815680000000  0.4416050000000  0.5575480000000 1.0
C      1  0.5650290000000  0.4952820000000  0.4916500000000 1.0
C      1  0.5827740000000  0.5598290000000  0.4827010000000 1.0
C      1  0.4154030000000  0.5464560000000  0.4590050000000 1.0
C      1  0.5372550000000  0.5779890000000  0.4311830000000 1.0
C      1  0.3977790000000  0.5204620000000  0.4589940000000 1.0
C      1  0.4026570000000  0.4339720000000  0.5122010000000 1.0
C      1  0.5056310000000  0.5456360000000  0.5409620000000 1.0
C      1  0.4412370000000  0.4874320000000  0.5898370000000 1.0
C      1  0.4765500000000  0.5541820000000  0.4563540000000 1.0
C      1  0.4864530000000  0.4687960000000  0.5529090000000 1.0
C      1  0.3978190000000  0.5146980000000  0.5339890000000 1.0
C      1  0.4776390000000  0.4557260000000  0.4628390000000 1.0
C      1  0.5229790000000  0.5676800000000  0.5571020000000 1.0
C      1  0.4687160000000  0.5063700000000  0.4440960000000 1.0
C      1  0.4144060000000  0.5334440000000  0.4133770000000 1.0
C      1  0.5755600000000  0.5605540000000  0.5387430000000 1.0
C      1  0.3914560000000  0.4750000000000  0.5098000000000 1.0
C      1  0.3927930000000  0.5416570000000  0.5216810000000 1.0
C      1  0.4637290000000  0.5938710000000  0.4653170000000 1.0
C      1  0.5712580000000  0.4487100000000  0.4182600000000 1.0
C      1  0.5264650000000  0.5964770000000  0.4770180000000 1.0
C      1  0.4501880000000  0.5255700000000  0.5815660000000 1.0
C      1  0.5603740000000  0.4484100000000  0.5215000000000 1.0
C      1  0.4519180000000  0.4856520000000  0.5023620000000 1.0
C      1  0.4653840000000  0.5685630000000  0.4054150000000 1.0
END
