TITL C-4164234-2335-238 13.8787787681424 125000 -9477.20829179205 0 0 66 (C1) n - 1
REM
REM in /home/nfs/bkarasulu/CARBON/AIRSS/Generating-Clusters/ReaxFF-fromJPCA2015/Units_Real/with-SteepDescent/Only-C1/SD-CG/Try1-3A/FIRE-CG
REM
REM
REM
REM
REM
REM ./C.cell (11c1c37f851c82e70ff6c80c92926a4b)
REM
REM compiler GCC version 9.2.1 20190827 (Red Hat 9.2.1-1)
REM options -cpp -mtune=generic -march=x86-64 -g -O0 -fpre-include=/usr/include/finclude/math-vector-fortran.h
REM seed 788908464 574254266 -75097930 -6338491 617546484 -1832917873 2063943004 248817973 -1761019185 1170169689 -1209309510 1143903139 -2016471245 -968640877 -742659494 -1967315377 -11602709 687833065 -1918363104 -793235388 -1079306596 -533735167 -120049122 -1511966067 -1551512584 -1344742976 904646706 -1714213450 671066937 -399591606 -495407312 588303372 1421108788
REM
CELL 1.54180   50.00000   50.00000   50.00000   90.00000   90.00000   90.00000
LATT -1
SFAC C  
C      1  0.4241370000000  0.4819160000000  0.5038220000000 1.0
C      1  0.4573660000000  0.5344380000000  0.5294680000000 1.0
C      1  0.4131890000000  0.5423930000000  0.4783490000000 1.0
C      1  0.4776800000000  0.5887840000000  0.5014070000000 1.0
C      1  0.4930420000000  0.4664210000000  0.4376240000000 1.0
C      1  0.5005460000000  0.4488600000000  0.5625780000000 1.0
C      1  0.5356970000000  0.5153670000000  0.5667960000000 1.0
C      1  0.4374200000000  0.5180920000000  0.4373220000000 1.0
C      1  0.5171330000000  0.4294670000000  0.5511420000000 1.0
C      1  0.4305370000000  0.5008700000000  0.4564600000000 1.0
C      1  0.5227210000000  0.4893090000000  0.5183160000000 1.0
C      1  0.4767520000000  0.4863960000000  0.4496690000000 1.0
C      1  0.5101960000000  0.4888320000000  0.5855650000000 1.0
C      1  0.5124610000000  0.5189620000000  0.4870460000000 1.0
C      1  0.5367620000000  0.5152270000000  0.4452090000000 1.0
C      1  0.5501360000000  0.5492420000000  0.5279840000000 1.0
C      1  0.4671920000000  0.5116750000000  0.4361360000000 1.0
C      1  0.4990720000000  0.4767180000000  0.5100780000000 1.0
C      1  0.5294420000000  0.5031370000000  0.4168230000000 1.0
C      1  0.5611440000000  0.5305020000000  0.4535300000000 1.0
C      1  0.4726540000000  0.4897350000000  0.5525970000000 1.0
C      1  0.5170420000000  0.5771900000000  0.4937500000000 1.0
C      1  0.4658070000000  0.5058710000000  0.5290860000000 1.0
C      1  0.4651850000000  0.4825400000000  0.4782140000000 1.0
C      1  0.5429990000000  0.4778960000000  0.4785070000000 1.0
C      1  0.5750440000000  0.4811250000000  0.4534010000000 1.0
C      1  0.5075200000000  0.5248970000000  0.5656660000000 1.0
C      1  0.5356710000000  0.4447930000000  0.4529870000000 1.0
C      1  0.5374570000000  0.4890450000000  0.5810480000000 1.0
C      1  0.5405700000000  0.4448860000000  0.5558580000000 1.0
C      1  0.5722940000000  0.4765730000000  0.5213190000000 1.0
C      1  0.4888490000000  0.5032720000000  0.5737510000000 1.0
C      1  0.5539280000000  0.4660460000000  0.5676890000000 1.0
C      1  0.5544350000000  0.5466800000000  0.4771140000000 1.0
C      1  0.5521900000000  0.5350520000000  0.5042560000000 1.0
C      1  0.5593140000000  0.4584220000000  0.4607830000000 1.0
C      1  0.5433610000000  0.5532550000000  0.5519510000000 1.0
C      1  0.4417080000000  0.4365600000000  0.5254010000000 1.0
C      1  0.4149750000000  0.5065610000000  0.5168130000000 1.0
C      1  0.4692140000000  0.4357010000000  0.5385790000000 1.0
C      1  0.4951860000000  0.4243400000000  0.5284980000000 1.0
C      1  0.4742230000000  0.5484230000000  0.5096300000000 1.0
C      1  0.4681580000000  0.5060730000000  0.4995270000000 1.0
C      1  0.4756530000000  0.4651290000000  0.5008430000000 1.0
C      1  0.5052820000000  0.4303830000000  0.4764440000000 1.0
C      1  0.4281190000000  0.5304710000000  0.5271800000000 1.0
C      1  0.4838750000000  0.5285310000000  0.4906550000000 1.0
C      1  0.5329460000000  0.5664500000000  0.4715940000000 1.0
C      1  0.4456490000000  0.4631440000000  0.5126080000000 1.0
C      1  0.5008250000000  0.4263060000000  0.5016530000000 1.0
C      1  0.5079160000000  0.4412320000000  0.4503460000000 1.0
C      1  0.5760040000000  0.5066040000000  0.4508960000000 1.0
C      1  0.4756460000000  0.4603180000000  0.5556350000000 1.0
C      1  0.4994320000000  0.5536470000000  0.4320500000000 1.0
C      1  0.5146210000000  0.5601700000000  0.4488840000000 1.0
C      1  0.4085030000000  0.5332720000000  0.5055050000000 1.0
C      1  0.4328730000000  0.4814210000000  0.4759060000000 1.0
C      1  0.4227970000000  0.5419060000000  0.4505020000000 1.0
C      1  0.5279700000000  0.5185940000000  0.5117510000000 1.0
C      1  0.4948950000000  0.5720180000000  0.5139270000000 1.0
C      1  0.5699970000000  0.4715970000000  0.5438000000000 1.0
C      1  0.4843570000000  0.5340210000000  0.4339610000000 1.0
C      1  0.5093890000000  0.4840970000000  0.4242570000000 1.0
C      1  0.5475250000000  0.4747900000000  0.5078940000000 1.0
C      1  0.5290450000000  0.5438280000000  0.5734930000000 1.0
C      1  0.5262650000000  0.5005260000000  0.4684680000000 1.0
END
