TITL C-4164238-4211-490 -1.70233767137962 125000 -13540.0237325375 0 0 92 (C1) n - 1
REM
REM in /home/nfs/bkarasulu/CARBON/AIRSS/Generating-Clusters/ReaxFF-fromJPCA2015/Units_Real/with-SteepDescent/Only-C1/SD-CG/Try1-3A/FIRE-CG
REM
REM
REM
REM
REM
REM ./C.cell (11c1c37f851c82e70ff6c80c92926a4b)
REM
REM compiler GCC version 9.2.1 20190827 (Red Hat 9.2.1-1)
REM options -cpp -mtune=generic -march=x86-64 -g -O0 -fpre-include=/usr/include/finclude/math-vector-fortran.h
REM seed -1610269751 -946805534 1890465940 -724263157 1307361214 2028165669 -53136326 1332325365 -892833833 1714692340 1935291834 -1595734981 1011868859 -1808320021 423947412 1021099197 61150011 127379316 125927680 740011693 -474172178 -48677576 -89408501 -217362929 -1060585891 -1975843013 -1486290850 2142089033 -1891979327 1224314625 -729320593 488112394 1919982069
REM
CELL 1.54180   50.00000   50.00000   50.00000   90.00000   90.00000   90.00000
LATT -1
SFAC C  
C      1  0.4952220000000  0.5697710000000  0.4394380000000 1.0
C      1  0.4339630000000  0.5120970000000  0.4891630000000 1.0
C      1  0.5798590000000  0.5511510000000  0.4968360000000 1.0
C      1  0.4874990000000  0.5075440000000  0.5873620000000 1.0
C      1  0.4762050000000  0.4335370000000  0.4082030000000 1.0
C      1  0.5516940000000  0.4447320000000  0.5045630000000 1.0
C      1  0.4906380000000  0.5877790000000  0.4918330000000 1.0
C      1  0.4734200000000  0.4396430000000  0.4733170000000 1.0
C      1  0.5865910000000  0.5287270000000  0.4769870000000 1.0
C      1  0.5746190000000  0.5205110000000  0.4509730000000 1.0
C      1  0.5308940000000  0.4982870000000  0.5102970000000 1.0
C      1  0.4946110000000  0.4907170000000  0.4271850000000 1.0
C      1  0.5710250000000  0.4917460000000  0.5366610000000 1.0
C      1  0.4675670000000  0.4472870000000  0.5001720000000 1.0
C      1  0.5374460000000  0.4519150000000  0.5552330000000 1.0
C      1  0.5129440000000  0.4582640000000  0.5738530000000 1.0
C      1  0.4615420000000  0.5057240000000  0.4782920000000 1.0
C      1  0.5931420000000  0.5109210000000  0.4993090000000 1.0
C      1  0.5334440000000  0.4284760000000  0.4882150000000 1.0
C      1  0.5259060000000  0.4400300000000  0.4628460000000 1.0
C      1  0.4760170000000  0.4869020000000  0.4913140000000 1.0
C      1  0.4232230000000  0.4572610000000  0.5119110000000 1.0
C      1  0.5379470000000  0.4370350000000  0.5298150000000 1.0
C      1  0.4241180000000  0.5215050000000  0.4640640000000 1.0
C      1  0.5787250000000  0.4865830000000  0.5096570000000 1.0
C      1  0.4523470000000  0.4483080000000  0.4550240000000 1.0
C      1  0.5305290000000  0.5181410000000  0.4190430000000 1.0
C      1  0.5005640000000  0.4762430000000  0.4812160000000 1.0
C      1  0.4598030000000  0.4998470000000  0.4525250000000 1.0
C      1  0.4875580000000  0.5301070000000  0.5180460000000 1.0
C      1  0.4975750000000  0.4535280000000  0.4623460000000 1.0
C      1  0.4906720000000  0.4631520000000  0.4314720000000 1.0
C      1  0.4737320000000  0.5537840000000  0.5094190000000 1.0
C      1  0.4864740000000  0.5402900000000  0.4470210000000 1.0
C      1  0.5392670000000  0.5450990000000  0.4178020000000 1.0
C      1  0.4788650000000  0.5024290000000  0.5141300000000 1.0
C      1  0.4665860000000  0.4189600000000  0.5079820000000 1.0
C      1  0.5289660000000  0.5680870000000  0.5101860000000 1.0
C      1  0.5874830000000  0.5322920000000  0.5183330000000 1.0
C      1  0.4643390000000  0.4508710000000  0.4249860000000 1.0
C      1  0.4631220000000  0.5519170000000  0.4583930000000 1.0
C      1  0.5255280000000  0.4899610000000  0.4839770000000 1.0
C      1  0.4370470000000  0.5485960000000  0.4682340000000 1.0
C      1  0.5682160000000  0.4908020000000  0.4453600000000 1.0
C      1  0.4455010000000  0.5068600000000  0.4167180000000 1.0
C      1  0.4454020000000  0.5238770000000  0.5858290000000 1.0
C      1  0.5060350000000  0.4882840000000  0.5765990000000 1.0
C      1  0.5372650000000  0.5230320000000  0.5233020000000 1.0
C      1  0.4803360000000  0.4337920000000  0.5444170000000 1.0
C      1  0.5189990000000  0.5600300000000  0.4797180000000 1.0
C      1  0.5256430000000  0.4833800000000  0.5332470000000 1.0
C      1  0.5174290000000  0.5671200000000  0.4224110000000 1.0
C      1  0.5234630000000  0.5104750000000  0.4642500000000 1.0
C      1  0.4324330000000  0.4984990000000  0.4459670000000 1.0
C      1  0.4411280000000  0.4681210000000  0.4918790000000 1.0
C      1  0.5033030000000  0.5818360000000  0.4676560000000 1.0
C      1  0.4313020000000  0.4423910000000  0.5375030000000 1.0
C      1  0.4468980000000  0.4968610000000  0.5460590000000 1.0
C      1  0.4707780000000  0.5488100000000  0.5668600000000 1.0
C      1  0.4781800000000  0.4575510000000  0.5272020000000 1.0
C      1  0.4398220000000  0.4846040000000  0.5720150000000 1.0
C      1  0.4875470000000  0.5795310000000  0.5191220000000 1.0
C      1  0.4926890000000  0.4386950000000  0.5744610000000 1.0
C      1  0.4910590000000  0.5365030000000  0.5764850000000 1.0
C      1  0.4377510000000  0.5236600000000  0.5399440000000 1.0
C      1  0.4532050000000  0.4224120000000  0.5339160000000 1.0
C      1  0.5538970000000  0.5601590000000  0.5038920000000 1.0
C      1  0.5211500000000  0.4997000000000  0.4357930000000 1.0
C      1  0.4330790000000  0.5314540000000  0.5119640000000 1.0
C      1  0.5055020000000  0.4960430000000  0.5483450000000 1.0
C      1  0.5117510000000  0.5532880000000  0.5586660000000 1.0
C      1  0.5679620000000  0.4680950000000  0.4638240000000 1.0
C      1  0.5443970000000  0.4807270000000  0.4318990000000 1.0
C      1  0.4920370000000  0.4139000000000  0.5216540000000 1.0
C      1  0.5406950000000  0.5510950000000  0.5723280000000 1.0
C      1  0.5114420000000  0.5715190000000  0.5338850000000 1.0
C      1  0.4733540000000  0.5102840000000  0.4304170000000 1.0
C      1  0.5603820000000  0.5387390000000  0.4354270000000 1.0
C      1  0.5649060000000  0.5222700000000  0.5369460000000 1.0
C      1  0.5457930000000  0.4552420000000  0.4484320000000 1.0
C      1  0.5486650000000  0.4780810000000  0.5488280000000 1.0
C      1  0.4464510000000  0.5526090000000  0.4972420000000 1.0
C      1  0.5106910000000  0.5353170000000  0.4675820000000 1.0
C      1  0.4351440000000  0.4602710000000  0.5593960000000 1.0
C      1  0.4361030000000  0.4698990000000  0.4625370000000 1.0
C      1  0.4431510000000  0.5420750000000  0.5638590000000 1.0
C      1  0.4763340000000  0.4853820000000  0.5367470000000 1.0
C      1  0.5115050000000  0.5280290000000  0.5366960000000 1.0
C      1  0.5190710000000  0.4197420000000  0.5141660000000 1.0
C      1  0.4593350000000  0.5004230000000  0.5921540000000 1.0
C      1  0.5602000000000  0.4708300000000  0.4926210000000 1.0
C      1  0.5638990000000  0.5379420000000  0.5661480000000 1.0
END
