TITL C-4164244-2836-48 -2.03654448382473 125000 -10925.6774183766 0 0 75 (C1) n - 1
REM
REM in /home/nfs/bkarasulu/CARBON/AIRSS/Generating-Clusters/ReaxFF-fromJPCA2015/Units_Real/with-SteepDescent/Only-C1/SD-CG/Try1-3A/FIRE-CG
REM
REM
REM
REM
REM
REM ./C.cell (11c1c37f851c82e70ff6c80c92926a4b)
REM
REM compiler GCC version 9.2.1 20190827 (Red Hat 9.2.1-1)
REM options -cpp -mtune=generic -march=x86-64 -g -O0 -fpre-include=/usr/include/finclude/math-vector-fortran.h
REM seed -169327414 -541982231 762564557 1400325811 -722228819 -1584867690 1936743141 947611218 -1978426588 1681939567 -709458109 584464013 993841075 -539899325 173402062 956763600 167674690 1231317813 368281626 -1882360117 -637616171 -1637958649 -1394283992 818587169 802862402 -1820363057 214109229 1592952121 1473895304 -1552878160 -285366623 -672625016 836175370
REM
CELL 1.54180   50.00000   50.00000   50.00000   90.00000   90.00000   90.00000
LATT -1
SFAC C  
C      1  0.5251260000000  0.4621570000000  0.4274740000000 1.0
C      1  0.4752630000000  0.4292900000000  0.5204850000000 1.0
C      1  0.4822690000000  0.4206700000000  0.4911300000000 1.0
C      1  0.4958950000000  0.4433800000000  0.5335210000000 1.0
C      1  0.4441080000000  0.5388590000000  0.5389300000000 1.0
C      1  0.5571530000000  0.4684710000000  0.5572080000000 1.0
C      1  0.4302630000000  0.4844330000000  0.4660180000000 1.0
C      1  0.4981700000000  0.4749050000000  0.4212870000000 1.0
C      1  0.5204240000000  0.5414490000000  0.4489830000000 1.0
C      1  0.4583410000000  0.4590940000000  0.4815120000000 1.0
C      1  0.5084690000000  0.4140950000000  0.4751450000000 1.0
C      1  0.5708580000000  0.4928430000000  0.4729850000000 1.0
C      1  0.5005980000000  0.5222470000000  0.4404080000000 1.0
C      1  0.4306020000000  0.4402050000000  0.4880600000000 1.0
C      1  0.5153050000000  0.4851170000000  0.5542450000000 1.0
C      1  0.5807860000000  0.4690870000000  0.5116260000000 1.0
C      1  0.4755400000000  0.5417150000000  0.5043980000000 1.0
C      1  0.4995630000000  0.4798030000000  0.4840430000000 1.0
C      1  0.4708990000000  0.4955250000000  0.5714430000000 1.0
C      1  0.4456410000000  0.5319460000000  0.4450920000000 1.0
C      1  0.4384130000000  0.5065280000000  0.4547990000000 1.0
C      1  0.5115880000000  0.5008890000000  0.4202840000000 1.0
C      1  0.4334090000000  0.5617690000000  0.4892420000000 1.0
C      1  0.5325520000000  0.5072080000000  0.4851190000000 1.0
C      1  0.4555720000000  0.4503100000000  0.5277600000000 1.0
C      1  0.5307560000000  0.5294890000000  0.5887430000000 1.0
C      1  0.4783960000000  0.5246340000000  0.5748660000000 1.0
C      1  0.4183310000000  0.5004750000000  0.5160060000000 1.0
C      1  0.4449590000000  0.5577730000000  0.4628250000000 1.0
C      1  0.5472080000000  0.5476390000000  0.5229940000000 1.0
C      1  0.5625640000000  0.5409050000000  0.4963700000000 1.0
C      1  0.5461960000000  0.5052970000000  0.5868990000000 1.0
C      1  0.4294540000000  0.4547030000000  0.5123980000000 1.0
C      1  0.4766290000000  0.4796390000000  0.4413440000000 1.0
C      1  0.4565100000000  0.5627120000000  0.5046610000000 1.0
C      1  0.4915620000000  0.4950060000000  0.4602460000000 1.0
C      1  0.4880690000000  0.4780450000000  0.5541790000000 1.0
C      1  0.5376680000000  0.4439740000000  0.4463860000000 1.0
C      1  0.5451500000000  0.4489890000000  0.4776250000000 1.0
C      1  0.5720180000000  0.4977740000000  0.5159670000000 1.0
C      1  0.4735690000000  0.5401170000000  0.4382160000000 1.0
C      1  0.4986940000000  0.5758590000000  0.4714040000000 1.0
C      1  0.4463520000000  0.5018680000000  0.5593300000000 1.0
C      1  0.4744890000000  0.4850210000000  0.5007890000000 1.0
C      1  0.4525620000000  0.4677660000000  0.4553880000000 1.0
C      1  0.5186540000000  0.4587700000000  0.4903770000000 1.0
C      1  0.5456640000000  0.4993950000000  0.4595270000000 1.0
C      1  0.5720870000000  0.4631620000000  0.5377840000000 1.0
C      1  0.4723110000000  0.5629970000000  0.4549160000000 1.0
C      1  0.5179910000000  0.4560820000000  0.5197990000000 1.0
C      1  0.5286320000000  0.5647330000000  0.4598720000000 1.0
C      1  0.5369710000000  0.4811700000000  0.5725170000000 1.0
C      1  0.4339260000000  0.5570500000000  0.5180950000000 1.0
C      1  0.5032920000000  0.5493460000000  0.4986670000000 1.0
C      1  0.5425300000000  0.4994950000000  0.5124530000000 1.0
C      1  0.4206840000000  0.4803500000000  0.4967700000000 1.0
C      1  0.5356100000000  0.4901650000000  0.4328040000000 1.0
C      1  0.5072940000000  0.5220510000000  0.4874780000000 1.0
C      1  0.4972200000000  0.6004660000000  0.4788910000000 1.0
C      1  0.5003340000000  0.5483640000000  0.5476100000000 1.0
C      1  0.5489410000000  0.5526200000000  0.4750540000000 1.0
C      1  0.5697360000000  0.4661520000000  0.4848600000000 1.0
C      1  0.4280870000000  0.5138110000000  0.5421140000000 1.0
C      1  0.5769200000000  0.5149600000000  0.4929800000000 1.0
C      1  0.4747120000000  0.4380550000000  0.4729660000000 1.0
C      1  0.5578440000000  0.5305230000000  0.5763630000000 1.0
C      1  0.5062900000000  0.5356520000000  0.5736610000000 1.0
C      1  0.5181490000000  0.5517720000000  0.5245990000000 1.0
C      1  0.4803320000000  0.5149850000000  0.4942500000000 1.0
C      1  0.5588490000000  0.5404710000000  0.5485110000000 1.0
C      1  0.5355800000000  0.4195720000000  0.4874740000000 1.0
C      1  0.4709190000000  0.5406370000000  0.5512190000000 1.0
C      1  0.5246570000000  0.4831070000000  0.5288610000000 1.0
C      1  0.5163190000000  0.4291700000000  0.4523670000000 1.0
C      1  0.4715240000000  0.4752360000000  0.5293320000000 1.0
END
