TITL C-4164244-2836-726 13.7307783185158 125000 -13698.0594361324 0 0 93 (C1) n - 1
REM
REM in /home/nfs/bkarasulu/CARBON/AIRSS/Generating-Clusters/ReaxFF-fromJPCA2015/Units_Real/with-SteepDescent/Only-C1/SD-CG/Try1-3A/FIRE-CG
REM
REM
REM
REM
REM
REM ./C.cell (11c1c37f851c82e70ff6c80c92926a4b)
REM
REM compiler GCC version 9.2.1 20190827 (Red Hat 9.2.1-1)
REM options -cpp -mtune=generic -march=x86-64 -g -O0 -fpre-include=/usr/include/finclude/math-vector-fortran.h
REM seed -1912163459 -1151425810 1997869019 -594479920 1918235712 1089345631 -761076005 -197779195 -1640644957 -265320396 -1190915073 2038392907 -999859427 1774383683 -681540303 1636856607 736272993 79633209 -1754698435 1849797245 631291895 -49438523 1346547693 842172414 150916886 -1750902907 1806869754 -363588299 1486581227 -1390008654 -1247179016 -338369074 -923171270
REM
CELL 1.54180   50.00000   50.00000   50.00000   90.00000   90.00000   90.00000
LATT -1
SFAC C  
C      1  0.4891910000000  0.4240920000000  0.4672770000000 1.0
C      1  0.5022900000000  0.5127880000000  0.5357540000000 1.0
C      1  0.5859590000000  0.5030060000000  0.4744600000000 1.0
C      1  0.5839920000000  0.5209510000000  0.4981020000000 1.0
C      1  0.5164750000000  0.5026860000000  0.4976090000000 1.0
C      1  0.4484490000000  0.5608030000000  0.4475490000000 1.0
C      1  0.4322790000000  0.4661270000000  0.4571760000000 1.0
C      1  0.5827390000000  0.4756420000000  0.4856360000000 1.0
C      1  0.4635770000000  0.4175460000000  0.4802260000000 1.0
C      1  0.5506070000000  0.4531440000000  0.5497130000000 1.0
C      1  0.5230320000000  0.5639240000000  0.4343570000000 1.0
C      1  0.5378110000000  0.5093270000000  0.5158720000000 1.0
C      1  0.5732340000000  0.4599700000000  0.5334540000000 1.0
C      1  0.5378740000000  0.4956620000000  0.5830020000000 1.0
C      1  0.4878370000000  0.4879010000000  0.4195270000000 1.0
C      1  0.4928800000000  0.5167180000000  0.4568760000000 1.0
C      1  0.5069500000000  0.4568830000000  0.5730720000000 1.0
C      1  0.4013360000000  0.4870210000000  0.5041820000000 1.0
C      1  0.5332410000000  0.4681620000000  0.5719520000000 1.0
C      1  0.5365790000000  0.5400840000000  0.4277560000000 1.0
C      1  0.4382370000000  0.5468390000000  0.4927600000000 1.0
C      1  0.5485800000000  0.4980180000000  0.4493840000000 1.0
C      1  0.4941010000000  0.4643970000000  0.5224960000000 1.0
C      1  0.4398150000000  0.5350850000000  0.4403570000000 1.0
C      1  0.4813440000000  0.4707940000000  0.4431850000000 1.0
C      1  0.5118130000000  0.4481470000000  0.4282620000000 1.0
C      1  0.5642310000000  0.5434890000000  0.4954680000000 1.0
C      1  0.4481160000000  0.5163930000000  0.5608380000000 1.0
C      1  0.5529740000000  0.4348910000000  0.4928130000000 1.0
C      1  0.4794680000000  0.4770020000000  0.5649080000000 1.0
C      1  0.4380140000000  0.4337700000000  0.4848150000000 1.0
C      1  0.4752500000000  0.4807900000000  0.5097480000000 1.0
C      1  0.4753020000000  0.5571770000000  0.4346820000000 1.0
C      1  0.4766750000000  0.4153550000000  0.5061940000000 1.0
C      1  0.4121620000000  0.5033120000000  0.4799840000000 1.0
C      1  0.4385900000000  0.4435080000000  0.4596170000000 1.0
C      1  0.4661860000000  0.5360970000000  0.4925970000000 1.0
C      1  0.4467350000000  0.5687960000000  0.4763290000000 1.0
C      1  0.5870380000000  0.5051840000000  0.5229230000000 1.0
C      1  0.5489180000000  0.4905760000000  0.5340110000000 1.0
C      1  0.4831520000000  0.5287380000000  0.4309680000000 1.0
C      1  0.4484380000000  0.4763330000000  0.5143520000000 1.0
C      1  0.4706280000000  0.5730400000000  0.5204800000000 1.0
C      1  0.5448410000000  0.5424570000000  0.5702880000000 1.0
C      1  0.5521930000000  0.5361510000000  0.5207110000000 1.0
C      1  0.5163340000000  0.5431570000000  0.5809430000000 1.0
C      1  0.5074200000000  0.5408970000000  0.5393140000000 1.0
C      1  0.5623910000000  0.4577150000000  0.4756640000000 1.0
C      1  0.5464200000000  0.5561670000000  0.4486900000000 1.0
C      1  0.5357300000000  0.5769120000000  0.5323100000000 1.0
C      1  0.4921770000000  0.5362430000000  0.4783950000000 1.0
C      1  0.4480320000000  0.4715080000000  0.5446900000000 1.0
C      1  0.4387690000000  0.5088360000000  0.4331030000000 1.0
C      1  0.5404410000000  0.4709810000000  0.4601310000000 1.0
C      1  0.4685760000000  0.5267350000000  0.5177020000000 1.0
C      1  0.4576030000000  0.5380260000000  0.5418860000000 1.0
C      1  0.5151180000000  0.5569660000000  0.4874530000000 1.0
C      1  0.5042300000000  0.4285570000000  0.4942520000000 1.0
C      1  0.5178100000000  0.4897660000000  0.4196460000000 1.0
C      1  0.5706470000000  0.5034860000000  0.5480400000000 1.0
C      1  0.4318560000000  0.4969990000000  0.5465430000000 1.0
C      1  0.5101370000000  0.4327150000000  0.5562180000000 1.0
C      1  0.4867780000000  0.4390400000000  0.5402040000000 1.0
C      1  0.5879810000000  0.4762700000000  0.5148370000000 1.0
C      1  0.4417260000000  0.4423780000000  0.5365880000000 1.0
C      1  0.4975100000000  0.5719720000000  0.4465900000000 1.0
C      1  0.5323930000000  0.4665960000000  0.4299500000000 1.0
C      1  0.5366510000000  0.5117690000000  0.4289710000000 1.0
C      1  0.4194130000000  0.5248600000000  0.4979020000000 1.0
C      1  0.4979100000000  0.5566170000000  0.5616390000000 1.0
C      1  0.5572190000000  0.5161520000000  0.5717760000000 1.0
C      1  0.4157150000000  0.5059150000000  0.5226640000000 1.0
C      1  0.5190870000000  0.5158920000000  0.5878450000000 1.0
C      1  0.5508460000000  0.5553000000000  0.5436640000000 1.0
C      1  0.4669510000000  0.5006040000000  0.5782030000000 1.0
C      1  0.5148580000000  0.4790920000000  0.4811950000000 1.0
C      1  0.5685050000000  0.5102990000000  0.4542700000000 1.0
C      1  0.4662270000000  0.5082100000000  0.4194970000000 1.0
C      1  0.4346370000000  0.4508480000000  0.5100220000000 1.0
C      1  0.4893600000000  0.5061300000000  0.5102940000000 1.0
C      1  0.4892870000000  0.4405710000000  0.4429660000000 1.0
C      1  0.5329420000000  0.4240370000000  0.5102960000000 1.0
C      1  0.5001530000000  0.4869080000000  0.5462390000000 1.0
C      1  0.4720650000000  0.5634960000000  0.5476980000000 1.0
C      1  0.5437820000000  0.5526140000000  0.4770130000000 1.0
C      1  0.5078230000000  0.4573650000000  0.4987770000000 1.0
C      1  0.4250420000000  0.4921170000000  0.4548770000000 1.0
C      1  0.4705250000000  0.5786320000000  0.4915250000000 1.0
C      1  0.4959160000000  0.5775230000000  0.4753140000000 1.0
C      1  0.4641700000000  0.4231430000000  0.5314330000000 1.0
C      1  0.5157260000000  0.5619530000000  0.5194670000000 1.0
C      1  0.5337480000000  0.4308550000000  0.5385800000000 1.0
C      1  0.4922270000000  0.4883950000000  0.4629990000000 1.0
END
