TITL C-4164241-3639-500 5.34535294502037 125000 -7527.67309431181 0 0 52 (C1) n - 1
REM
REM in /home/nfs/bkarasulu/CARBON/AIRSS/Generating-Clusters/ReaxFF-fromJPCA2015/Units_Real/with-SteepDescent/Only-C1/SD-CG/Try1-3A/FIRE-CG
REM
REM
REM
REM
REM
REM ./C.cell (11c1c37f851c82e70ff6c80c92926a4b)
REM
REM compiler GCC version 9.2.1 20190827 (Red Hat 9.2.1-1)
REM options -cpp -mtune=generic -march=x86-64 -g -O0 -fpre-include=/usr/include/finclude/math-vector-fortran.h
REM seed 1970500399 -938850867 -1359334286 998387001 1780677740 789569059 1405007232 857293528 378672405 -874947721 -1459466298 -1101499759 1395843195 485138965 903262761 1593144551 -398688136 782511791 1165104381 72510527 -2007177803 315506319 466307520 -1836394292 -1746967428 -1693615171 1891931382 -2103605364 1040064742 -1620457885 -1482900882 4037337 -437280500
REM
CELL 1.54180   50.00000   50.00000   50.00000   90.00000   90.00000   90.00000
LATT -1
SFAC C  
C      1  0.4588130000000  0.5219670000000  0.4539950000000 1.0
C      1  0.5453890000000  0.4674760000000  0.4981280000000 1.0
C      1  0.5087290000000  0.5415070000000  0.4978080000000 1.0
C      1  0.4617420000000  0.5480740000000  0.4677180000000 1.0
C      1  0.5123180000000  0.5443600000000  0.4306430000000 1.0
C      1  0.4757450000000  0.5094750000000  0.4332910000000 1.0
C      1  0.5206520000000  0.5106150000000  0.5622720000000 1.0
C      1  0.4865810000000  0.5059440000000  0.5291640000000 1.0
C      1  0.4896130000000  0.5267030000000  0.4266530000000 1.0
C      1  0.4887450000000  0.5211850000000  0.5043000000000 1.0
C      1  0.5382040000000  0.4907520000000  0.5479340000000 1.0
C      1  0.4813680000000  0.5247530000000  0.5521650000000 1.0
C      1  0.5096470000000  0.4411100000000  0.4822700000000 1.0
C      1  0.4383320000000  0.4708050000000  0.5088880000000 1.0
C      1  0.5603190000000  0.5255500000000  0.4884960000000 1.0
C      1  0.4861580000000  0.4455610000000  0.4655890000000 1.0
C      1  0.5067130000000  0.4503780000000  0.5592480000000 1.0
C      1  0.4723510000000  0.4813310000000  0.5378510000000 1.0
C      1  0.5028440000000  0.5574480000000  0.5352650000000 1.0
C      1  0.4603370000000  0.5318220000000  0.4961110000000 1.0
C      1  0.5207750000000  0.4897890000000  0.4484630000000 1.0
C      1  0.4619740000000  0.4610830000000  0.4663180000000 1.0
C      1  0.5321480000000  0.4616760000000  0.5506590000000 1.0
C      1  0.5357720000000  0.4508980000000  0.4753580000000 1.0
C      1  0.5503470000000  0.5128740000000  0.5131630000000 1.0
C      1  0.5321450000000  0.5349950000000  0.4760740000000 1.0
C      1  0.5071460000000  0.5383840000000  0.5556730000000 1.0
C      1  0.4803060000000  0.5679910000000  0.5208880000000 1.0
C      1  0.5017910000000  0.4933050000000  0.5771680000000 1.0
C      1  0.4484270000000  0.5091530000000  0.4775820000000 1.0
C      1  0.4966570000000  0.5682890000000  0.4956810000000 1.0
C      1  0.4865590000000  0.4719510000000  0.5622170000000 1.0
C      1  0.5322700000000  0.4948980000000  0.4976010000000 1.0
C      1  0.4804960000000  0.5702800000000  0.4693550000000 1.0
C      1  0.4797430000000  0.4634710000000  0.4450930000000 1.0
C      1  0.4774560000000  0.4408010000000  0.5147760000000 1.0
C      1  0.5334330000000  0.5515530000000  0.4502930000000 1.0
C      1  0.5624650000000  0.4933360000000  0.5315720000000 1.0
C      1  0.4423910000000  0.5113110000000  0.5421260000000 1.0
C      1  0.4932830000000  0.4869460000000  0.4369900000000 1.0
C      1  0.4565330000000  0.5508130000000  0.5195230000000 1.0
C      1  0.5688050000000  0.5064290000000  0.4699150000000 1.0
C      1  0.5690410000000  0.4677640000000  0.5163960000000 1.0
C      1  0.5611680000000  0.4863870000000  0.4564780000000 1.0
C      1  0.5220030000000  0.5059940000000  0.4728950000000 1.0
C      1  0.4536130000000  0.5369230000000  0.5449660000000 1.0
C      1  0.4543560000000  0.4492900000000  0.5179420000000 1.0
C      1  0.4483670000000  0.4808570000000  0.4832370000000 1.0
C      1  0.5198390000000  0.4397760000000  0.5354530000000 1.0
C      1  0.5407030000000  0.4677290000000  0.4513970000000 1.0
C      1  0.5039250000000  0.4342630000000  0.5107880000000 1.0
C      1  0.4414660000000  0.4839760000000  0.5361720000000 1.0
END
