TITL C-4164245-3996-587 68.8378043433247 125000 -29222.9906422352 0 0 196 (C1) n - 1
REM
REM in /home/nfs/bkarasulu/CARBON/AIRSS/Generating-Clusters/ReaxFF-fromJPCA2015/Units_Real/with-SteepDescent/Only-C1/SD-CG/Try1-3A/FIRE-CG
REM
REM
REM
REM
REM
REM ./C.cell (11c1c37f851c82e70ff6c80c92926a4b)
REM
REM compiler GCC version 9.2.1 20190827 (Red Hat 9.2.1-1)
REM options -cpp -mtune=generic -march=x86-64 -g -O0 -fpre-include=/usr/include/finclude/math-vector-fortran.h
REM seed 403920886 -1243145308 985755233 -504869974 690334914 1332076295 -1029387145 -1996499457 1173792747 -518991780 -1206110998 -1278699257 1286203226 -1779353925 280577657 -1467194992 -673418503 -1481552050 1249204564 2082197483 496310731 -956493596 2059227318 -814670461 1944823423 -312237105 -2054072163 -1769505892 -651874461 -825158520 573253026 692847752 -1490745001
REM
CELL 1.54180   50.00000   50.00000   50.00000   90.00000   90.00000   90.00000
LATT -1
SFAC C  
C      1  0.4792460000000  0.5792220000000  0.5879470000000 1.0
C      1  0.5632650000000  0.5691720000000  0.5689490000000 1.0
C      1  0.5450510000000  0.3916780000000  0.5108120000000 1.0
C      1  0.6029220000000  0.4557440000000  0.5070980000000 1.0
C      1  0.4122350000000  0.4365880000000  0.4838940000000 1.0
C      1  0.4941440000000  0.5570650000000  0.5056100000000 1.0
C      1  0.4171410000000  0.4386270000000  0.4576750000000 1.0
C      1  0.3988460000000  0.5376810000000  0.5261210000000 1.0
C      1  0.5480700000000  0.5052970000000  0.4026170000000 1.0
C      1  0.5489710000000  0.4235530000000  0.5675680000000 1.0
C      1  0.4268050000000  0.4373150000000  0.4323190000000 1.0
C      1  0.5052820000000  0.4846980000000  0.4749820000000 1.0
C      1  0.4404190000000  0.4384280000000  0.5312900000000 1.0
C      1  0.5862800000000  0.5460680000000  0.5122320000000 1.0
C      1  0.4566740000000  0.5196030000000  0.4000230000000 1.0
C      1  0.4839980000000  0.4993330000000  0.5710440000000 1.0
C      1  0.5203080000000  0.5313750000000  0.5938880000000 1.0
C      1  0.5674790000000  0.5799680000000  0.4593080000000 1.0
C      1  0.4345150000000  0.5085960000000  0.4143520000000 1.0
C      1  0.5194450000000  0.5603240000000  0.4915760000000 1.0
C      1  0.4902270000000  0.4629290000000  0.6017370000000 1.0
C      1  0.4577940000000  0.5622320000000  0.6001950000000 1.0
C      1  0.4670180000000  0.4560730000000  0.3990000000000 1.0
C      1  0.5876740000000  0.4477000000000  0.4551180000000 1.0
C      1  0.4889760000000  0.3763040000000  0.5296370000000 1.0
C      1  0.5023280000000  0.5297100000000  0.3886790000000 1.0
C      1  0.5074150000000  0.5621580000000  0.4628850000000 1.0
C      1  0.4163450000000  0.5073360000000  0.5700970000000 1.0
C      1  0.4796300000000  0.5189560000000  0.6156590000000 1.0
C      1  0.4995330000000  0.5581870000000  0.3984020000000 1.0
C      1  0.4509910000000  0.4004800000000  0.4710800000000 1.0
C      1  0.5431450000000  0.5330270000000  0.5525640000000 1.0
C      1  0.4642140000000  0.4744640000000  0.6067520000000 1.0
C      1  0.6131890000000  0.4825450000000  0.5049930000000 1.0
C      1  0.4219290000000  0.5734730000000  0.5525420000000 1.0
C      1  0.5767950000000  0.5024250000000  0.4059440000000 1.0
C      1  0.5927610000000  0.4470370000000  0.5332800000000 1.0
C      1  0.4703230000000  0.4354630000000  0.4792260000000 1.0
C      1  0.3950670000000  0.5117710000000  0.4836050000000 1.0
C      1  0.3928960000000  0.4878110000000  0.5002970000000 1.0
C      1  0.4332710000000  0.4151090000000  0.5184490000000 1.0
C      1  0.4401660000000  0.5949690000000  0.5432840000000 1.0
C      1  0.5406300000000  0.4250260000000  0.5345700000000 1.0
C      1  0.4580930000000  0.6090220000000  0.4993060000000 1.0
C      1  0.5657450000000  0.4976090000000  0.5045050000000 1.0
C      1  0.5308640000000  0.4542210000000  0.3927160000000 1.0
C      1  0.4353320000000  0.4795320000000  0.4113980000000 1.0
C      1  0.5299470000000  0.5493840000000  0.5327810000000 1.0
C      1  0.4960230000000  0.4704640000000  0.4998230000000 1.0
C      1  0.4705670000000  0.4208830000000  0.4530670000000 1.0
C      1  0.4009790000000  0.4591010000000  0.5024520000000 1.0
C      1  0.6119140000000  0.5227230000000  0.4622820000000 1.0
C      1  0.5344720000000  0.4520300000000  0.4914710000000 1.0
C      1  0.4913880000000  0.5880080000000  0.4627270000000 1.0
C      1  0.4427970000000  0.5563010000000  0.4315100000000 1.0
C      1  0.5830220000000  0.4205640000000  0.5251180000000 1.0
C      1  0.5064310000000  0.5089590000000  0.6100940000000 1.0
C      1  0.4013780000000  0.4814760000000  0.4417780000000 1.0
C      1  0.4983200000000  0.5690280000000  0.6085150000000 1.0
C      1  0.4758740000000  0.5670690000000  0.4128930000000 1.0
C      1  0.5720240000000  0.5564090000000  0.4407450000000 1.0
C      1  0.5245360000000  0.5997060000000  0.4327700000000 1.0
C      1  0.5690130000000  0.5060350000000  0.4505950000000 1.0
C      1  0.5867750000000  0.5734820000000  0.5003870000000 1.0
C      1  0.4537760000000  0.5356840000000  0.5375720000000 1.0
C      1  0.5928500000000  0.4399220000000  0.4829870000000 1.0
C      1  0.5110430000000  0.4866170000000  0.5694110000000 1.0
C      1  0.5340150000000  0.5347780000000  0.5065990000000 1.0
C      1  0.4550580000000  0.4287720000000  0.4279700000000 1.0
C      1  0.4668140000000  0.5612330000000  0.4940970000000 1.0
C      1  0.5145670000000  0.3901350000000  0.5140960000000 1.0
C      1  0.4434450000000  0.5157800000000  0.4880910000000 1.0
C      1  0.4556460000000  0.5816880000000  0.4286840000000 1.0
C      1  0.4289520000000  0.4568230000000  0.5751430000000 1.0
C      1  0.4982100000000  0.4391170000000  0.5166670000000 1.0
C      1  0.4777440000000  0.5487840000000  0.6168920000000 1.0
C      1  0.4420450000000  0.5886640000000  0.4540340000000 1.0
C      1  0.4782350000000  0.4400470000000  0.5872530000000 1.0
C      1  0.4970750000000  0.4120510000000  0.4396050000000 1.0
C      1  0.4814650000000  0.5088780000000  0.3896800000000 1.0
C      1  0.5480030000000  0.5404280000000  0.4508190000000 1.0
C      1  0.4982820000000  0.4205100000000  0.4129190000000 1.0
C      1  0.5237940000000  0.5070720000000  0.5203800000000 1.0
C      1  0.5695880000000  0.5405180000000  0.5616210000000 1.0
C      1  0.4514180000000  0.5036560000000  0.5132350000000 1.0
C      1  0.4559760000000  0.5597380000000  0.5206870000000 1.0
C      1  0.4199430000000  0.5711810000000  0.4619500000000 1.0
C      1  0.4980520000000  0.4926170000000  0.5190700000000 1.0
C      1  0.4927310000000  0.5258970000000  0.5733100000000 1.0
C      1  0.5793800000000  0.4180270000000  0.4958690000000 1.0
C      1  0.5273360000000  0.5187230000000  0.4492340000000 1.0
C      1  0.5302210000000  0.5290790000000  0.3989130000000 1.0
C      1  0.6082850000000  0.5013120000000  0.5268050000000 1.0
C      1  0.6103860000000  0.5294620000000  0.5163280000000 1.0
C      1  0.5488600000000  0.4805200000000  0.5948400000000 1.0
C      1  0.5540110000000  0.4053210000000  0.4877300000000 1.0
C      1  0.4380020000000  0.5449080000000  0.5866990000000 1.0
C      1  0.5368350000000  0.4771790000000  0.4137100000000 1.0
C      1  0.5019950000000  0.4172660000000  0.5620350000000 1.0
C      1  0.5809590000000  0.5852790000000  0.5246670000000 1.0
C      1  0.4659850000000  0.5823880000000  0.5389820000000 1.0
C      1  0.5629260000000  0.5866790000000  0.4868760000000 1.0
C      1  0.4604170000000  0.4720280000000  0.4206010000000 1.0
C      1  0.5641010000000  0.4413980000000  0.4376970000000 1.0
C      1  0.5529280000000  0.4668830000000  0.4351830000000 1.0
C      1  0.4020660000000  0.5141790000000  0.5447170000000 1.0
C      1  0.5005540000000  0.5482980000000  0.5308730000000 1.0
C      1  0.5882080000000  0.4662930000000  0.5562130000000 1.0
C      1  0.6011480000000  0.4733400000000  0.4493570000000 1.0
C      1  0.4877310000000  0.4526620000000  0.5409740000000 1.0
C      1  0.4874260000000  0.5836210000000  0.5597930000000 1.0
C      1  0.6151440000000  0.5296400000000  0.4888140000000 1.0
C      1  0.3945180000000  0.4902160000000  0.5300520000000 1.0
C      1  0.5250790000000  0.5612370000000  0.6003690000000 1.0
C      1  0.4773850000000  0.5213240000000  0.4429880000000 1.0
C      1  0.5038050000000  0.5105750000000  0.4336690000000 1.0
C      1  0.4312350000000  0.4136790000000  0.4896060000000 1.0
C      1  0.5078570000000  0.4826780000000  0.4242310000000 1.0
C      1  0.5263500000000  0.5567900000000  0.4098600000000 1.0
C      1  0.4209840000000  0.4474030000000  0.5487880000000 1.0
C      1  0.5656460000000  0.5048330000000  0.5944780000000 1.0
C      1  0.5297840000000  0.4968420000000  0.4675140000000 1.0
C      1  0.5621870000000  0.4674770000000  0.5727970000000 1.0
C      1  0.4774230000000  0.4306030000000  0.5598610000000 1.0
C      1  0.4529700000000  0.4130330000000  0.5421780000000 1.0
C      1  0.4343930000000  0.6015680000000  0.5153020000000 1.0
C      1  0.5362280000000  0.5764990000000  0.5778570000000 1.0
C      1  0.5602270000000  0.4039950000000  0.5329810000000 1.0
C      1  0.4856580000000  0.6171640000000  0.5067080000000 1.0
C      1  0.5228740000000  0.4454830000000  0.4687320000000 1.0
C      1  0.4355140000000  0.5480060000000  0.5576780000000 1.0
C      1  0.5137370000000  0.4605030000000  0.5553800000000 1.0
C      1  0.5398660000000  0.4860030000000  0.5110780000000 1.0
C      1  0.4337300000000  0.5168300000000  0.5927640000000 1.0
C      1  0.4338090000000  0.4844460000000  0.5662780000000 1.0
C      1  0.5167360000000  0.5859700000000  0.5568310000000 1.0
C      1  0.4126910000000  0.4633350000000  0.4237630000000 1.0
C      1  0.5781270000000  0.4838230000000  0.4828790000000 1.0
C      1  0.5332460000000  0.5059200000000  0.5505110000000 1.0
C      1  0.5973220000000  0.5409830000000  0.4450510000000 1.0
C      1  0.5018320000000  0.4658930000000  0.4498840000000 1.0
C      1  0.5349050000000  0.5833190000000  0.5338870000000 1.0
C      1  0.4651010000000  0.4632820000000  0.4894490000000 1.0
C      1  0.5168200000000  0.4826730000000  0.6003440000000 1.0
C      1  0.4033380000000  0.5663420000000  0.5315020000000 1.0
C      1  0.5241450000000  0.4083750000000  0.4451950000000 1.0
C      1  0.5660360000000  0.5272400000000  0.4687710000000 1.0
C      1  0.5432490000000  0.4215130000000  0.4285120000000 1.0
C      1  0.5495600000000  0.5276980000000  0.5941740000000 1.0
C      1  0.4826900000000  0.4210620000000  0.5000520000000 1.0
C      1  0.5635220000000  0.5880760000000  0.5465770000000 1.0
C      1  0.4820160000000  0.5370440000000  0.5494560000000 1.0
C      1  0.5946820000000  0.4949610000000  0.5525620000000 1.0
C      1  0.4565950000000  0.5035040000000  0.6067200000000 1.0
C      1  0.6058370000000  0.4905690000000  0.4737170000000 1.0
C      1  0.4794260000000  0.5120100000000  0.5090170000000 1.0
C      1  0.4702310000000  0.3966430000000  0.5234420000000 1.0
C      1  0.4633040000000  0.5908610000000  0.4759930000000 1.0
C      1  0.5524260000000  0.4840080000000  0.5511050000000 1.0
C      1  0.4910390000000  0.5137720000000  0.4827090000000 1.0
C      1  0.4469050000000  0.5432660000000  0.4839510000000 1.0
C      1  0.5633120000000  0.5279290000000  0.4995340000000 1.0
C      1  0.4507960000000  0.4734410000000  0.5146630000000 1.0
C      1  0.5539040000000  0.4835070000000  0.4594740000000 1.0
C      1  0.5334250000000  0.5882860000000  0.5019800000000 1.0
C      1  0.4564940000000  0.4776120000000  0.4658910000000 1.0
C      1  0.5258590000000  0.4289650000000  0.4064320000000 1.0
C      1  0.4332080000000  0.5466090000000  0.4560050000000 1.0
C      1  0.4268700000000  0.5164760000000  0.4426310000000 1.0
C      1  0.5109980000000  0.4673570000000  0.3755950000000 1.0
C      1  0.4511440000000  0.4510890000000  0.5933330000000 1.0
C      1  0.3982680000000  0.5374890000000  0.4970210000000 1.0
C      1  0.5230320000000  0.4353420000000  0.5720190000000 1.0
C      1  0.5896090000000  0.4959270000000  0.4330220000000 1.0
C      1  0.5264780000000  0.5714300000000  0.4361010000000 1.0
C      1  0.4726300000000  0.4298210000000  0.4063540000000 1.0
C      1  0.4905520000000  0.4801310000000  0.3947530000000 1.0
C      1  0.4896440000000  0.5364240000000  0.4649680000000 1.0
C      1  0.4632390000000  0.5419290000000  0.4196350000000 1.0
C      1  0.4725370000000  0.4676070000000  0.4450550000000 1.0
C      1  0.4611140000000  0.4895170000000  0.5564970000000 1.0
C      1  0.5386440000000  0.4677110000000  0.5330560000000 1.0
C      1  0.5120750000000  0.4178960000000  0.5329580000000 1.0
C      1  0.4731190000000  0.3819280000000  0.4787750000000 1.0
C      1  0.4015170000000  0.4607740000000  0.5315010000000 1.0
C      1  0.5468130000000  0.4472950000000  0.5164380000000 1.0
C      1  0.5049810000000  0.6044810000000  0.4471180000000 1.0
C      1  0.4066000000000  0.5650820000000  0.4866460000000 1.0
C      1  0.5337180000000  0.4181740000000  0.4683070000000 1.0
C      1  0.4680800000000  0.4730500000000  0.5361940000000 1.0
C      1  0.5820880000000  0.5146880000000  0.5711950000000 1.0
C      1  0.4117220000000  0.5829150000000  0.5087480000000 1.0
C      1  0.5136600000000  0.6104070000000  0.5008430000000 1.0
C      1  0.4003990000000  0.5056390000000  0.4545620000000 1.0
C      1  0.4970900000000  0.3957020000000  0.4902760000000 1.0
C      1  0.4508020000000  0.5054420000000  0.4612970000000 1.0
END
