TITL C-4164244-2836-435 -5.85012357505913 125000 -6341.40042037535 0 0 43 (C1) n - 1
REM
REM in /home/nfs/bkarasulu/CARBON/AIRSS/Generating-Clusters/ReaxFF-fromJPCA2015/Units_Real/with-SteepDescent/Only-C1/SD-CG/Try1-3A/FIRE-CG
REM
REM
REM
REM
REM
REM ./C.cell (11c1c37f851c82e70ff6c80c92926a4b)
REM
REM compiler GCC version 9.2.1 20190827 (Red Hat 9.2.1-1)
REM options -cpp -mtune=generic -march=x86-64 -g -O0 -fpre-include=/usr/include/finclude/math-vector-fortran.h
REM seed -99912882 1855771567 -1118334576 -772884907 1177271337 704788562 -2140457224 -946758187 -1238444526 95918243 368229932 1380150415 -1191583376 1053902721 -108922572 -76200990 1862625781 2045830139 1529591382 -2073422408 -958330758 -291515918 -507308389 19529403 305525411 724145340 -1239227051 -166845543 -1164938733 -971865834 455229958 -2016467675 417407521
REM
CELL 1.54180   50.00000   50.00000   50.00000   90.00000   90.00000   90.00000
LATT -1
SFAC C  
C      1  0.5647500000000  0.5102370000000  0.4561030000000 1.0
C      1  0.5485850000000  0.4875860000000  0.4509370000000 1.0
C      1  0.4955970000000  0.5567100000000  0.4678400000000 1.0
C      1  0.5142190000000  0.5443190000000  0.5482880000000 1.0
C      1  0.5303540000000  0.4339610000000  0.4631150000000 1.0
C      1  0.5312180000000  0.5621610000000  0.5055410000000 1.0
C      1  0.4912120000000  0.5312230000000  0.4533910000000 1.0
C      1  0.4589640000000  0.5548190000000  0.5071950000000 1.0
C      1  0.5235860000000  0.4567390000000  0.5321940000000 1.0
C      1  0.5088340000000  0.5588480000000  0.5246280000000 1.0
C      1  0.4855930000000  0.5052050000000  0.5422770000000 1.0
C      1  0.5608160000000  0.5207120000000  0.5124240000000 1.0
C      1  0.5231080000000  0.5631990000000  0.4765790000000 1.0
C      1  0.4734610000000  0.4568820000000  0.5461700000000 1.0
C      1  0.5002710000000  0.4475000000000  0.5444280000000 1.0
C      1  0.4630970000000  0.5253870000000  0.4431780000000 1.0
C      1  0.4825640000000  0.5157350000000  0.5146640000000 1.0
C      1  0.5309710000000  0.5220470000000  0.5519540000000 1.0
C      1  0.5034060000000  0.5206590000000  0.5587510000000 1.0
C      1  0.4877720000000  0.4591210000000  0.4594720000000 1.0
C      1  0.5333750000000  0.4672380000000  0.4653600000000 1.0
C      1  0.4656890000000  0.4851150000000  0.5494960000000 1.0
C      1  0.4834230000000  0.5673170000000  0.5151180000000 1.0
C      1  0.5450750000000  0.4810850000000  0.4926380000000 1.0
C      1  0.4822140000000  0.5019570000000  0.4890240000000 1.0
C      1  0.4920960000000  0.4316760000000  0.4979180000000 1.0
C      1  0.5444720000000  0.5057850000000  0.5319450000000 1.0
C      1  0.5072390000000  0.4801000000000  0.4553470000000 1.0
C      1  0.4549480000000  0.5270180000000  0.5144000000000 1.0
C      1  0.5004580000000  0.5066320000000  0.4666720000000 1.0
C      1  0.4766790000000  0.5669230000000  0.4882780000000 1.0
C      1  0.4422870000000  0.5018380000000  0.5067320000000 1.0
C      1  0.5598330000000  0.5041520000000  0.4876590000000 1.0
C      1  0.4437520000000  0.5065110000000  0.4533440000000 1.0
C      1  0.5582640000000  0.5503220000000  0.5114450000000 1.0
C      1  0.4662140000000  0.4449700000000  0.4979790000000 1.0
C      1  0.4638800000000  0.4622040000000  0.4748560000000 1.0
C      1  0.5091110000000  0.4345180000000  0.5212730000000 1.0
C      1  0.5358040000000  0.4804070000000  0.5201050000000 1.0
C      1  0.4453110000000  0.4818300000000  0.5278890000000 1.0
C      1  0.5028280000000  0.4338640000000  0.4699470000000 1.0
C      1  0.4539990000000  0.4914670000000  0.4795530000000 1.0
C      1  0.4546680000000  0.4540220000000  0.5238920000000 1.0
END
