TITL C-4164245-3996-114 54.9728121433251 125000 -11175.138966543 0 0 76 (C1) n - 1
REM
REM in /home/nfs/bkarasulu/CARBON/AIRSS/Generating-Clusters/ReaxFF-fromJPCA2015/Units_Real/with-SteepDescent/Only-C1/SD-CG/Try1-3A/FIRE-CG
REM
REM
REM
REM
REM
REM ./C.cell (11c1c37f851c82e70ff6c80c92926a4b)
REM
REM compiler GCC version 9.2.1 20190827 (Red Hat 9.2.1-1)
REM options -cpp -mtune=generic -march=x86-64 -g -O0 -fpre-include=/usr/include/finclude/math-vector-fortran.h
REM seed -2038686300 460969223 -892205818 -312015722 -1282152326 306715017 -1004397588 2082283262 -432036164 1263089426 -847617839 1982923397 -401004545 217271443 -936785618 -284387093 517589744 -572371083 829238855 -1956272610 -1398222471 595647568 511949174 -1128907657 1525045095 2051801992 1529580654 -529015468 934338887 -787216691 889610889 -1300933999 -948037260
REM
CELL 1.54180   50.00000   50.00000   50.00000   90.00000   90.00000   90.00000
LATT -1
SFAC C  
C      1  0.5623520000000  0.5084800000000  0.5146990000000 1.0
C      1  0.4380130000000  0.4933870000000  0.4888640000000 1.0
C      1  0.4471860000000  0.4631940000000  0.4523250000000 1.0
C      1  0.5111820000000  0.5792330000000  0.4577580000000 1.0
C      1  0.4333040000000  0.4874850000000  0.4609170000000 1.0
C      1  0.4549070000000  0.4410840000000  0.5140310000000 1.0
C      1  0.4674840000000  0.4972420000000  0.4909750000000 1.0
C      1  0.5492760000000  0.5078930000000  0.4871850000000 1.0
C      1  0.4916170000000  0.5414130000000  0.4497190000000 1.0
C      1  0.5092580000000  0.4097640000000  0.4839780000000 1.0
C      1  0.4857790000000  0.4809800000000  0.4757730000000 1.0
C      1  0.5612010000000  0.4541520000000  0.4837040000000 1.0
C      1  0.5713640000000  0.5206750000000  0.4690440000000 1.0
C      1  0.5246830000000  0.5148710000000  0.5722020000000 1.0
C      1  0.5055830000000  0.5349250000000  0.4779880000000 1.0
C      1  0.4818680000000  0.5777260000000  0.4688610000000 1.0
C      1  0.4798040000000  0.4290090000000  0.4451350000000 1.0
C      1  0.5143590000000  0.4655750000000  0.4278790000000 1.0
C      1  0.4822080000000  0.5338010000000  0.5732040000000 1.0
C      1  0.5268350000000  0.5217770000000  0.4824610000000 1.0
C      1  0.5665950000000  0.4659380000000  0.5389290000000 1.0
C      1  0.4667480000000  0.5558390000000  0.4565720000000 1.0
C      1  0.5779500000000  0.5375000000000  0.4906190000000 1.0
C      1  0.5307900000000  0.4276320000000  0.4810690000000 1.0
C      1  0.5795040000000  0.4968380000000  0.4537670000000 1.0
C      1  0.4785900000000  0.5678440000000  0.4957230000000 1.0
C      1  0.5300610000000  0.5572890000000  0.5360910000000 1.0
C      1  0.4916130000000  0.5191570000000  0.4299940000000 1.0
C      1  0.5738120000000  0.4686710000000  0.4609760000000 1.0
C      1  0.5087350000000  0.4695220000000  0.4877790000000 1.0
C      1  0.4502830000000  0.4928670000000  0.5657640000000 1.0
C      1  0.5559910000000  0.5507500000000  0.5400980000000 1.0
C      1  0.4992630000000  0.4354570000000  0.5265620000000 1.0
C      1  0.4559920000000  0.4491380000000  0.5407990000000 1.0
C      1  0.5301710000000  0.4910900000000  0.5700440000000 1.0
C      1  0.5327470000000  0.4536910000000  0.4754950000000 1.0
C      1  0.4676900000000  0.5550300000000  0.5633170000000 1.0
C      1  0.5105300000000  0.4608850000000  0.5166270000000 1.0
C      1  0.4958650000000  0.5126770000000  0.5822370000000 1.0
C      1  0.4762750000000  0.4874670000000  0.5789270000000 1.0
C      1  0.5618910000000  0.4804190000000  0.4372320000000 1.0
C      1  0.4889850000000  0.4198670000000  0.5039490000000 1.0
C      1  0.4459400000000  0.5385650000000  0.4678070000000 1.0
C      1  0.5652450000000  0.5097250000000  0.5645780000000 1.0
C      1  0.4768740000000  0.5158120000000  0.5122670000000 1.0
C      1  0.4836120000000  0.4403970000000  0.5513510000000 1.0
C      1  0.5268460000000  0.5605320000000  0.4438950000000 1.0
C      1  0.4675000000000  0.5040180000000  0.4352290000000 1.0
C      1  0.4628440000000  0.4300500000000  0.4911900000000 1.0
C      1  0.5040430000000  0.5624400000000  0.5292060000000 1.0
C      1  0.5338370000000  0.4847740000000  0.4267370000000 1.0
C      1  0.4741300000000  0.4759160000000  0.4454550000000 1.0
C      1  0.5003720000000  0.4851790000000  0.5255180000000 1.0
C      1  0.4572160000000  0.4380890000000  0.4619650000000 1.0
C      1  0.4812660000000  0.5730330000000  0.5438520000000 1.0
C      1  0.4240280000000  0.5128700000000  0.5304470000000 1.0
C      1  0.4342060000000  0.5172170000000  0.5556500000000 1.0
C      1  0.4843360000000  0.4625470000000  0.5688140000000 1.0
C      1  0.4920710000000  0.5425270000000  0.5045180000000 1.0
C      1  0.5297320000000  0.5370220000000  0.4329950000000 1.0
C      1  0.4350790000000  0.5405180000000  0.4952340000000 1.0
C      1  0.4438190000000  0.5446090000000  0.5475760000000 1.0
C      1  0.5202740000000  0.5120140000000  0.4255680000000 1.0
C      1  0.4967590000000  0.4078850000000  0.4561950000000 1.0
C      1  0.4908480000000  0.4536610000000  0.4305900000000 1.0
C      1  0.5708340000000  0.4602150000000  0.5113300000000 1.0
C      1  0.5564120000000  0.4824530000000  0.5620390000000 1.0
C      1  0.4218920000000  0.5148320000000  0.5027020000000 1.0
C      1  0.4451640000000  0.5133690000000  0.4512520000000 1.0
C      1  0.4566110000000  0.4791180000000  0.5415490000000 1.0
C      1  0.4643360000000  0.5758520000000  0.5200370000000 1.0
C      1  0.5772180000000  0.4849490000000  0.5215380000000 1.0
C      1  0.5723750000000  0.5358460000000  0.5180720000000 1.0
C      1  0.4432160000000  0.5545850000000  0.5200330000000 1.0
C      1  0.4813570000000  0.4970250000000  0.5315610000000 1.0
C      1  0.5513620000000  0.5341190000000  0.5639780000000 1.0
END
