TITL C-4164243-3780-604 3.49393898479992 125000 -19522.4247260927 0 0 132 (C1) n - 1
REM
REM in /home/nfs/bkarasulu/CARBON/AIRSS/Generating-Clusters/ReaxFF-fromJPCA2015/Units_Real/with-SteepDescent/Only-C1/SD-CG/Try1-3A/FIRE-CG
REM
REM
REM
REM
REM
REM ./C.cell (11c1c37f851c82e70ff6c80c92926a4b)
REM
REM compiler GCC version 9.2.1 20190827 (Red Hat 9.2.1-1)
REM options -cpp -mtune=generic -march=x86-64 -g -O0 -fpre-include=/usr/include/finclude/math-vector-fortran.h
REM seed 88518374 1693998814 1623891581 -26376365 -1380235460 -422071125 356044342 -1398303010 976677562 -1531146809 -112560629 -229795995 -86249884 590664793 -1330297775 152497523 1503938762 540724561 -1217347805 -1595156290 -386901007 1244780737 -319834027 -1694751311 2068635812 -236431878 381526491 -578825651 -418865919 1224600720 2012592909 901939402 -659615967
REM
CELL 1.54180   50.00000   50.00000   50.00000   90.00000   90.00000   90.00000
LATT -1
SFAC C  
C      1  0.6121020000000  0.4893100000000  0.4871040000000 1.0
C      1  0.4992790000000  0.5082620000000  0.5057870000000 1.0
C      1  0.4202520000000  0.5483170000000  0.5274010000000 1.0
C      1  0.5103470000000  0.4280300000000  0.4497900000000 1.0
C      1  0.4240130000000  0.4381790000000  0.5252770000000 1.0
C      1  0.4552630000000  0.5210190000000  0.4118170000000 1.0
C      1  0.5238660000000  0.5700340000000  0.4329830000000 1.0
C      1  0.4548410000000  0.5850720000000  0.5322230000000 1.0
C      1  0.4136800000000  0.5699420000000  0.4659880000000 1.0
C      1  0.5652810000000  0.4377940000000  0.4605640000000 1.0
C      1  0.4889560000000  0.4506730000000  0.4121230000000 1.0
C      1  0.4648420000000  0.4762780000000  0.5364100000000 1.0
C      1  0.4017070000000  0.4716650000000  0.4947810000000 1.0
C      1  0.4895670000000  0.4483400000000  0.5051470000000 1.0
C      1  0.4933380000000  0.5919710000000  0.4689040000000 1.0
C      1  0.5014560000000  0.4183900000000  0.5056090000000 1.0
C      1  0.5654780000000  0.5120160000000  0.5740490000000 1.0
C      1  0.4811440000000  0.5958390000000  0.5351160000000 1.0
C      1  0.3990910000000  0.4996780000000  0.4888650000000 1.0
C      1  0.4036530000000  0.4813390000000  0.5417760000000 1.0
C      1  0.4025860000000  0.4618840000000  0.5226000000000 1.0
C      1  0.5836100000000  0.4614160000000  0.4538380000000 1.0
C      1  0.5914230000000  0.5579930000000  0.5080770000000 1.0
C      1  0.5622300000000  0.4320980000000  0.4897400000000 1.0
C      1  0.4658780000000  0.4383550000000  0.4223760000000 1.0
C      1  0.5164460000000  0.4786610000000  0.5405700000000 1.0
C      1  0.5269510000000  0.5283610000000  0.5840690000000 1.0
C      1  0.4562880000000  0.4153420000000  0.4920130000000 1.0
C      1  0.5497630000000  0.5366960000000  0.5673520000000 1.0
C      1  0.4980800000000  0.4829330000000  0.5869480000000 1.0
C      1  0.5490850000000  0.5131070000000  0.5139540000000 1.0
C      1  0.5664680000000  0.5647620000000  0.4948830000000 1.0
C      1  0.4882130000000  0.4638780000000  0.4801720000000 1.0
C      1  0.5945000000000  0.5123150000000  0.4775970000000 1.0
C      1  0.5026310000000  0.4522680000000  0.5831650000000 1.0
C      1  0.5822290000000  0.4319910000000  0.5107090000000 1.0
C      1  0.6023370000000  0.4519930000000  0.5030270000000 1.0
C      1  0.4521880000000  0.4534930000000  0.4436980000000 1.0
C      1  0.4441860000000  0.4899830000000  0.4899760000000 1.0
C      1  0.5921110000000  0.5011340000000  0.5640670000000 1.0
C      1  0.5465420000000  0.4863600000000  0.4678510000000 1.0
C      1  0.5468810000000  0.4890760000000  0.5798880000000 1.0
C      1  0.4471350000000  0.5555360000000  0.5401020000000 1.0
C      1  0.4043340000000  0.5437100000000  0.4766780000000 1.0
C      1  0.4608210000000  0.5598950000000  0.4967630000000 1.0
C      1  0.4901180000000  0.4632650000000  0.5297280000000 1.0
C      1  0.5241780000000  0.5013070000000  0.5922970000000 1.0
C      1  0.5809330000000  0.5450340000000  0.5350260000000 1.0
C      1  0.4994340000000  0.4709670000000  0.4285470000000 1.0
C      1  0.4164540000000  0.5135100000000  0.5071140000000 1.0
C      1  0.5387700000000  0.4687690000000  0.5596300000000 1.0
C      1  0.5257130000000  0.4315260000000  0.5218210000000 1.0
C      1  0.5001980000000  0.4943390000000  0.5590190000000 1.0
C      1  0.5493530000000  0.4606990000000  0.4277340000000 1.0
C      1  0.6040720000000  0.4639450000000  0.4752530000000 1.0
C      1  0.4265830000000  0.5854900000000  0.4856540000000 1.0
C      1  0.5422180000000  0.4385690000000  0.4442770000000 1.0
C      1  0.5742430000000  0.5166200000000  0.5286060000000 1.0
C      1  0.5306610000000  0.5236110000000  0.3934200000000 1.0
C      1  0.4271460000000  0.4603730000000  0.4832190000000 1.0
C      1  0.4523730000000  0.4478020000000  0.5723740000000 1.0
C      1  0.5517850000000  0.5722160000000  0.5191280000000 1.0
C      1  0.4955130000000  0.5332430000000  0.4348850000000 1.0
C      1  0.5249990000000  0.4958220000000  0.4497590000000 1.0
C      1  0.5714610000000  0.4791230000000  0.4342210000000 1.0
C      1  0.4852320000000  0.5650810000000  0.4815370000000 1.0
C      1  0.4317520000000  0.5242460000000  0.4262290000000 1.0
C      1  0.3994840000000  0.5170070000000  0.4652290000000 1.0
C      1  0.5935120000000  0.4948310000000  0.5347780000000 1.0
C      1  0.5046950000000  0.5570540000000  0.4182490000000 1.0
C      1  0.5213470000000  0.5861500000000  0.4767090000000 1.0
C      1  0.5666250000000  0.5344540000000  0.4447950000000 1.0
C      1  0.5378500000000  0.4288810000000  0.5476930000000 1.0
C      1  0.4294220000000  0.5171210000000  0.5689900000000 1.0
C      1  0.5290080000000  0.5366840000000  0.4761100000000 1.0
C      1  0.5052560000000  0.4861050000000  0.4894760000000 1.0
C      1  0.5143500000000  0.5216670000000  0.4538260000000 1.0
C      1  0.5563170000000  0.5546440000000  0.4642270000000 1.0
C      1  0.4947620000000  0.5670630000000  0.5738940000000 1.0
C      1  0.4516880000000  0.4835890000000  0.4418650000000 1.0
C      1  0.4937430000000  0.5213470000000  0.5539530000000 1.0
C      1  0.4762410000000  0.4146490000000  0.5626960000000 1.0
C      1  0.4356480000000  0.4352610000000  0.4989620000000 1.0
C      1  0.4240890000000  0.5406270000000  0.4989190000000 1.0
C      1  0.6089320000000  0.4785800000000  0.5144320000000 1.0
C      1  0.5105640000000  0.5569950000000  0.5239430000000 1.0
C      1  0.5655510000000  0.5065260000000  0.4750930000000 1.0
C      1  0.5675250000000  0.5103640000000  0.4291000000000 1.0
C      1  0.4560490000000  0.4953790000000  0.5157490000000 1.0
C      1  0.5322440000000  0.4732080000000  0.4895620000000 1.0
C      1  0.5043970000000  0.5373250000000  0.3946960000000 1.0
C      1  0.4497970000000  0.5296750000000  0.4509790000000 1.0
C      1  0.5034030000000  0.4117860000000  0.4748650000000 1.0
C      1  0.4557150000000  0.4768250000000  0.5653110000000 1.0
C      1  0.5578190000000  0.5564800000000  0.5463910000000 1.0
C      1  0.4398800000000  0.5568260000000  0.4569410000000 1.0
C      1  0.5457290000000  0.5045740000000  0.4100710000000 1.0
C      1  0.5693440000000  0.4284650000000  0.5390260000000 1.0
C      1  0.4797420000000  0.4351370000000  0.5809020000000 1.0
C      1  0.4103000000000  0.5078460000000  0.4395780000000 1.0
C      1  0.4770870000000  0.4154720000000  0.4720100000000 1.0
C      1  0.4834660000000  0.5209490000000  0.4100880000000 1.0
C      1  0.5395000000000  0.5782700000000  0.4534810000000 1.0
C      1  0.4956080000000  0.5379300000000  0.5808090000000 1.0
C      1  0.4995670000000  0.5745740000000  0.5453540000000 1.0
C      1  0.4384190000000  0.4410350000000  0.5491640000000 1.0
C      1  0.5225540000000  0.5084000000000  0.5234530000000 1.0
C      1  0.4753590000000  0.5165480000000  0.5183530000000 1.0
C      1  0.5264660000000  0.4823390000000  0.4231500000000 1.0
C      1  0.4063180000000  0.5236770000000  0.5322130000000 1.0
C      1  0.5123750000000  0.5590760000000  0.4938420000000 1.0
C      1  0.4712810000000  0.3958890000000  0.5408530000000 1.0
C      1  0.4060920000000  0.5058200000000  0.5565570000000 1.0
C      1  0.5489180000000  0.5222610000000  0.4892040000000 1.0
C      1  0.4658840000000  0.5223660000000  0.5854230000000 1.0
C      1  0.5316280000000  0.5941830000000  0.5161500000000 1.0
C      1  0.4214860000000  0.4810670000000  0.4376290000000 1.0
C      1  0.5048790000000  0.6066310000000  0.5186250000000 1.0
C      1  0.4531700000000  0.5016570000000  0.4651570000000 1.0
C      1  0.4477030000000  0.5874840000000  0.5039260000000 1.0
C      1  0.4242080000000  0.4556060000000  0.4526310000000 1.0
C      1  0.5280690000000  0.4443490000000  0.5713730000000 1.0
C      1  0.4964990000000  0.4558020000000  0.4535660000000 1.0
C      1  0.4683720000000  0.4938240000000  0.5854170000000 1.0
C      1  0.5965160000000  0.5367110000000  0.4908540000000 1.0
C      1  0.4647740000000  0.5428140000000  0.5194840000000 1.0
C      1  0.4920430000000  0.4262640000000  0.4243350000000 1.0
C      1  0.4468940000000  0.5361530000000  0.5684530000000 1.0
C      1  0.5912000000000  0.4256890000000  0.5509270000000 1.0
C      1  0.4752480000000  0.4035770000000  0.5117870000000 1.0
C      1  0.5135770000000  0.5323440000000  0.5365980000000 1.0
C      1  0.5395550000000  0.4471660000000  0.5008150000000 1.0
END
