TITL C-4164247-2821-440 -2.65276614919743 125000 -21671.2823392938 0 0 146 (C1) n - 1
REM
REM in /home/nfs/bkarasulu/CARBON/AIRSS/Generating-Clusters/ReaxFF-fromJPCA2015/Units_Real/with-SteepDescent/Only-C1/SD-CG/Try1-3A/FIRE-CG
REM
REM
REM
REM
REM
REM ./C.cell (11c1c37f851c82e70ff6c80c92926a4b)
REM
REM compiler GCC version 9.2.1 20190827 (Red Hat 9.2.1-1)
REM options -cpp -mtune=generic -march=x86-64 -g -O0 -fpre-include=/usr/include/finclude/math-vector-fortran.h
REM seed 172926279 882043863 -1682864225 -974155638 -1734224031 802032371 -1755174842 -2066887034 -240108350 530949039 925359972 -492088663 -1834894952 670025801 1912520770 -915432443 538480089 -790361602 1323246669 647196562 -1964858957 -34205557 -280891589 840934134 560867544 -356898163 1635507648 708628393 -519467864 -1836138662 -1949801662 1248935701 -133370374
REM
CELL 1.54180   50.00000   50.00000   50.00000   90.00000   90.00000   90.00000
LATT -1
SFAC C  
C      1  0.4050650000000  0.5522550000000  0.4937310000000 1.0
C      1  0.5429360000000  0.4490410000000  0.4500340000000 1.0
C      1  0.4117540000000  0.5411310000000  0.4487080000000 1.0
C      1  0.5818540000000  0.4334730000000  0.5309330000000 1.0
C      1  0.5166900000000  0.4281520000000  0.5531720000000 1.0
C      1  0.4740140000000  0.5695510000000  0.5705520000000 1.0
C      1  0.4753890000000  0.4319140000000  0.5481350000000 1.0
C      1  0.4988370000000  0.5313080000000  0.4560290000000 1.0
C      1  0.5401030000000  0.4712740000000  0.5900820000000 1.0
C      1  0.5004370000000  0.5125530000000  0.4188010000000 1.0
C      1  0.5822390000000  0.4769530000000  0.5674240000000 1.0
C      1  0.5669120000000  0.4149350000000  0.5152550000000 1.0
C      1  0.4960070000000  0.4252350000000  0.4241290000000 1.0
C      1  0.5119150000000  0.5700250000000  0.4846620000000 1.0
C      1  0.4395730000000  0.5044450000000  0.5099950000000 1.0
C      1  0.5047960000000  0.4417350000000  0.5078000000000 1.0
C      1  0.5518390000000  0.5840240000000  0.4715470000000 1.0
C      1  0.4296430000000  0.4596420000000  0.4437890000000 1.0
C      1  0.5537930000000  0.5516690000000  0.5131440000000 1.0
C      1  0.4969910000000  0.4828520000000  0.5734550000000 1.0
C      1  0.5199780000000  0.4504310000000  0.5924710000000 1.0
C      1  0.4496510000000  0.5083910000000  0.4545020000000 1.0
C      1  0.5067560000000  0.5843960000000  0.4427790000000 1.0
C      1  0.5682110000000  0.5257220000000  0.5226010000000 1.0
C      1  0.4917380000000  0.4587550000000  0.5883890000000 1.0
C      1  0.4467970000000  0.4331980000000  0.5406710000000 1.0
C      1  0.4733680000000  0.4757430000000  0.5252560000000 1.0
C      1  0.4248680000000  0.5447810000000  0.5640600000000 1.0
C      1  0.4961840000000  0.5242740000000  0.5938140000000 1.0
C      1  0.4509360000000  0.5019760000000  0.5809280000000 1.0
C      1  0.5756200000000  0.5291740000000  0.4614870000000 1.0
C      1  0.6027990000000  0.5197760000000  0.4727390000000 1.0
C      1  0.4500730000000  0.5144700000000  0.4115800000000 1.0
C      1  0.5353250000000  0.4078080000000  0.5574080000000 1.0
C      1  0.4860830000000  0.4499190000000  0.5281180000000 1.0
C      1  0.5004330000000  0.5050780000000  0.4982100000000 1.0
C      1  0.4691190000000  0.5924320000000  0.5368270000000 1.0
C      1  0.5800540000000  0.5307290000000  0.5684800000000 1.0
C      1  0.5542600000000  0.5961900000000  0.4988630000000 1.0
C      1  0.6015090000000  0.5021480000000  0.4970360000000 1.0
C      1  0.4693320000000  0.4441690000000  0.5745130000000 1.0
C      1  0.4096120000000  0.4960510000000  0.4501870000000 1.0
C      1  0.5220750000000  0.5522490000000  0.5060950000000 1.0
C      1  0.5286860000000  0.5352120000000  0.4526180000000 1.0
C      1  0.4351900000000  0.4816670000000  0.5666660000000 1.0
C      1  0.5448630000000  0.4795870000000  0.5388980000000 1.0
C      1  0.5271230000000  0.4340350000000  0.5253090000000 1.0
C      1  0.5721610000000  0.5359750000000  0.4317610000000 1.0
C      1  0.4780540000000  0.5108410000000  0.4572170000000 1.0
C      1  0.4942500000000  0.4632720000000  0.4678880000000 1.0
C      1  0.5182620000000  0.5921320000000  0.5378160000000 1.0
C      1  0.5155030000000  0.4619300000000  0.4888840000000 1.0
C      1  0.4887650000000  0.4749260000000  0.4007070000000 1.0
C      1  0.4343840000000  0.4837960000000  0.4597160000000 1.0
C      1  0.4978850000000  0.5371990000000  0.5054680000000 1.0
C      1  0.5453800000000  0.5915740000000  0.5272630000000 1.0
C      1  0.3979880000000  0.5324920000000  0.4730600000000 1.0
C      1  0.5544620000000  0.5007160000000  0.5187320000000 1.0
C      1  0.4520650000000  0.5635710000000  0.4457140000000 1.0
C      1  0.4923030000000  0.4982450000000  0.5248210000000 1.0
C      1  0.5710380000000  0.5038880000000  0.5747580000000 1.0
C      1  0.4436380000000  0.4536160000000  0.5638040000000 1.0
C      1  0.4252220000000  0.5657340000000  0.4541100000000 1.0
C      1  0.3954900000000  0.5034530000000  0.4745910000000 1.0
C      1  0.5620330000000  0.4787170000000  0.4176930000000 1.0
C      1  0.5915560000000  0.4560700000000  0.5469260000000 1.0
C      1  0.4729650000000  0.5429270000000  0.5275670000000 1.0
C      1  0.4902250000000  0.5508490000000  0.4748160000000 1.0
C      1  0.5986190000000  0.5215430000000  0.5492270000000 1.0
C      1  0.4679670000000  0.5674500000000  0.4674600000000 1.0
C      1  0.5129830000000  0.4674760000000  0.4422670000000 1.0
C      1  0.4412280000000  0.5859340000000  0.5278870000000 1.0
C      1  0.5452100000000  0.4592690000000  0.5180510000000 1.0
C      1  0.4669060000000  0.4222880000000  0.4248920000000 1.0
C      1  0.5593730000000  0.5685890000000  0.5383200000000 1.0
C      1  0.4646460000000  0.5897670000000  0.4854540000000 1.0
C      1  0.5261960000000  0.4239190000000  0.5802140000000 1.0
C      1  0.5292820000000  0.5693100000000  0.4583350000000 1.0
C      1  0.4803150000000  0.4998080000000  0.5900290000000 1.0
C      1  0.5012020000000  0.4540560000000  0.4182120000000 1.0
C      1  0.4900900000000  0.5407640000000  0.4136280000000 1.0
C      1  0.5637480000000  0.4535640000000  0.4310170000000 1.0
C      1  0.5240280000000  0.5279380000000  0.5885810000000 1.0
C      1  0.4387770000000  0.5886520000000  0.4989580000000 1.0
C      1  0.5369000000000  0.4213400000000  0.4483100000000 1.0
C      1  0.4114760000000  0.4602610000000  0.4958270000000 1.0
C      1  0.4664500000000  0.4073380000000  0.5052820000000 1.0
C      1  0.4867090000000  0.3881000000000  0.5134800000000 1.0
C      1  0.5563620000000  0.4646280000000  0.5670410000000 1.0
C      1  0.5450490000000  0.5020190000000  0.4911100000000 1.0
C      1  0.5496970000000  0.5230610000000  0.4712870000000 1.0
C      1  0.4595420000000  0.4848500000000  0.5013170000000 1.0
C      1  0.4725380000000  0.5673560000000  0.5440740000000 1.0
C      1  0.4999000000000  0.6059040000000  0.4596000000000 1.0
C      1  0.5667590000000  0.5713850000000  0.4923860000000 1.0
C      1  0.4138490000000  0.4930580000000  0.5213870000000 1.0
C      1  0.5842770000000  0.4718550000000  0.4333770000000 1.0
C      1  0.4772810000000  0.4402720000000  0.4694280000000 1.0
C      1  0.5445570000000  0.5273310000000  0.4262420000000 1.0
C      1  0.4438740000000  0.4239160000000  0.5132370000000 1.0
C      1  0.4457790000000  0.5298120000000  0.5780120000000 1.0
C      1  0.5878800000000  0.4784490000000  0.4878790000000 1.0
C      1  0.4448170000000  0.5313620000000  0.5178300000000 1.0
C      1  0.4925910000000  0.5961440000000  0.4930130000000 1.0
C      1  0.5393180000000  0.4057260000000  0.5267850000000 1.0
C      1  0.4193420000000  0.5453860000000  0.5191090000000 1.0
C      1  0.4946960000000  0.5988260000000  0.5224480000000 1.0
C      1  0.5054430000000  0.3815990000000  0.4896820000000 1.0
C      1  0.4966220000000  0.5868340000000  0.5828070000000 1.0
C      1  0.5592420000000  0.5532930000000  0.5629150000000 1.0
C      1  0.4793470000000  0.4904730000000  0.4795080000000 1.0
C      1  0.4195780000000  0.5740080000000  0.4819170000000 1.0
C      1  0.4576410000000  0.4264300000000  0.4531050000000 1.0
C      1  0.4269090000000  0.5186070000000  0.4358370000000 1.0
C      1  0.5684660000000  0.4588940000000  0.4993030000000 1.0
C      1  0.5158360000000  0.3871460000000  0.5156240000000 1.0
C      1  0.4125420000000  0.4933620000000  0.5511350000000 1.0
C      1  0.5057680000000  0.5122600000000  0.5452530000000 1.0
C      1  0.5216540000000  0.4893000000000  0.4916300000000 1.0
C      1  0.4421410000000  0.4638610000000  0.4166030000000 1.0
C      1  0.4843100000000  0.5285950000000  0.5504940000000 1.0
C      1  0.5091140000000  0.4950810000000  0.3975840000000 1.0
C      1  0.5214660000000  0.4933560000000  0.5602100000000 1.0
C      1  0.5186930000000  0.5781340000000  0.5656360000000 1.0
C      1  0.5334360000000  0.5523740000000  0.5749360000000 1.0
C      1  0.4620750000000  0.4455260000000  0.4089230000000 1.0
C      1  0.4254630000000  0.5646570000000  0.5403550000000 1.0
C      1  0.4263310000000  0.4374210000000  0.4911130000000 1.0
C      1  0.4894210000000  0.5676500000000  0.4226080000000 1.0
C      1  0.4756780000000  0.5407650000000  0.5769520000000 1.0
C      1  0.5000550000000  0.4007650000000  0.4692020000000 1.0
C      1  0.5187730000000  0.4964220000000  0.4372570000000 1.0
C      1  0.4871860000000  0.4213190000000  0.4870250000000 1.0
C      1  0.5116090000000  0.4105150000000  0.4445430000000 1.0
C      1  0.5981530000000  0.4785120000000  0.4590710000000 1.0
C      1  0.3973470000000  0.4844020000000  0.4982790000000 1.0
C      1  0.4317690000000  0.4360840000000  0.4614830000000 1.0
C      1  0.5976260000000  0.5203780000000  0.5213180000000 1.0
C      1  0.4640070000000  0.5523000000000  0.4221170000000 1.0
C      1  0.5593130000000  0.4283310000000  0.4624570000000 1.0
C      1  0.5398820000000  0.4984130000000  0.4158430000000 1.0
C      1  0.6158250000000  0.5007390000000  0.4564730000000 1.0
C      1  0.5688560000000  0.4304000000000  0.4905740000000 1.0
C      1  0.5413670000000  0.5019120000000  0.5848390000000 1.0
C      1  0.4070990000000  0.5209520000000  0.5616880000000 1.0
C      1  0.4586900000000  0.4877750000000  0.4075080000000 1.0
END
