TITL C-4164238-4211-254 3.79577610758485 125000 -25015.123085892 0 0 165 (C1) n - 1
REM
REM in /home/nfs/bkarasulu/CARBON/AIRSS/Generating-Clusters/ReaxFF-fromJPCA2015/Units_Real/with-SteepDescent/Only-C1/SD-CG/Try1-3A/FIRE-CG
REM
REM
REM
REM
REM
REM ./C.cell (11c1c37f851c82e70ff6c80c92926a4b)
REM
REM compiler GCC version 9.2.1 20190827 (Red Hat 9.2.1-1)
REM options -cpp -mtune=generic -march=x86-64 -g -O0 -fpre-include=/usr/include/finclude/math-vector-fortran.h
REM seed 523976511 -420643432 1295157611 1405168011 1647743201 529714921 -260813988 1527291975 893825741 -1239342946 212815120 -999137748 492011432 -343978443 -123696368 -673275827 -671430164 1746533907 -967817123 -1008343544 1589818376 -1416093984 -561768856 -131255768 -1767336298 818119784 1076792117 1036429377 -1955670503 2077321938 514202999 2083401781 -971268090
REM
CELL 1.54180   50.00000   50.00000   50.00000   90.00000   90.00000   90.00000
LATT -1
SFAC C  
C      1  0.4422840000000  0.4569150000000  0.5356740000000 1.0
C      1  0.4486720000000  0.4859220000000  0.5928560000000 1.0
C      1  0.4994980000000  0.4413160000000  0.6100480000000 1.0
C      1  0.5810720000000  0.5220310000000  0.5466470000000 1.0
C      1  0.5247710000000  0.4786150000000  0.3953380000000 1.0
C      1  0.6084770000000  0.5020110000000  0.5074350000000 1.0
C      1  0.4270320000000  0.4508590000000  0.5623940000000 1.0
C      1  0.4049620000000  0.5071020000000  0.4736710000000 1.0
C      1  0.4291780000000  0.4981700000000  0.4214720000000 1.0
C      1  0.4490860000000  0.5667840000000  0.5708680000000 1.0
C      1  0.4526010000000  0.5725060000000  0.5213880000000 1.0
C      1  0.4553720000000  0.4327920000000  0.5177090000000 1.0
C      1  0.4822490000000  0.4450110000000  0.5866920000000 1.0
C      1  0.5412600000000  0.4805890000000  0.5187560000000 1.0
C      1  0.5160140000000  0.5963590000000  0.4989160000000 1.0
C      1  0.4628750000000  0.5116450000000  0.3915880000000 1.0
C      1  0.5443940000000  0.4803610000000  0.4771360000000 1.0
C      1  0.5753330000000  0.5770990000000  0.5634070000000 1.0
C      1  0.4382450000000  0.4261460000000  0.5638390000000 1.0
C      1  0.5312600000000  0.4627870000000  0.4582030000000 1.0
C      1  0.4533250000000  0.5793310000000  0.4582340000000 1.0
C      1  0.5334160000000  0.5471410000000  0.5450770000000 1.0
C      1  0.5633750000000  0.4255440000000  0.4839510000000 1.0
C      1  0.4265720000000  0.5494620000000  0.5635570000000 1.0
C      1  0.4136000000000  0.5358120000000  0.4423340000000 1.0
C      1  0.4420090000000  0.5215690000000  0.4105650000000 1.0
C      1  0.3955450000000  0.5004200000000  0.5426430000000 1.0
C      1  0.6027520000000  0.4732750000000  0.5097390000000 1.0
C      1  0.5832050000000  0.4858150000000  0.4424060000000 1.0
C      1  0.5657360000000  0.4210360000000  0.5126450000000 1.0
C      1  0.4867370000000  0.5899020000000  0.5476070000000 1.0
C      1  0.5613860000000  0.5418620000000  0.5500960000000 1.0
C      1  0.5463950000000  0.4555790000000  0.4341670000000 1.0
C      1  0.4330890000000  0.5197530000000  0.5695040000000 1.0
C      1  0.5001720000000  0.4893730000000  0.5803900000000 1.0
C      1  0.4972540000000  0.4327960000000  0.5630280000000 1.0
C      1  0.3980100000000  0.5103760000000  0.5146150000000 1.0
C      1  0.4828600000000  0.4061820000000  0.5537850000000 1.0
C      1  0.5052740000000  0.5236960000000  0.6045010000000 1.0
C      1  0.4803270000000  0.5059800000000  0.4931390000000 1.0
C      1  0.4967920000000  0.3919250000000  0.5336940000000 1.0
C      1  0.5307030000000  0.5023950000000  0.4134680000000 1.0
C      1  0.4617190000000  0.4779620000000  0.5479450000000 1.0
C      1  0.5153810000000  0.4986710000000  0.5568440000000 1.0
C      1  0.5090070000000  0.5359500000000  0.3747520000000 1.0
C      1  0.4514620000000  0.5062240000000  0.5443590000000 1.0
C      1  0.5457420000000  0.4117280000000  0.5317410000000 1.0
C      1  0.4543970000000  0.5692460000000  0.4310730000000 1.0
C      1  0.6039270000000  0.4855580000000  0.4634810000000 1.0
C      1  0.4107530000000  0.5065070000000  0.4429150000000 1.0
C      1  0.5276730000000  0.4326570000000  0.5756680000000 1.0
C      1  0.4539770000000  0.4430050000000  0.4471250000000 1.0
C      1  0.4618210000000  0.4845510000000  0.5000280000000 1.0
C      1  0.4725830000000  0.5483490000000  0.5249520000000 1.0
C      1  0.5175640000000  0.5383630000000  0.4712890000000 1.0
C      1  0.4768930000000  0.5306290000000  0.5963030000000 1.0
C      1  0.4116010000000  0.4987720000000  0.5670170000000 1.0
C      1  0.4428930000000  0.5373050000000  0.4868070000000 1.0
C      1  0.5433060000000  0.5852020000000  0.4620940000000 1.0
C      1  0.4585770000000  0.5841710000000  0.5493160000000 1.0
C      1  0.5584460000000  0.5281100000000  0.4958440000000 1.0
C      1  0.4369990000000  0.4615400000000  0.4634130000000 1.0
C      1  0.5228510000000  0.5890100000000  0.4258390000000 1.0
C      1  0.4700440000000  0.5303100000000  0.4837930000000 1.0
C      1  0.5271450000000  0.4372860000000  0.4216180000000 1.0
C      1  0.5358930000000  0.5636640000000  0.4367820000000 1.0
C      1  0.4201670000000  0.5648480000000  0.5136650000000 1.0
C      1  0.5091630000000  0.4548040000000  0.4058010000000 1.0
C      1  0.5555020000000  0.5383680000000  0.5969630000000 1.0
C      1  0.5416030000000  0.4889220000000  0.5467060000000 1.0
C      1  0.4849280000000  0.4143440000000  0.4787380000000 1.0
C      1  0.5491180000000  0.4236710000000  0.5594100000000 1.0
C      1  0.4747380000000  0.5235160000000  0.5387840000000 1.0
C      1  0.6153350000000  0.5068150000000  0.4796890000000 1.0
C      1  0.4731450000000  0.4733360000000  0.5795380000000 1.0
C      1  0.4225660000000  0.5164840000000  0.4980750000000 1.0
C      1  0.5046320000000  0.4971940000000  0.4829960000000 1.0
C      1  0.4528060000000  0.5143340000000  0.5930340000000 1.0
C      1  0.5041010000000  0.4688980000000  0.4881860000000 1.0
C      1  0.5805800000000  0.4800410000000  0.5765430000000 1.0
C      1  0.4035610000000  0.4313250000000  0.4971610000000 1.0
C      1  0.5363290000000  0.4758590000000  0.6066620000000 1.0
C      1  0.4807130000000  0.4601310000000  0.4046270000000 1.0
C      1  0.4850320000000  0.4758030000000  0.5323250000000 1.0
C      1  0.4811150000000  0.3766040000000  0.5108340000000 1.0
C      1  0.5153490000000  0.4079600000000  0.4656090000000 1.0
C      1  0.5190680000000  0.5102650000000  0.3685080000000 1.0
C      1  0.4720960000000  0.5943200000000  0.4754100000000 1.0
C      1  0.4407970000000  0.4741600000000  0.4082880000000 1.0
C      1  0.5533120000000  0.4985330000000  0.4968220000000 1.0
C      1  0.5268190000000  0.4146920000000  0.4404840000000 1.0
C      1  0.5231160000000  0.5468400000000  0.5190870000000 1.0
C      1  0.5645390000000  0.5083380000000  0.4369800000000 1.0
C      1  0.4995110000000  0.4519970000000  0.5399900000000 1.0
C      1  0.5432430000000  0.4115330000000  0.4675530000000 1.0
C      1  0.4794140000000  0.4309700000000  0.5027950000000 1.0
C      1  0.5257960000000  0.4866740000000  0.3682900000000 1.0
C      1  0.4560310000000  0.4509480000000  0.4192260000000 1.0
C      1  0.5538290000000  0.5211870000000  0.4116880000000 1.0
C      1  0.5210860000000  0.5558520000000  0.3938590000000 1.0
C      1  0.4245670000000  0.4760840000000  0.5791620000000 1.0
C      1  0.5260250000000  0.5419630000000  0.5943540000000 1.0
C      1  0.5197610000000  0.5557100000000  0.5691490000000 1.0
C      1  0.4791700000000  0.5128820000000  0.4416510000000 1.0
C      1  0.5075400000000  0.4374160000000  0.5176860000000 1.0
C      1  0.4181240000000  0.5557760000000  0.5377620000000 1.0
C      1  0.5955830000000  0.5242740000000  0.5215750000000 1.0
C      1  0.4087670000000  0.5609010000000  0.4862150000000 1.0
C      1  0.4946310000000  0.5706300000000  0.5684560000000 1.0
C      1  0.5689720000000  0.5818240000000  0.5111370000000 1.0
C      1  0.4783580000000  0.5463580000000  0.4066320000000 1.0
C      1  0.5282550000000  0.4477460000000  0.6004580000000 1.0
C      1  0.5732540000000  0.5829650000000  0.5385800000000 1.0
C      1  0.4102250000000  0.4728070000000  0.4665500000000 1.0
C      1  0.5048040000000  0.5780560000000  0.4059510000000 1.0
C      1  0.4410050000000  0.4089770000000  0.5267430000000 1.0
C      1  0.5187670000000  0.4078500000000  0.5236900000000 1.0
C      1  0.4014390000000  0.4514930000000  0.4810180000000 1.0
C      1  0.5379500000000  0.5470030000000  0.4947740000000 1.0
C      1  0.4958290000000  0.5028850000000  0.5358410000000 1.0
C      1  0.5685820000000  0.4967270000000  0.5557440000000 1.0
C      1  0.5199640000000  0.5103640000000  0.4638930000000 1.0
C      1  0.5851490000000  0.4311600000000  0.5308300000000 1.0
C      1  0.4945470000000  0.5959330000000  0.5188760000000 1.0
C      1  0.5361270000000  0.5007700000000  0.4423060000000 1.0
C      1  0.4562960000000  0.4800470000000  0.4714350000000 1.0
C      1  0.5909200000000  0.4571960000000  0.5617980000000 1.0
C      1  0.4804540000000  0.5324640000000  0.3809950000000 1.0
C      1  0.5720710000000  0.5516090000000  0.5742340000000 1.0
C      1  0.4757390000000  0.5749900000000  0.4108050000000 1.0
C      1  0.5421260000000  0.5806490000000  0.4911030000000 1.0
C      1  0.5015940000000  0.4556550000000  0.4623380000000 1.0
C      1  0.4698020000000  0.5922400000000  0.5039400000000 1.0
C      1  0.4638440000000  0.4820410000000  0.3920110000000 1.0
C      1  0.5973380000000  0.4566590000000  0.5325150000000 1.0
C      1  0.5133730000000  0.4948740000000  0.6055900000000 1.0
C      1  0.5600430000000  0.5113810000000  0.6004200000000 1.0
C      1  0.4968610000000  0.5516940000000  0.5098610000000 1.0
C      1  0.4533990000000  0.4046130000000  0.5542150000000 1.0
C      1  0.5808520000000  0.5433700000000  0.5051930000000 1.0
C      1  0.6025640000000  0.5459310000000  0.4867780000000 1.0
C      1  0.5801380000000  0.4452490000000  0.4700510000000 1.0
C      1  0.6220570000000  0.5363980000000  0.4686650000000 1.0
C      1  0.4365740000000  0.5458360000000  0.4262650000000 1.0
C      1  0.4930080000000  0.5342030000000  0.4303940000000 1.0
C      1  0.4732520000000  0.5568580000000  0.5838940000000 1.0
C      1  0.5991380000000  0.4635040000000  0.4823040000000 1.0
C      1  0.5011810000000  0.6017580000000  0.4748010000000 1.0
C      1  0.5645800000000  0.4844340000000  0.6023490000000 1.0
C      1  0.4925830000000  0.5482360000000  0.4819390000000 1.0
C      1  0.4024780000000  0.5373620000000  0.4691280000000 1.0
C      1  0.5430490000000  0.5485500000000  0.4107070000000 1.0
C      1  0.4400550000000  0.4981420000000  0.5142680000000 1.0
C      1  0.4121530000000  0.4111550000000  0.5155660000000 1.0
C      1  0.4678510000000  0.4962720000000  0.4534970000000 1.0
C      1  0.5218600000000  0.6014610000000  0.4525330000000 1.0
C      1  0.4806000000000  0.4358500000000  0.4568960000000 1.0
C      1  0.5738250000000  0.4580970000000  0.4440680000000 1.0
C      1  0.5234510000000  0.4604130000000  0.5076870000000 1.0
C      1  0.4261460000000  0.4734600000000  0.5168480000000 1.0
C      1  0.4359010000000  0.5617740000000  0.4748110000000 1.0
C      1  0.4002960000000  0.4834050000000  0.5219550000000 1.0
C      1  0.5122720000000  0.5493420000000  0.4463400000000 1.0
C      1  0.4724350000000  0.3845680000000  0.4855850000000 1.0
C      1  0.5774890000000  0.4311260000000  0.5586790000000 1.0
END
