TITL C-4164247-2821-751 7.64374337713499 125000 -26546.0306507371 0 0 178 (C1) n - 1
REM
REM in /home/nfs/bkarasulu/CARBON/AIRSS/Generating-Clusters/ReaxFF-fromJPCA2015/Units_Real/with-SteepDescent/Only-C1/SD-CG/Try1-3A/FIRE-CG
REM
REM
REM
REM
REM
REM ./C.cell (11c1c37f851c82e70ff6c80c92926a4b)
REM
REM compiler GCC version 9.2.1 20190827 (Red Hat 9.2.1-1)
REM options -cpp -mtune=generic -march=x86-64 -g -O0 -fpre-include=/usr/include/finclude/math-vector-fortran.h
REM seed 31270982 -1446912744 1915579484 -1123479563 -806370186 -510241048 1423193249 -183065732 1364253754 -1602832825 -1481224894 -830593783 216236239 -42746703 -117637325 324335180 -676200712 1095034577 -161250293 844311414 -1942272397 645462500 1644805403 237360193 718234168 609063340 -741406544 832424854 553413092 -830007625 -231957380 1926565521 1808340999
REM
CELL 1.54180   50.00000   50.00000   50.00000   90.00000   90.00000   90.00000
LATT -1
SFAC C  
C      1  0.5002000000000  0.5319910000000  0.5347690000000 1.0
C      1  0.5649580000000  0.5885560000000  0.4748540000000 1.0
C      1  0.4523080000000  0.5967470000000  0.4474620000000 1.0
C      1  0.4881710000000  0.4672790000000  0.5172180000000 1.0
C      1  0.4321390000000  0.4272050000000  0.4535240000000 1.0
C      1  0.4811830000000  0.4509500000000  0.5403850000000 1.0
C      1  0.4639630000000  0.5974110000000  0.5251270000000 1.0
C      1  0.4667810000000  0.5531510000000  0.5059670000000 1.0
C      1  0.5590020000000  0.5104580000000  0.5316380000000 1.0
C      1  0.5596920000000  0.4542720000000  0.5402520000000 1.0
C      1  0.4209100000000  0.5640900000000  0.4238830000000 1.0
C      1  0.4542860000000  0.5031110000000  0.4380330000000 1.0
C      1  0.5693710000000  0.4777280000000  0.4985800000000 1.0
C      1  0.4160220000000  0.4677150000000  0.4278260000000 1.0
C      1  0.5358870000000  0.4251190000000  0.4416170000000 1.0
C      1  0.5560080000000  0.5976440000000  0.5023520000000 1.0
C      1  0.5271060000000  0.5267180000000  0.5918600000000 1.0
C      1  0.5139030000000  0.4049270000000  0.4450230000000 1.0
C      1  0.4508360000000  0.4842100000000  0.5768240000000 1.0
C      1  0.5950590000000  0.5553540000000  0.5126110000000 1.0
C      1  0.5885380000000  0.4664930000000  0.4452230000000 1.0
C      1  0.5446650000000  0.5558790000000  0.4303310000000 1.0
C      1  0.5288480000000  0.5059820000000  0.5704520000000 1.0
C      1  0.4390790000000  0.5578750000000  0.4968990000000 1.0
C      1  0.6048850000000  0.4502020000000  0.5175420000000 1.0
C      1  0.5723430000000  0.5261900000000  0.4821780000000 1.0
C      1  0.4849890000000  0.4112310000000  0.4410110000000 1.0
C      1  0.4181920000000  0.5002480000000  0.5452150000000 1.0
C      1  0.5562440000000  0.5638790000000  0.4595790000000 1.0
C      1  0.5112370000000  0.5026500000000  0.4229020000000 1.0
C      1  0.5558340000000  0.5322610000000  0.4171320000000 1.0
C      1  0.4733730000000  0.5397020000000  0.5293090000000 1.0
C      1  0.4204650000000  0.5293410000000  0.4645580000000 1.0
C      1  0.4648980000000  0.4397700000000  0.4762590000000 1.0
C      1  0.4254360000000  0.5612480000000  0.5407770000000 1.0
C      1  0.5085380000000  0.5453450000000  0.3993230000000 1.0
C      1  0.5176080000000  0.5598480000000  0.4983740000000 1.0
C      1  0.3909330000000  0.4797790000000  0.4972240000000 1.0
C      1  0.5320550000000  0.4624960000000  0.6027390000000 1.0
C      1  0.6185500000000  0.5470960000000  0.4980380000000 1.0
C      1  0.4901750000000  0.5924320000000  0.5638270000000 1.0
C      1  0.5578940000000  0.4365940000000  0.5816870000000 1.0
C      1  0.5419520000000  0.4105380000000  0.5063270000000 1.0
C      1  0.5482120000000  0.4406270000000  0.4190810000000 1.0
C      1  0.5977290000000  0.5233900000000  0.5504270000000 1.0
C      1  0.4597620000000  0.5214660000000  0.3885390000000 1.0
C      1  0.5014410000000  0.6003910000000  0.4545200000000 1.0
C      1  0.5056900000000  0.4522620000000  0.3925210000000 1.0
C      1  0.5848890000000  0.5194970000000  0.5779880000000 1.0
C      1  0.4803750000000  0.3926890000000  0.4791930000000 1.0
C      1  0.5507190000000  0.5038090000000  0.4551060000000 1.0
C      1  0.5557680000000  0.4573690000000  0.5128340000000 1.0
C      1  0.4549600000000  0.4419430000000  0.4009000000000 1.0
C      1  0.4795710000000  0.4469800000000  0.3935510000000 1.0
C      1  0.4234040000000  0.5436820000000  0.5170120000000 1.0
C      1  0.5686960000000  0.5121650000000  0.4346760000000 1.0
C      1  0.5763590000000  0.5715790000000  0.5472480000000 1.0
C      1  0.5135380000000  0.4182570000000  0.5553690000000 1.0
C      1  0.5163410000000  0.5573670000000  0.5883680000000 1.0
C      1  0.4728120000000  0.4815630000000  0.4426660000000 1.0
C      1  0.5035990000000  0.4264430000000  0.5824210000000 1.0
C      1  0.4432550000000  0.5114310000000  0.4613170000000 1.0
C      1  0.5292740000000  0.3894360000000  0.5182460000000 1.0
C      1  0.4304980000000  0.5143430000000  0.5208510000000 1.0
C      1  0.5263850000000  0.4473020000000  0.4583800000000 1.0
C      1  0.5953110000000  0.5160310000000  0.4449330000000 1.0
C      1  0.5422140000000  0.5553100000000  0.4843980000000 1.0
C      1  0.6020360000000  0.4905690000000  0.4575220000000 1.0
C      1  0.4399000000000  0.4618740000000  0.5157790000000 1.0
C      1  0.5299670000000  0.5823790000000  0.5405220000000 1.0
C      1  0.5662050000000  0.4634540000000  0.4238000000000 1.0
C      1  0.5307570000000  0.3898990000000  0.4902200000000 1.0
C      1  0.4158860000000  0.5395970000000  0.5575240000000 1.0
C      1  0.5585360000000  0.5325070000000  0.5803350000000 1.0
C      1  0.5511070000000  0.4803030000000  0.4049700000000 1.0
C      1  0.4835500000000  0.5281520000000  0.4739580000000 1.0
C      1  0.4728610000000  0.5840760000000  0.4288350000000 1.0
C      1  0.5035280000000  0.5113840000000  0.5148610000000 1.0
C      1  0.5887360000000  0.5392110000000  0.4614010000000 1.0
C      1  0.5299420000000  0.4345480000000  0.5936720000000 1.0
C      1  0.4598290000000  0.4929590000000  0.5518280000000 1.0
C      1  0.4783630000000  0.4407760000000  0.5884630000000 1.0
C      1  0.3871450000000  0.5007900000000  0.5186660000000 1.0
C      1  0.4769080000000  0.5143660000000  0.6040410000000 1.0
C      1  0.4012880000000  0.4383710000000  0.5223640000000 1.0
C      1  0.5021580000000  0.5865930000000  0.4301190000000 1.0
C      1  0.5559030000000  0.4741590000000  0.5577760000000 1.0
C      1  0.5410830000000  0.4944730000000  0.5457090000000 1.0
C      1  0.5982250000000  0.5522240000000  0.5410070000000 1.0
C      1  0.4690460000000  0.4238810000000  0.5421210000000 1.0
C      1  0.4397000000000  0.5313360000000  0.5716730000000 1.0
C      1  0.4965360000000  0.4791770000000  0.4257930000000 1.0
C      1  0.4904270000000  0.5602220000000  0.5972900000000 1.0
C      1  0.5336990000000  0.4563570000000  0.3977850000000 1.0
C      1  0.5155380000000  0.6045450000000  0.5260560000000 1.0
C      1  0.5461380000000  0.5097020000000  0.4002420000000 1.0
C      1  0.4628670000000  0.4132940000000  0.4621060000000 1.0
C      1  0.4565540000000  0.5357240000000  0.5951540000000 1.0
C      1  0.4834170000000  0.4655120000000  0.6034330000000 1.0
C      1  0.4913500000000  0.5164460000000  0.5587640000000 1.0
C      1  0.4036010000000  0.4656900000000  0.4535470000000 1.0
C      1  0.4632150000000  0.5648070000000  0.5937870000000 1.0
C      1  0.5948900000000  0.4505380000000  0.4661470000000 1.0
C      1  0.5331220000000  0.4392560000000  0.5097910000000 1.0
C      1  0.4168800000000  0.4601720000000  0.5306840000000 1.0
C      1  0.4433180000000  0.5439650000000  0.4229480000000 1.0
C      1  0.5054950000000  0.5093770000000  0.6059660000000 1.0
C      1  0.5087300000000  0.4800190000000  0.6077340000000 1.0
C      1  0.3917930000000  0.4877650000000  0.4692030000000 1.0
C      1  0.5668360000000  0.5455370000000  0.5037950000000 1.0
C      1  0.5970680000000  0.4832040000000  0.5097400000000 1.0
C      1  0.4337410000000  0.4625120000000  0.5755940000000 1.0
C      1  0.6245310000000  0.5205970000000  0.4865890000000 1.0
C      1  0.5213740000000  0.4422630000000  0.5417420000000 1.0
C      1  0.5151730000000  0.4858700000000  0.5213830000000 1.0
C      1  0.5081860000000  0.4549880000000  0.4353950000000 1.0
C      1  0.3949210000000  0.5155260000000  0.4579860000000 1.0
C      1  0.4854450000000  0.4831350000000  0.4722850000000 1.0
C      1  0.4889120000000  0.6059430000000  0.5375730000000 1.0
C      1  0.5166050000000  0.4462380000000  0.4849820000000 1.0
C      1  0.4652110000000  0.4880660000000  0.6002120000000 1.0
C      1  0.4283760000000  0.5784070000000  0.4493400000000 1.0
C      1  0.6150400000000  0.5423850000000  0.4716320000000 1.0
C      1  0.4827050000000  0.5372920000000  0.3925170000000 1.0
C      1  0.5178140000000  0.5166890000000  0.3980230000000 1.0
C      1  0.5042140000000  0.4621310000000  0.5545460000000 1.0
C      1  0.4887770000000  0.5673660000000  0.4907010000000 1.0
C      1  0.6007140000000  0.4456360000000  0.4907350000000 1.0
C      1  0.4362610000000  0.4437730000000  0.4287830000000 1.0
C      1  0.4525010000000  0.5033130000000  0.5078430000000 1.0
C      1  0.5087100000000  0.3945230000000  0.5378210000000 1.0
C      1  0.4809240000000  0.3938730000000  0.5061280000000 1.0
C      1  0.5238680000000  0.5525510000000  0.5259920000000 1.0
C      1  0.4843930000000  0.4392720000000  0.4349510000000 1.0
C      1  0.4503100000000  0.4379050000000  0.5770190000000 1.0
C      1  0.3945610000000  0.5165990000000  0.5420760000000 1.0
C      1  0.4740750000000  0.5945980000000  0.4970470000000 1.0
C      1  0.5586080000000  0.5507860000000  0.5577600000000 1.0
C      1  0.4639090000000  0.5219600000000  0.5511810000000 1.0
C      1  0.4891500000000  0.4566650000000  0.4890430000000 1.0
C      1  0.4647570000000  0.5070830000000  0.4817170000000 1.0
C      1  0.6109680000000  0.4952560000000  0.4851790000000 1.0
C      1  0.5948110000000  0.4358340000000  0.5396020000000 1.0
C      1  0.5217100000000  0.5090810000000  0.4496190000000 1.0
C      1  0.5607090000000  0.4998780000000  0.4815320000000 1.0
C      1  0.5218160000000  0.5003300000000  0.4965120000000 1.0
C      1  0.4121060000000  0.4419970000000  0.4691550000000 1.0
C      1  0.4168320000000  0.4938680000000  0.4141790000000 1.0
C      1  0.4620490000000  0.4536280000000  0.4466320000000 1.0
C      1  0.5197670000000  0.5643260000000  0.4196480000000 1.0
C      1  0.5715870000000  0.4313270000000  0.5553740000000 1.0
C      1  0.5567880000000  0.4654560000000  0.5858450000000 1.0
C      1  0.5047070000000  0.4911450000000  0.5642090000000 1.0
C      1  0.5141230000000  0.6054000000000  0.4765360000000 1.0
C      1  0.4630720000000  0.5819310000000  0.5689000000000 1.0
C      1  0.3987050000000  0.5053760000000  0.4319090000000 1.0
C      1  0.4423330000000  0.5127990000000  0.4142540000000 1.0
C      1  0.4262640000000  0.5577160000000  0.4703930000000 1.0
C      1  0.4165910000000  0.4730070000000  0.5547290000000 1.0
C      1  0.4480260000000  0.5812400000000  0.5442050000000 1.0
C      1  0.4186880000000  0.4168390000000  0.5349320000000 1.0
C      1  0.5869740000000  0.5041600000000  0.5315160000000 1.0
C      1  0.5153040000000  0.5787260000000  0.5688230000000 1.0
C      1  0.4607040000000  0.4807750000000  0.5234200000000 1.0
C      1  0.5582050000000  0.5872080000000  0.5298770000000 1.0
C      1  0.4799570000000  0.3965040000000  0.5328840000000 1.0
C      1  0.5504040000000  0.5378200000000  0.5294580000000 1.0
C      1  0.4639160000000  0.6005400000000  0.4721210000000 1.0
C      1  0.4426490000000  0.4209970000000  0.5540240000000 1.0
C      1  0.3999110000000  0.4510000000000  0.4958640000000 1.0
C      1  0.4345330000000  0.4176290000000  0.5123560000000 1.0
C      1  0.4844390000000  0.5514640000000  0.4598160000000 1.0
C      1  0.5124850000000  0.4923510000000  0.4714630000000 1.0
C      1  0.5063720000000  0.5330060000000  0.4604090000000 1.0
C      1  0.5095070000000  0.3915800000000  0.4699640000000 1.0
C      1  0.5282150000000  0.6099370000000  0.5003300000000 1.0
C      1  0.4439730000000  0.4397720000000  0.4980240000000 1.0
C      1  0.4675830000000  0.5559130000000  0.4333220000000 1.0
END
