TITL C-4164240-4114-231 8.60208298264281 125000 -6747.77567752672 0 0 46 (C1) n - 1
REM
REM in /home/nfs/bkarasulu/CARBON/AIRSS/Generating-Clusters/ReaxFF-fromJPCA2015/Units_Real/with-SteepDescent/Only-C1/SD-CG/Try1-3A/FIRE-CG
REM
REM
REM
REM
REM
REM ./C.cell (11c1c37f851c82e70ff6c80c92926a4b)
REM
REM compiler GCC version 9.2.1 20190827 (Red Hat 9.2.1-1)
REM options -cpp -mtune=generic -march=x86-64 -g -O0 -fpre-include=/usr/include/finclude/math-vector-fortran.h
REM seed 1203814776 1498572525 -2127292333 448881447 1723074935 1318261297 -1211331658 -1341510802 1477799507 -2112336339 1317843061 -1427140109 -857913393 713871808 -368145166 1503111508 1063772016 -1831000417 2045812485 -904426373 -216807417 -1025673694 1909970150 -920394048 1069880239 1596635210 -386075156 -127895109 1926159865 54507922 345588174 2042727639 523458708
REM
CELL 1.54180   50.00000   50.00000   50.00000   90.00000   90.00000   90.00000
LATT -1
SFAC C  
C      1  0.5638210000000  0.5158580000000  0.4793770000000 1.0
C      1  0.4489290000000  0.4709730000000  0.5270730000000 1.0
C      1  0.4654010000000  0.4556240000000  0.4871800000000 1.0
C      1  0.5007420000000  0.4384440000000  0.5213790000000 1.0
C      1  0.4668190000000  0.4612630000000  0.5479950000000 1.0
C      1  0.5606530000000  0.4709220000000  0.5013270000000 1.0
C      1  0.5318270000000  0.5492660000000  0.4853790000000 1.0
C      1  0.5134560000000  0.4802620000000  0.5518220000000 1.0
C      1  0.4825920000000  0.5670260000000  0.4722810000000 1.0
C      1  0.4317670000000  0.4929470000000  0.4870430000000 1.0
C      1  0.5561020000000  0.5021420000000  0.4563870000000 1.0
C      1  0.4831060000000  0.4901830000000  0.4582580000000 1.0
C      1  0.5155010000000  0.5256650000000  0.4802610000000 1.0
C      1  0.4492240000000  0.5292720000000  0.4534420000000 1.0
C      1  0.4780110000000  0.4826200000000  0.4851780000000 1.0
C      1  0.5094760000000  0.5654810000000  0.4797660000000 1.0
C      1  0.5102900000000  0.5353950000000  0.5324570000000 1.0
C      1  0.5651440000000  0.4563870000000  0.4781930000000 1.0
C      1  0.5180990000000  0.4570900000000  0.4528980000000 1.0
C      1  0.5014560000000  0.4403540000000  0.4708660000000 1.0
C      1  0.4962560000000  0.4569640000000  0.5433800000000 1.0
C      1  0.5492800000000  0.5160170000000  0.5532900000000 1.0
C      1  0.4424310000000  0.4673280000000  0.5001430000000 1.0
C      1  0.5512320000000  0.5425760000000  0.5082280000000 1.0
C      1  0.5576570000000  0.4895320000000  0.5198460000000 1.0
C      1  0.5471420000000  0.4522720000000  0.4540660000000 1.0
C      1  0.5412160000000  0.4885830000000  0.5459760000000 1.0
C      1  0.4858600000000  0.4351320000000  0.4951770000000 1.0
C      1  0.5392280000000  0.5384210000000  0.5347390000000 1.0
C      1  0.4950330000000  0.5288430000000  0.5563690000000 1.0
C      1  0.4597390000000  0.4968740000000  0.5300330000000 1.0
C      1  0.5092210000000  0.4852220000000  0.4506650000000 1.0
C      1  0.4961380000000  0.5241990000000  0.5065090000000 1.0
C      1  0.4698350000000  0.5432720000000  0.5463930000000 1.0
C      1  0.4293120000000  0.5184720000000  0.5013660000000 1.0
C      1  0.4955440000000  0.4999570000000  0.5633130000000 1.0
C      1  0.4715070000000  0.5433970000000  0.5167280000000 1.0
C      1  0.5654610000000  0.4739200000000  0.4539450000000 1.0
C      1  0.4372720000000  0.5032030000000  0.4594470000000 1.0
C      1  0.4626630000000  0.5042330000000  0.4454020000000 1.0
C      1  0.4793390000000  0.5001220000000  0.5080270000000 1.0
C      1  0.4473990000000  0.5425440000000  0.4993970000000 1.0
C      1  0.4567940000000  0.5495410000000  0.4729320000000 1.0
C      1  0.5663910000000  0.5175390000000  0.5068320000000 1.0
C      1  0.5263880000000  0.5056860000000  0.4617000000000 1.0
C      1  0.4692420000000  0.4889770000000  0.5575340000000 1.0
END
