TITL C-4164237-1827-80 19.9412318158768 125000 -29466.5812279159 0 0 197 (C1) n - 1
REM
REM in /home/nfs/bkarasulu/CARBON/AIRSS/Generating-Clusters/ReaxFF-fromJPCA2015/Units_Real/with-SteepDescent/Only-C1/SD-CG/Try1-3A/FIRE-CG
REM
REM
REM
REM
REM
REM ./C.cell (11c1c37f851c82e70ff6c80c92926a4b)
REM
REM compiler GCC version 9.2.1 20190827 (Red Hat 9.2.1-1)
REM options -cpp -mtune=generic -march=x86-64 -g -O0 -fpre-include=/usr/include/finclude/math-vector-fortran.h
REM seed 107958908 1408001328 -1820071555 -1136113521 34458918 -748782349 -675997252 37305104 -985451420 1648955358 -10643289 -716452334 974763659 -381579851 -1965631017 -1148795884 2045063837 -1562239231 -434855830 878292446 420879997 1685672884 -333198182 1413085859 2009541539 1218356729 -1604325074 1343550626 1031268815 -1204688865 -2054629168 -100833135 -1563226451
REM
CELL 1.54180   50.00000   50.00000   50.00000   90.00000   90.00000   90.00000
LATT -1
SFAC C  
C      1  0.5574570000000  0.5966520000000  0.4489120000000 1.0
C      1  0.5506230000000  0.3978820000000  0.4802330000000 1.0
C      1  0.5047650000000  0.4480380000000  0.4007580000000 1.0
C      1  0.4624220000000  0.4616470000000  0.5324970000000 1.0
C      1  0.5253020000000  0.5076740000000  0.5689910000000 1.0
C      1  0.5657450000000  0.5685660000000  0.4400760000000 1.0
C      1  0.5056110000000  0.4760820000000  0.5389910000000 1.0
C      1  0.4282180000000  0.5397740000000  0.5174880000000 1.0
C      1  0.3555270000000  0.5177980000000  0.5315250000000 1.0
C      1  0.5976370000000  0.4397360000000  0.5405580000000 1.0
C      1  0.5283280000000  0.4736100000000  0.6207030000000 1.0
C      1  0.4020920000000  0.5376390000000  0.5321250000000 1.0
C      1  0.5463820000000  0.4461980000000  0.4349600000000 1.0
C      1  0.4874570000000  0.5767150000000  0.5146750000000 1.0
C      1  0.4342400000000  0.4166210000000  0.5156600000000 1.0
C      1  0.4406370000000  0.4443630000000  0.5646760000000 1.0
C      1  0.5887520000000  0.4789560000000  0.4248300000000 1.0
C      1  0.5356650000000  0.5783700000000  0.5635530000000 1.0
C      1  0.4251130000000  0.5370890000000  0.4464160000000 1.0
C      1  0.5598340000000  0.5924190000000  0.5250000000000 1.0
C      1  0.4849790000000  0.5350440000000  0.4934290000000 1.0
C      1  0.4354170000000  0.4771500000000  0.3996160000000 1.0
C      1  0.3893890000000  0.5147180000000  0.4737520000000 1.0
C      1  0.3987380000000  0.4649170000000  0.4603120000000 1.0
C      1  0.4906320000000  0.4975970000000  0.4589420000000 1.0
C      1  0.5208790000000  0.4530930000000  0.4836550000000 1.0
C      1  0.4995720000000  0.4365800000000  0.5832440000000 1.0
C      1  0.5570840000000  0.4591780000000  0.5109730000000 1.0
C      1  0.4211850000000  0.4571470000000  0.4428660000000 1.0
C      1  0.6154870000000  0.5281550000000  0.5166910000000 1.0
C      1  0.5770530000000  0.5148500000000  0.4901830000000 1.0
C      1  0.5114170000000  0.6146820000000  0.5011930000000 1.0
C      1  0.5949850000000  0.5257390000000  0.5612290000000 1.0
C      1  0.5121230000000  0.5216920000000  0.5214120000000 1.0
C      1  0.5376130000000  0.4033100000000  0.4543830000000 1.0
C      1  0.5689930000000  0.4087590000000  0.5219360000000 1.0
C      1  0.5133080000000  0.5692800000000  0.5855930000000 1.0
C      1  0.4954140000000  0.3772600000000  0.4815580000000 1.0
C      1  0.4853840000000  0.3917450000000  0.4596180000000 1.0
C      1  0.5152400000000  0.5094000000000  0.4687780000000 1.0
C      1  0.4219100000000  0.4207660000000  0.4745450000000 1.0
C      1  0.4819580000000  0.4421910000000  0.4629130000000 1.0
C      1  0.4302940000000  0.5549860000000  0.4922570000000 1.0
C      1  0.5853020000000  0.5494000000000  0.4287800000000 1.0
C      1  0.5261230000000  0.4796580000000  0.5622530000000 1.0
C      1  0.5069540000000  0.4772690000000  0.4950900000000 1.0
C      1  0.5084110000000  0.6129610000000  0.4710340000000 1.0
C      1  0.6024790000000  0.5327240000000  0.4450820000000 1.0
C      1  0.4516930000000  0.5947280000000  0.5452190000000 1.0
C      1  0.4687380000000  0.5257960000000  0.4031220000000 1.0
C      1  0.3907710000000  0.5453460000000  0.4677880000000 1.0
C      1  0.4806890000000  0.4985930000000  0.6096570000000 1.0
C      1  0.5812430000000  0.5511040000000  0.5449620000000 1.0
C      1  0.5747270000000  0.4223250000000  0.5467650000000 1.0
C      1  0.5597190000000  0.4521130000000  0.5840960000000 1.0
C      1  0.5025240000000  0.5250770000000  0.5686410000000 1.0
C      1  0.5085240000000  0.5359830000000  0.4772830000000 1.0
C      1  0.4706610000000  0.4054300000000  0.5353470000000 1.0
C      1  0.3972250000000  0.4782340000000  0.5608480000000 1.0
C      1  0.4531190000000  0.6025640000000  0.4703610000000 1.0
C      1  0.4531530000000  0.5275580000000  0.5242760000000 1.0
C      1  0.4772830000000  0.4791980000000  0.5470340000000 1.0
C      1  0.4571340000000  0.5609380000000  0.4709680000000 1.0
C      1  0.5766340000000  0.5435670000000  0.4826210000000 1.0
C      1  0.5633760000000  0.5257020000000  0.5894300000000 1.0
C      1  0.5037650000000  0.4935230000000  0.4121640000000 1.0
C      1  0.4607840000000  0.3990810000000  0.4755600000000 1.0
C      1  0.4759430000000  0.4512700000000  0.3970670000000 1.0
C      1  0.6058540000000  0.4590420000000  0.4957540000000 1.0
C      1  0.6139480000000  0.5113390000000  0.4599580000000 1.0
C      1  0.5650210000000  0.4729840000000  0.4670970000000 1.0
C      1  0.5073570000000  0.4915080000000  0.6231900000000 1.0
C      1  0.4885250000000  0.6067150000000  0.5172620000000 1.0
C      1  0.4681330000000  0.5135170000000  0.4503830000000 1.0
C      1  0.5290590000000  0.5520300000000  0.4939800000000 1.0
C      1  0.5383800000000  0.4651950000000  0.4586280000000 1.0
C      1  0.4905420000000  0.5867120000000  0.5840430000000 1.0
C      1  0.5164360000000  0.4606110000000  0.5856230000000 1.0
C      1  0.4614440000000  0.5277810000000  0.5508080000000 1.0
C      1  0.5544760000000  0.4287920000000  0.5667020000000 1.0
C      1  0.5314460000000  0.6058020000000  0.5217430000000 1.0
C      1  0.4435700000000  0.4732420000000  0.4519800000000 1.0
C      1  0.5865160000000  0.4156720000000  0.5003510000000 1.0
C      1  0.6103490000000  0.5097140000000  0.4928630000000 1.0
C      1  0.4324370000000  0.4926390000000  0.5450300000000 1.0
C      1  0.4537450000000  0.4553660000000  0.5880060000000 1.0
C      1  0.4591820000000  0.6100960000000  0.5215390000000 1.0
C      1  0.5065800000000  0.4468950000000  0.5270690000000 1.0
C      1  0.4799950000000  0.5274340000000  0.6055340000000 1.0
C      1  0.5756960000000  0.5033940000000  0.4335740000000 1.0
C      1  0.4605940000000  0.5756390000000  0.4237830000000 1.0
C      1  0.4881470000000  0.5629130000000  0.5400740000000 1.0
C      1  0.5625240000000  0.4663890000000  0.4170490000000 1.0
C      1  0.5594660000000  0.4218740000000  0.4479670000000 1.0
C      1  0.4951860000000  0.4528350000000  0.4405200000000 1.0
C      1  0.4708900000000  0.5410530000000  0.4481350000000 1.0
C      1  0.4790680000000  0.5022820000000  0.3943610000000 1.0
C      1  0.4262070000000  0.5803600000000  0.5096590000000 1.0
C      1  0.4599180000000  0.4994130000000  0.5534830000000 1.0
C      1  0.4519600000000  0.5490660000000  0.5708390000000 1.0
C      1  0.4225530000000  0.4645120000000  0.5545460000000 1.0
C      1  0.4589140000000  0.4493840000000  0.4948790000000 1.0
C      1  0.6159480000000  0.4838120000000  0.5069590000000 1.0
C      1  0.5767500000000  0.4594110000000  0.4894140000000 1.0
C      1  0.5763010000000  0.4749170000000  0.5705030000000 1.0
C      1  0.5744830000000  0.4121750000000  0.4727760000000 1.0
C      1  0.5465900000000  0.5169590000000  0.4027600000000 1.0
C      1  0.4589710000000  0.5465950000000  0.4182100000000 1.0
C      1  0.4276690000000  0.4533210000000  0.4134560000000 1.0
C      1  0.5022410000000  0.3993400000000  0.4967930000000 1.0
C      1  0.4474180000000  0.4974070000000  0.4412540000000 1.0
C      1  0.5298070000000  0.6066410000000  0.4498740000000 1.0
C      1  0.4808040000000  0.6080620000000  0.4698630000000 1.0
C      1  0.4395720000000  0.5084080000000  0.4901170000000 1.0
C      1  0.3793290000000  0.5197370000000  0.5215400000000 1.0
C      1  0.4739060000000  0.4353460000000  0.5980700000000 1.0
C      1  0.5899900000000  0.5642650000000  0.4978700000000 1.0
C      1  0.3940200000000  0.5001220000000  0.4998660000000 1.0
C      1  0.4471720000000  0.4207870000000  0.5431770000000 1.0
C      1  0.4789680000000  0.5625470000000  0.4907990000000 1.0
C      1  0.6049120000000  0.4349590000000  0.5120780000000 1.0
C      1  0.5267780000000  0.5140000000000  0.4254390000000 1.0
C      1  0.5099420000000  0.4005010000000  0.5456630000000 1.0
C      1  0.5831550000000  0.5067710000000  0.5787700000000 1.0
C      1  0.5249030000000  0.5951770000000  0.5464460000000 1.0
C      1  0.5572980000000  0.5534420000000  0.4627230000000 1.0
C      1  0.4248500000000  0.5577030000000  0.5607770000000 1.0
C      1  0.4555530000000  0.4034430000000  0.5046220000000 1.0
C      1  0.3966360000000  0.4535260000000  0.4872610000000 1.0
C      1  0.5402980000000  0.5719380000000  0.4775870000000 1.0
C      1  0.5644680000000  0.5012190000000  0.4614570000000 1.0
C      1  0.4984980000000  0.5472140000000  0.4522490000000 1.0
C      1  0.4157820000000  0.5050960000000  0.5684350000000 1.0
C      1  0.5533590000000  0.4772450000000  0.5528570000000 1.0
C      1  0.5023660000000  0.5423360000000  0.5918870000000 1.0
C      1  0.5480480000000  0.5242580000000  0.5638630000000 1.0
C      1  0.4570490000000  0.4847700000000  0.5982860000000 1.0
C      1  0.4470460000000  0.4208350000000  0.4310090000000 1.0
C      1  0.4442040000000  0.5800280000000  0.4524460000000 1.0
C      1  0.4428900000000  0.4664190000000  0.5122890000000 1.0
C      1  0.5585450000000  0.4826950000000  0.5262170000000 1.0
C      1  0.4674670000000  0.5132970000000  0.5008900000000 1.0
C      1  0.4820800000000  0.4858900000000  0.4849420000000 1.0
C      1  0.5611510000000  0.5747620000000  0.5482960000000 1.0
C      1  0.4520660000000  0.4354860000000  0.4082540000000 1.0
C      1  0.5329750000000  0.4420630000000  0.5094350000000 1.0
C      1  0.4380440000000  0.5050240000000  0.5909890000000 1.0
C      1  0.5038980000000  0.4272790000000  0.5532720000000 1.0
C      1  0.4631120000000  0.4768690000000  0.3914260000000 1.0
C      1  0.3990780000000  0.5016320000000  0.4278470000000 1.0
C      1  0.4107830000000  0.4288550000000  0.4964700000000 1.0
C      1  0.5168210000000  0.5423760000000  0.4309990000000 1.0
C      1  0.5363150000000  0.4991190000000  0.4534960000000 1.0
C      1  0.5423340000000  0.4086620000000  0.5087750000000 1.0
C      1  0.5008130000000  0.5372960000000  0.5428950000000 1.0
C      1  0.6010150000000  0.5525830000000  0.5222560000000 1.0
C      1  0.5449590000000  0.5202950000000  0.6113030000000 1.0
C      1  0.5132720000000  0.4934330000000  0.5175040000000 1.0
C      1  0.4275350000000  0.5299980000000  0.4754790000000 1.0
C      1  0.5275750000000  0.5414920000000  0.3903610000000 1.0
C      1  0.3842750000000  0.4724670000000  0.5069390000000 1.0
C      1  0.5460220000000  0.4832720000000  0.4010580000000 1.0
C      1  0.3908880000000  0.4932410000000  0.4539590000000 1.0
C      1  0.4946550000000  0.4801300000000  0.4359900000000 1.0
C      1  0.4784190000000  0.4457470000000  0.5164060000000 1.0
C      1  0.4528340000000  0.5296080000000  0.5953500000000 1.0
C      1  0.5653990000000  0.5078370000000  0.5165090000000 1.0
C      1  0.4285030000000  0.5026450000000  0.4164010000000 1.0
C      1  0.4854160000000  0.5775640000000  0.4109030000000 1.0
C      1  0.5286040000000  0.5116900000000  0.6255750000000 1.0
C      1  0.5151930000000  0.4362630000000  0.4261610000000 1.0
C      1  0.5297120000000  0.4137750000000  0.5632940000000 1.0
C      1  0.5112160000000  0.5575920000000  0.4063750000000 1.0
C      1  0.5194930000000  0.3956800000000  0.5196600000000 1.0
C      1  0.4124000000000  0.5616080000000  0.4551520000000 1.0
C      1  0.5726500000000  0.5259580000000  0.4154220000000 1.0
C      1  0.4659190000000  0.4634670000000  0.4728660000000 1.0
C      1  0.5378740000000  0.4576830000000  0.6014060000000 1.0
C      1  0.4285760000000  0.5788560000000  0.5393110000000 1.0
C      1  0.6108090000000  0.4858710000000  0.4449710000000 1.0
C      1  0.5090190000000  0.4118380000000  0.4503690000000 1.0
C      1  0.5994370000000  0.4657110000000  0.5523450000000 1.0
C      1  0.5574440000000  0.5961500000000  0.4792190000000 1.0
C      1  0.4268070000000  0.4915750000000  0.5097060000000 1.0
C      1  0.5336970000000  0.5401380000000  0.5179950000000 1.0
C      1  0.5197670000000  0.4730580000000  0.3962870000000 1.0
C      1  0.4424710000000  0.6018220000000  0.4989630000000 1.0
C      1  0.5029550000000  0.4266340000000  0.4759100000000 1.0
C      1  0.4709200000000  0.5765400000000  0.5613780000000 1.0
C      1  0.5574120000000  0.5304070000000  0.5347870000000 1.0
C      1  0.4393050000000  0.4083020000000  0.4557720000000 1.0
C      1  0.4124310000000  0.5238690000000  0.4249770000000 1.0
C      1  0.5759990000000  0.5901030000000  0.5007660000000 1.0
C      1  0.3872920000000  0.4737310000000  0.5351850000000 1.0
C      1  0.4084860000000  0.5337110000000  0.5599270000000 1.0
C      1  0.6139000000000  0.4851030000000  0.5363520000000 1.0
C      1  0.6140290000000  0.5141020000000  0.5422370000000 1.0
END
