TITL C-4164236-1577-73 -2.15362909776053 125000 -5007.33464785017 0 0 35 (C1) n - 1
REM
REM in /home/nfs/bkarasulu/CARBON/AIRSS/Generating-Clusters/ReaxFF-fromJPCA2015/Units_Real/with-SteepDescent/Only-C1/SD-CG/Try1-3A/FIRE-CG
REM
REM
REM
REM
REM
REM ./C.cell (11c1c37f851c82e70ff6c80c92926a4b)
REM
REM compiler GCC version 9.2.1 20190827 (Red Hat 9.2.1-1)
REM options -cpp -mtune=generic -march=x86-64 -g -O0 -fpre-include=/usr/include/finclude/math-vector-fortran.h
REM seed -1662510640 107790276 -67819289 2061686977 -1595496728 -365015005 1485692232 -1483942234 39803255 -767213718 1026320284 -850409553 -616875149 -1675227317 -21893525 1128899793 481832218 -112098818 -386542411 -1245573925 -924059350 -505626154 1204010631 1129613195 683429567 -52003334 -516404591 821795469 -1349105935 -214247119 1108678809 2122560007 -821345819
REM
CELL 1.54180   50.00000   50.00000   50.00000   90.00000   90.00000   90.00000
LATT -1
SFAC C  
C      1  0.4760180000000  0.5331050000000  0.5341020000000 1.0
C      1  0.5163470000000  0.5257320000000  0.5683340000000 1.0
C      1  0.4721730000000  0.5223480000000  0.5072030000000 1.0
C      1  0.4459180000000  0.5051080000000  0.5338120000000 1.0
C      1  0.5102940000000  0.5508990000000  0.4619500000000 1.0
C      1  0.5135620000000  0.5480840000000  0.5630140000000 1.0
C      1  0.5205420000000  0.5568810000000  0.4871580000000 1.0
C      1  0.4629920000000  0.4557550000000  0.5197940000000 1.0
C      1  0.4864860000000  0.4884670000000  0.5560180000000 1.0
C      1  0.5162890000000  0.4578640000000  0.4940640000000 1.0
C      1  0.5538980000000  0.4755200000000  0.4907800000000 1.0
C      1  0.5070380000000  0.4870980000000  0.4334490000000 1.0
C      1  0.4944780000000  0.4580210000000  0.4724000000000 1.0
C      1  0.5125830000000  0.5099350000000  0.4730580000000 1.0
C      1  0.5400270000000  0.5142250000000  0.5206560000000 1.0
C      1  0.5280150000000  0.4914540000000  0.5354070000000 1.0
C      1  0.4541980000000  0.4750180000000  0.4970630000000 1.0
C      1  0.5000350000000  0.5190250000000  0.4967160000000 1.0
C      1  0.5027840000000  0.4590600000000  0.4439970000000 1.0
C      1  0.5020210000000  0.5471820000000  0.5366540000000 1.0
C      1  0.4690980000000  0.4739850000000  0.4729930000000 1.0
C      1  0.5137340000000  0.4980520000000  0.5605090000000 1.0
C      1  0.5197720000000  0.5371470000000  0.5128150000000 1.0
C      1  0.5535620000000  0.4975730000000  0.5037200000000 1.0
C      1  0.5121480000000  0.4702050000000  0.5215830000000 1.0
C      1  0.5264650000000  0.5035110000000  0.4490270000000 1.0
C      1  0.4579460000000  0.4302030000000  0.5194480000000 1.0
C      1  0.4880520000000  0.4680290000000  0.5357430000000 1.0
C      1  0.5297020000000  0.5297080000000  0.4306310000000 1.0
C      1  0.4670220000000  0.4970000000000  0.4529490000000 1.0
C      1  0.5021380000000  0.5370380000000  0.4376280000000 1.0
C      1  0.5426060000000  0.4549300000000  0.4840620000000 1.0
C      1  0.4663760000000  0.5107070000000  0.5523460000000 1.0
C      1  0.4491840000000  0.5025540000000  0.5058900000000 1.0
C      1  0.4864970000000  0.5085770000000  0.4350280000000 1.0
END
