TITL C-4164243-3780-161 -11.1802965962103 125000 -25640.351535144 0 0 169 (C1) n - 1
REM
REM in /home/nfs/bkarasulu/CARBON/AIRSS/Generating-Clusters/ReaxFF-fromJPCA2015/Units_Real/with-SteepDescent/Only-C1/SD-CG/Try1-3A/FIRE-CG
REM
REM
REM
REM
REM
REM ./C.cell (11c1c37f851c82e70ff6c80c92926a4b)
REM
REM compiler GCC version 9.2.1 20190827 (Red Hat 9.2.1-1)
REM options -cpp -mtune=generic -march=x86-64 -g -O0 -fpre-include=/usr/include/finclude/math-vector-fortran.h
REM seed -2143776035 -1290297498 -1390326031 -793171935 1445967763 -1914599339 1029746605 -2112423584 61220106 -178297267 993890852 -974330807 -527755466 1455342284 667277816 -1795266521 1821399226 1694705892 1081757506 -1538776941 97162605 -453881525 -1098080173 312452337 -764255924 -1856008619 1152839219 1424569131 -1031732319 1827478383 -1746857554 1430862398 1142341393
REM
CELL 1.54180   50.00000   50.00000   50.00000   90.00000   90.00000   90.00000
LATT -1
SFAC C  
C      1  0.4882920000000  0.3996100000000  0.4847050000000 1.0
C      1  0.5678720000000  0.4640240000000  0.4516160000000 1.0
C      1  0.4857640000000  0.4315020000000  0.4149820000000 1.0
C      1  0.4707030000000  0.4860760000000  0.4341970000000 1.0
C      1  0.4602580000000  0.5430710000000  0.4599180000000 1.0
C      1  0.4548980000000  0.4621140000000  0.4250200000000 1.0
C      1  0.5465330000000  0.6065720000000  0.5318510000000 1.0
C      1  0.5266860000000  0.6011530000000  0.5513840000000 1.0
C      1  0.4267930000000  0.4691130000000  0.4268590000000 1.0
C      1  0.4442890000000  0.4723230000000  0.5193180000000 1.0
C      1  0.4245790000000  0.4892950000000  0.5759800000000 1.0
C      1  0.5314350000000  0.4274570000000  0.4930700000000 1.0
C      1  0.4996140000000  0.5349290000000  0.6098670000000 1.0
C      1  0.5276790000000  0.4934910000000  0.4635860000000 1.0
C      1  0.4030430000000  0.5184700000000  0.5453120000000 1.0
C      1  0.4466910000000  0.5803620000000  0.4413120000000 1.0
C      1  0.4577110000000  0.5539690000000  0.5886130000000 1.0
C      1  0.5138080000000  0.4341410000000  0.4110340000000 1.0
C      1  0.5692990000000  0.4917400000000  0.5706120000000 1.0
C      1  0.4882410000000  0.5811590000000  0.4738960000000 1.0
C      1  0.4558130000000  0.4981460000000  0.5232760000000 1.0
C      1  0.4714790000000  0.5346780000000  0.6056620000000 1.0
C      1  0.5445620000000  0.4314060000000  0.4466410000000 1.0
C      1  0.5397190000000  0.4371380000000  0.5198970000000 1.0
C      1  0.5691320000000  0.4196980000000  0.4552180000000 1.0
C      1  0.4307240000000  0.4255080000000  0.5475120000000 1.0
C      1  0.5865180000000  0.5407410000000  0.5486600000000 1.0
C      1  0.3935020000000  0.4712080000000  0.4785860000000 1.0
C      1  0.5422790000000  0.5933460000000  0.4603970000000 1.0
C      1  0.4390010000000  0.4102020000000  0.4684920000000 1.0
C      1  0.5866630000000  0.4425410000000  0.4584830000000 1.0
C      1  0.4613780000000  0.4507310000000  0.5237120000000 1.0
C      1  0.4963450000000  0.6084050000000  0.4786030000000 1.0
C      1  0.4630130000000  0.4927800000000  0.4624800000000 1.0
C      1  0.4292030000000  0.4613830000000  0.5772610000000 1.0
C      1  0.4244520000000  0.4193250000000  0.4938100000000 1.0
C      1  0.4223830000000  0.4981500000000  0.4283250000000 1.0
C      1  0.5029460000000  0.4810870000000  0.4247790000000 1.0
C      1  0.4247330000000  0.4175900000000  0.4447680000000 1.0
C      1  0.5911810000000  0.4670500000000  0.5390390000000 1.0
C      1  0.4487990000000  0.5042440000000  0.4174080000000 1.0
C      1  0.5199040000000  0.4627460000000  0.4104430000000 1.0
C      1  0.5386290000000  0.3999500000000  0.4863520000000 1.0
C      1  0.6045390000000  0.4975680000000  0.4854910000000 1.0
C      1  0.5571010000000  0.5133990000000  0.5851620000000 1.0
C      1  0.5968400000000  0.5508560000000  0.4387980000000 1.0
C      1  0.5514190000000  0.5368290000000  0.4358990000000 1.0
C      1  0.5839900000000  0.5016450000000  0.4648710000000 1.0
C      1  0.4829230000000  0.4123950000000  0.4380790000000 1.0
C      1  0.5460120000000  0.5085230000000  0.5221280000000 1.0
C      1  0.5139480000000  0.3934850000000  0.4716430000000 1.0
C      1  0.5349260000000  0.4679360000000  0.5168800000000 1.0
C      1  0.4542180000000  0.4255080000000  0.5656700000000 1.0
C      1  0.5414860000000  0.5410300000000  0.5598810000000 1.0
C      1  0.5789210000000  0.5300040000000  0.4275840000000 1.0
C      1  0.5291440000000  0.6125500000000  0.5086790000000 1.0
C      1  0.4026710000000  0.4704140000000  0.5390240000000 1.0
C      1  0.5291630000000  0.5610630000000  0.5753890000000 1.0
C      1  0.5285610000000  0.4173630000000  0.4290360000000 1.0
C      1  0.4390510000000  0.5445540000000  0.5234830000000 1.0
C      1  0.5672030000000  0.4056820000000  0.4804710000000 1.0
C      1  0.5280780000000  0.4924460000000  0.5332960000000 1.0
C      1  0.5423290000000  0.5851770000000  0.5664680000000 1.0
C      1  0.5251050000000  0.5253450000000  0.4274210000000 1.0
C      1  0.5077550000000  0.5618510000000  0.4838250000000 1.0
C      1  0.5500010000000  0.4001000000000  0.5378260000000 1.0
C      1  0.4592830000000  0.5723320000000  0.4704280000000 1.0
C      1  0.4693450000000  0.5454440000000  0.4325330000000 1.0
C      1  0.5667150000000  0.5361400000000  0.5699720000000 1.0
C      1  0.4233950000000  0.5393270000000  0.5489640000000 1.0
C      1  0.5428140000000  0.5358300000000  0.5310670000000 1.0
C      1  0.5919760000000  0.5641250000000  0.4652320000000 1.0
C      1  0.4438500000000  0.5095360000000  0.5805120000000 1.0
C      1  0.5203880000000  0.5462530000000  0.4633900000000 1.0
C      1  0.4904070000000  0.4569820000000  0.4793840000000 1.0
C      1  0.5711010000000  0.4235710000000  0.5263210000000 1.0
C      1  0.5436080000000  0.4789390000000  0.4135240000000 1.0
C      1  0.4806800000000  0.4814360000000  0.3902820000000 1.0
C      1  0.5186690000000  0.4667120000000  0.5673270000000 1.0
C      1  0.3868010000000  0.4557210000000  0.4559200000000 1.0
C      1  0.4609470000000  0.4245040000000  0.5156320000000 1.0
C      1  0.4444260000000  0.5183580000000  0.5053170000000 1.0
C      1  0.6029880000000  0.5203820000000  0.5041780000000 1.0
C      1  0.4365720000000  0.4525550000000  0.4725250000000 1.0
C      1  0.4154980000000  0.4491250000000  0.5549370000000 1.0
C      1  0.4632770000000  0.5611070000000  0.5347680000000 1.0
C      1  0.4103100000000  0.5418110000000  0.4566850000000 1.0
C      1  0.4976060000000  0.5876140000000  0.4281430000000 1.0
C      1  0.5264350000000  0.5083910000000  0.5891540000000 1.0
C      1  0.5980060000000  0.4430610000000  0.4852730000000 1.0
C      1  0.4971240000000  0.4926040000000  0.4994530000000 1.0
C      1  0.5207820000000  0.4430700000000  0.5804240000000 1.0
C      1  0.4647180000000  0.5263710000000  0.4093720000000 1.0
C      1  0.5492950000000  0.4696070000000  0.5695100000000 1.0
C      1  0.4110270000000  0.5155500000000  0.4969350000000 1.0
C      1  0.4908690000000  0.5616900000000  0.5284280000000 1.0
C      1  0.5840200000000  0.4722730000000  0.5130910000000 1.0
C      1  0.5640050000000  0.5874010000000  0.5461370000000 1.0
C      1  0.4083130000000  0.5128090000000  0.4499310000000 1.0
C      1  0.5093220000000  0.4015710000000  0.4438540000000 1.0
C      1  0.4184650000000  0.4490530000000  0.4484670000000 1.0
C      1  0.5259980000000  0.4961730000000  0.4315260000000 1.0
C      1  0.4539800000000  0.4481380000000  0.5850480000000 1.0
C      1  0.4097650000000  0.5435680000000  0.4857940000000 1.0
C      1  0.5040160000000  0.5122910000000  0.5719140000000 1.0
C      1  0.4850660000000  0.5103720000000  0.3948700000000 1.0
C      1  0.5924900000000  0.5430220000000  0.4885980000000 1.0
C      1  0.4565710000000  0.5894190000000  0.5398900000000 1.0
C      1  0.5226200000000  0.5791010000000  0.4411010000000 1.0
C      1  0.5845150000000  0.5017240000000  0.4355980000000 1.0
C      1  0.4028930000000  0.4926560000000  0.5577570000000 1.0
C      1  0.5079550000000  0.5056740000000  0.6121520000000 1.0
C      1  0.4836410000000  0.4057920000000  0.5134570000000 1.0
C      1  0.5118820000000  0.5267710000000  0.4007050000000 1.0
C      1  0.6043180000000  0.4698820000000  0.4954790000000 1.0
C      1  0.5158530000000  0.5535250000000  0.3994380000000 1.0
C      1  0.4963770000000  0.4077610000000  0.5396110000000 1.0
C      1  0.5012290000000  0.5467350000000  0.5071800000000 1.0
C      1  0.4226630000000  0.5638760000000  0.4404580000000 1.0
C      1  0.5593640000000  0.4861000000000  0.4722570000000 1.0
C      1  0.5769990000000  0.5644400000000  0.5336890000000 1.0
C      1  0.5012610000000  0.4650440000000  0.5059770000000 1.0
C      1  0.4166250000000  0.4492620000000  0.4925730000000 1.0
C      1  0.4553180000000  0.6008020000000  0.5122160000000 1.0
C      1  0.5201730000000  0.5786500000000  0.4108590000000 1.0
C      1  0.4870360000000  0.4527380000000  0.5291700000000 1.0
C      1  0.5136320000000  0.4671980000000  0.4663180000000 1.0
C      1  0.4772860000000  0.5920800000000  0.5602890000000 1.0
C      1  0.5683950000000  0.5822800000000  0.4644670000000 1.0
C      1  0.5044780000000  0.5571620000000  0.5908860000000 1.0
C      1  0.5261260000000  0.6083750000000  0.4804200000000 1.0
C      1  0.4794850000000  0.6148530000000  0.5023320000000 1.0
C      1  0.4790660000000  0.4585380000000  0.5964290000000 1.0
C      1  0.4924810000000  0.4711400000000  0.5510880000000 1.0
C      1  0.4799730000000  0.5710700000000  0.5808480000000 1.0
C      1  0.4792690000000  0.4954890000000  0.5413400000000 1.0
C      1  0.4944630000000  0.5192910000000  0.4901060000000 1.0
C      1  0.4619290000000  0.5191730000000  0.4774880000000 1.0
C      1  0.4623460000000  0.4663390000000  0.4743050000000 1.0
C      1  0.5569840000000  0.5545860000000  0.5146210000000 1.0
C      1  0.4725210000000  0.5078670000000  0.5896360000000 1.0
C      1  0.5480720000000  0.5456850000000  0.4625360000000 1.0
C      1  0.4011830000000  0.5076430000000  0.5208240000000 1.0
C      1  0.4160470000000  0.4694920000000  0.5126950000000 1.0
C      1  0.5903700000000  0.4938440000000  0.5501930000000 1.0
C      1  0.4818920000000  0.4181820000000  0.5630800000000 1.0
C      1  0.5129260000000  0.5189160000000  0.4663150000000 1.0
C      1  0.5591870000000  0.4828860000000  0.5037980000000 1.0
C      1  0.5020960000000  0.6134670000000  0.5195430000000 1.0
C      1  0.5634940000000  0.5431610000000  0.4879710000000 1.0
C      1  0.5700270000000  0.4780000000000  0.4259590000000 1.0
C      1  0.5012760000000  0.5921080000000  0.5411420000000 1.0
C      1  0.5833110000000  0.4216990000000  0.4989780000000 1.0
C      1  0.5606850000000  0.4411230000000  0.5714250000000 1.0
C      1  0.4335440000000  0.4136360000000  0.5205280000000 1.0
C      1  0.5808360000000  0.4412050000000  0.5485050000000 1.0
C      1  0.4380480000000  0.5371210000000  0.5736350000000 1.0
C      1  0.5281030000000  0.4426020000000  0.4684120000000 1.0
C      1  0.4695920000000  0.4077680000000  0.4637120000000 1.0
C      1  0.4413970000000  0.5830660000000  0.4940990000000 1.0
C      1  0.4236570000000  0.5621640000000  0.5022450000000 1.0
C      1  0.4020480000000  0.4993260000000  0.4744070000000 1.0
C      1  0.5046130000000  0.5102770000000  0.5431850000000 1.0
C      1  0.4943430000000  0.4345040000000  0.5855970000000 1.0
C      1  0.4718520000000  0.4549730000000  0.4025740000000 1.0
C      1  0.4857200000000  0.4860190000000  0.6049830000000 1.0
C      1  0.5258520000000  0.4144130000000  0.5385460000000 1.0
C      1  0.4715230000000  0.5743950000000  0.4262840000000 1.0
C      1  0.5962910000000  0.5177700000000  0.5339250000000 1.0
END
