TITL C-4164233-775-784 1.99487779120763 125000 -6843.57976982055 0 0 47 (C1) n - 1
REM
REM in /home/nfs/bkarasulu/CARBON/AIRSS/Generating-Clusters/ReaxFF-fromJPCA2015/Units_Real/with-SteepDescent/Only-C1/SD-CG/Try1-3A/FIRE-CG
REM
REM
REM
REM
REM
REM ./C.cell (11c1c37f851c82e70ff6c80c92926a4b)
REM
REM compiler GCC version 9.2.1 20190827 (Red Hat 9.2.1-1)
REM options -cpp -mtune=generic -march=x86-64 -g -O0 -fpre-include=/usr/include/finclude/math-vector-fortran.h
REM seed -1257471194 -428636016 351859776 -1941646048 -1105912084 -2038158472 -661517659 -224789248 -2113150760 2025214969 1137349980 -539346526 -1649839380 1603180225 2000980960 1329536140 -953816384 1471196149 1603701766 -828919607 633925168 64011079 1955224004 -1991041517 1527103999 1091661877 -194092775 -354139557 317305329 -946983025 -145286484 -810285238 148607885
REM
CELL 1.54180   50.00000   50.00000   50.00000   90.00000   90.00000   90.00000
LATT -1
SFAC C  
C      1  0.4944270000000  0.4603100000000  0.5248560000000 1.0
C      1  0.4976670000000  0.4746170000000  0.5650490000000 1.0
C      1  0.4739230000000  0.4762730000000  0.4456190000000 1.0
C      1  0.5182630000000  0.5478430000000  0.5167730000000 1.0
C      1  0.4824130000000  0.4999830000000  0.5651270000000 1.0
C      1  0.4848330000000  0.5065870000000  0.4770440000000 1.0
C      1  0.5129430000000  0.5246280000000  0.4386470000000 1.0
C      1  0.4477540000000  0.5202780000000  0.5298180000000 1.0
C      1  0.5402760000000  0.5008290000000  0.5516340000000 1.0
C      1  0.4933790000000  0.4180670000000  0.4977470000000 1.0
C      1  0.5051080000000  0.4906210000000  0.4906240000000 1.0
C      1  0.5148650000000  0.5081500000000  0.5383870000000 1.0
C      1  0.4870040000000  0.5687800000000  0.4804140000000 1.0
C      1  0.5138140000000  0.5615380000000  0.4910080000000 1.0
C      1  0.4721880000000  0.5507990000000  0.4614580000000 1.0
C      1  0.5551160000000  0.5103070000000  0.5279610000000 1.0
C      1  0.4553930000000  0.5029780000000  0.5524110000000 1.0
C      1  0.5106210000000  0.4758160000000  0.4266730000000 1.0
C      1  0.5559980000000  0.5402400000000  0.4891100000000 1.0
C      1  0.4906840000000  0.5278280000000  0.4572390000000 1.0
C      1  0.4613860000000  0.4916160000000  0.4675220000000 1.0
C      1  0.5026970000000  0.4875830000000  0.5192280000000 1.0
C      1  0.4978420000000  0.4430400000000  0.5003410000000 1.0
C      1  0.4668610000000  0.5420060000000  0.5262750000000 1.0
C      1  0.5365770000000  0.5547080000000  0.4725580000000 1.0
C      1  0.5563500000000  0.5179760000000  0.4692510000000 1.0
C      1  0.4309970000000  0.5103090000000  0.5037930000000 1.0
C      1  0.4099910000000  0.4977340000000  0.4995180000000 1.0
C      1  0.4995670000000  0.4636430000000  0.4507550000000 1.0
C      1  0.5446270000000  0.5351100000000  0.5159810000000 1.0
C      1  0.5588880000000  0.4907640000000  0.4810020000000 1.0
C      1  0.5399390000000  0.4626970000000  0.5368880000000 1.0
C      1  0.4329830000000  0.4406860000000  0.5557570000000 1.0
C      1  0.5659420000000  0.4897440000000  0.5098170000000 1.0
C      1  0.5537570000000  0.4620140000000  0.5121650000000 1.0
C      1  0.5436860000000  0.4660390000000  0.4839860000000 1.0
C      1  0.4850770000000  0.4886630000000  0.4208200000000 1.0
C      1  0.5095370000000  0.5031140000000  0.4209500000000 1.0
C      1  0.5275910000000  0.4741120000000  0.5589220000000 1.0
C      1  0.5135420000000  0.4639620000000  0.4783460000000 1.0
C      1  0.4954980000000  0.5441580000000  0.5358870000000 1.0
C      1  0.4836510000000  0.4527420000000  0.5516220000000 1.0
C      1  0.4387660000000  0.5103280000000  0.4729780000000 1.0
C      1  0.4452990000000  0.5380560000000  0.4653480000000 1.0
C      1  0.4563110000000  0.4462370000000  0.5538540000000 1.0
C      1  0.4983650000000  0.5233860000000  0.5567860000000 1.0
C      1  0.5376020000000  0.5331030000000  0.4520550000000 1.0
END
