TITL C-4164242-3624-354 -4.60188963138004 125000 -17476.2110515605 0 0 118 (C1) n - 1
REM
REM in /home/nfs/bkarasulu/CARBON/AIRSS/Generating-Clusters/ReaxFF-fromJPCA2015/Units_Real/with-SteepDescent/Only-C1/SD-CG/Try1-3A/FIRE-CG
REM
REM
REM
REM
REM
REM ./C.cell (11c1c37f851c82e70ff6c80c92926a4b)
REM
REM compiler GCC version 9.2.1 20190827 (Red Hat 9.2.1-1)
REM options -cpp -mtune=generic -march=x86-64 -g -O0 -fpre-include=/usr/include/finclude/math-vector-fortran.h
REM seed -295783275 -1352950262 1286445765 -119978020 1857438245 -991811942 333065978 1150806424 194787197 -164543544 -374186329 -764584242 1469944572 231258574 -563557682 -728564926 357300330 -862910065 -1890902442 372409560 23973987 722548885 -1072757795 -1938385201 660999986 -1778885724 -901209045 1057720268 414524551 2014478256 -224251116 737361209 -1882003432
REM
CELL 1.54180   50.00000   50.00000   50.00000   90.00000   90.00000   90.00000
LATT -1
SFAC C  
C      1  0.4826210000000  0.4857690000000  0.4579850000000 1.0
C      1  0.4200210000000  0.4775040000000  0.5312070000000 1.0
C      1  0.4779320000000  0.5018870000000  0.6003830000000 1.0
C      1  0.5663990000000  0.4523690000000  0.5588090000000 1.0
C      1  0.4879580000000  0.5940890000000  0.4814220000000 1.0
C      1  0.4345710000000  0.4523400000000  0.5296010000000 1.0
C      1  0.3949890000000  0.4838930000000  0.5160670000000 1.0
C      1  0.5429610000000  0.5167770000000  0.5481140000000 1.0
C      1  0.4555500000000  0.5260490000000  0.5737380000000 1.0
C      1  0.4741600000000  0.4179580000000  0.4428450000000 1.0
C      1  0.5591310000000  0.4807140000000  0.4209070000000 1.0
C      1  0.5643340000000  0.4122130000000  0.4777130000000 1.0
C      1  0.5099110000000  0.4934960000000  0.4521770000000 1.0
C      1  0.4901790000000  0.5331630000000  0.4681520000000 1.0
C      1  0.4513470000000  0.4546660000000  0.4794750000000 1.0
C      1  0.4536290000000  0.4148600000000  0.5154780000000 1.0
C      1  0.4564430000000  0.5050470000000  0.4908720000000 1.0
C      1  0.5089590000000  0.4232510000000  0.5447180000000 1.0
C      1  0.5735610000000  0.5237830000000  0.4372450000000 1.0
C      1  0.5466870000000  0.4804020000000  0.4828940000000 1.0
C      1  0.4586530000000  0.4983650000000  0.5627070000000 1.0
C      1  0.5417430000000  0.5586880000000  0.5012580000000 1.0
C      1  0.5115590000000  0.4637700000000  0.5291130000000 1.0
C      1  0.5135230000000  0.5114890000000  0.5438340000000 1.0
C      1  0.5118370000000  0.4472250000000  0.4412340000000 1.0
C      1  0.4223870000000  0.5483020000000  0.4928380000000 1.0
C      1  0.5038910000000  0.4202370000000  0.4475880000000 1.0
C      1  0.4486900000000  0.5453240000000  0.4191350000000 1.0
C      1  0.4931880000000  0.4936180000000  0.5628360000000 1.0
C      1  0.5104620000000  0.5396560000000  0.5371470000000 1.0
C      1  0.5116480000000  0.4159020000000  0.5176720000000 1.0
C      1  0.4386960000000  0.5010510000000  0.5374140000000 1.0
C      1  0.4368230000000  0.5630040000000  0.5381450000000 1.0
C      1  0.5075080000000  0.5791330000000  0.4650380000000 1.0
C      1  0.5742630000000  0.4749490000000  0.4870970000000 1.0
C      1  0.5843920000000  0.4581510000000  0.4656510000000 1.0
C      1  0.4348410000000  0.5300740000000  0.4396010000000 1.0
C      1  0.5137420000000  0.4411070000000  0.5666130000000 1.0
C      1  0.4592810000000  0.4203010000000  0.5432660000000 1.0
C      1  0.4971390000000  0.5686790000000  0.5732640000000 1.0
C      1  0.5364020000000  0.5310600000000  0.4940350000000 1.0
C      1  0.5878960000000  0.4734710000000  0.5146360000000 1.0
C      1  0.5821300000000  0.4497660000000  0.5298870000000 1.0
C      1  0.5334620000000  0.5800820000000  0.4792950000000 1.0
C      1  0.4622130000000  0.5090140000000  0.5177050000000 1.0
C      1  0.5348320000000  0.5358060000000  0.5847740000000 1.0
C      1  0.4457820000000  0.5814890000000  0.5034830000000 1.0
C      1  0.5093190000000  0.5897980000000  0.5295620000000 1.0
C      1  0.4806550000000  0.4643670000000  0.4762220000000 1.0
C      1  0.5518520000000  0.5276950000000  0.4168090000000 1.0
C      1  0.5628880000000  0.4749670000000  0.5751710000000 1.0
C      1  0.5418610000000  0.4072380000000  0.4739440000000 1.0
C      1  0.5265840000000  0.6028370000000  0.4942330000000 1.0
C      1  0.5264680000000  0.4680820000000  0.4640150000000 1.0
C      1  0.4761820000000  0.4733410000000  0.5953900000000 1.0
C      1  0.5531690000000  0.5417290000000  0.5608440000000 1.0
C      1  0.5052040000000  0.5449090000000  0.5874090000000 1.0
C      1  0.5124000000000  0.5167100000000  0.4657110000000 1.0
C      1  0.4670910000000  0.4949240000000  0.4349060000000 1.0
C      1  0.4766760000000  0.5531840000000  0.4144230000000 1.0
C      1  0.5493480000000  0.5123910000000  0.5894910000000 1.0
C      1  0.4398150000000  0.5602430000000  0.5130680000000 1.0
C      1  0.5009850000000  0.6054690000000  0.5060490000000 1.0
C      1  0.5583690000000  0.5058040000000  0.5270110000000 1.0
C      1  0.5780090000000  0.5444020000000  0.4888440000000 1.0
C      1  0.4893050000000  0.4572500000000  0.4254980000000 1.0
C      1  0.5363000000000  0.5313130000000  0.4659740000000 1.0
C      1  0.4629480000000  0.4441820000000  0.4334900000000 1.0
C      1  0.4998020000000  0.4693790000000  0.5761650000000 1.0
C      1  0.5653470000000  0.5326450000000  0.4639580000000 1.0
C      1  0.4998340000000  0.3989150000000  0.4951820000000 1.0
C      1  0.4587380000000  0.5894310000000  0.4794470000000 1.0
C      1  0.4688300000000  0.4057990000000  0.4674960000000 1.0
C      1  0.4386630000000  0.5453330000000  0.4662110000000 1.0
C      1  0.4603560000000  0.4523440000000  0.5485690000000 1.0
C      1  0.4709800000000  0.3982730000000  0.4939200000000 1.0
C      1  0.5744180000000  0.4982310000000  0.5852270000000 1.0
C      1  0.5171740000000  0.4435320000000  0.5086210000000 1.0
C      1  0.5273730000000  0.5633210000000  0.5300290000000 1.0
C      1  0.4415930000000  0.4552670000000  0.4494500000000 1.0
C      1  0.5818880000000  0.4964580000000  0.4304810000000 1.0
C      1  0.4880160000000  0.4855070000000  0.4165630000000 1.0
C      1  0.4834600000000  0.4899200000000  0.5166360000000 1.0
C      1  0.4888890000000  0.5771910000000  0.5453870000000 1.0
C      1  0.5119880000000  0.4925420000000  0.5207670000000 1.0
C      1  0.5150230000000  0.4027560000000  0.4699600000000 1.0
C      1  0.5861240000000  0.4977960000000  0.5322330000000 1.0
C      1  0.3998390000000  0.5040090000000  0.4943080000000 1.0
C      1  0.5713170000000  0.5584320000000  0.5130760000000 1.0
C      1  0.5103440000000  0.5043230000000  0.4207320000000 1.0
C      1  0.4116680000000  0.5273420000000  0.5085200000000 1.0
C      1  0.4382090000000  0.5016050000000  0.4349640000000 1.0
C      1  0.4225280000000  0.5248720000000  0.5362490000000 1.0
C      1  0.4591370000000  0.5710270000000  0.4301950000000 1.0
C      1  0.4497340000000  0.5720600000000  0.4575490000000 1.0
C      1  0.4568920000000  0.4705640000000  0.5732990000000 1.0
C      1  0.5409410000000  0.4420440000000  0.5619250000000 1.0
C      1  0.5932620000000  0.5004370000000  0.5606150000000 1.0
C      1  0.4667820000000  0.5400590000000  0.5118950000000 1.0
C      1  0.5797250000000  0.4682260000000  0.4389140000000 1.0
C      1  0.4361800000000  0.5414130000000  0.5561050000000 1.0
C      1  0.4389920000000  0.4824690000000  0.4861800000000 1.0
C      1  0.5035240000000  0.5403750000000  0.4234960000000 1.0
C      1  0.4827470000000  0.4656380000000  0.5310710000000 1.0
C      1  0.4862690000000  0.5518070000000  0.5299460000000 1.0
C      1  0.5390090000000  0.5008440000000  0.4144090000000 1.0
C      1  0.4236650000000  0.4785050000000  0.4469320000000 1.0
C      1  0.5811340000000  0.4328660000000  0.5080520000000 1.0
C      1  0.5856290000000  0.4311730000000  0.4800890000000 1.0
C      1  0.5071050000000  0.4538610000000  0.4823900000000 1.0
C      1  0.5313180000000  0.5485780000000  0.4137260000000 1.0
C      1  0.4651440000000  0.5305950000000  0.4817120000000 1.0
C      1  0.5393320000000  0.5017430000000  0.5033590000000 1.0
C      1  0.4784790000000  0.5291390000000  0.5921410000000 1.0
C      1  0.4409960000000  0.4386450000000  0.5051870000000 1.0
C      1  0.4132700000000  0.4865210000000  0.4738890000000 1.0
C      1  0.4983300000000  0.5546940000000  0.4506990000000 1.0
C      1  0.5562480000000  0.5607140000000  0.5389430000000 1.0
END
