TITL C-4164244-2836-526 15.5474333753243 125000 -17516.6836302232 0 0 118 (C1) n - 1
REM
REM in /home/nfs/bkarasulu/CARBON/AIRSS/Generating-Clusters/ReaxFF-fromJPCA2015/Units_Real/with-SteepDescent/Only-C1/SD-CG/Try1-3A/FIRE-CG
REM
REM
REM
REM
REM
REM ./C.cell (11c1c37f851c82e70ff6c80c92926a4b)
REM
REM compiler GCC version 9.2.1 20190827 (Red Hat 9.2.1-1)
REM options -cpp -mtune=generic -march=x86-64 -g -O0 -fpre-include=/usr/include/finclude/math-vector-fortran.h
REM seed -1717820654 -587196385 -99157075 1992220924 1567301026 478772485 -143437681 1254015656 -1926595548 1283162556 1978893558 380569906 627791303 77526 1664010989 -745818281 -730935531 -979834169 -208400183 -794076100 -1820202539 -1023691196 -253766829 833660832 1521675429 468090183 1172602715 461429197 -334471316 -1594300971 -173468807 1762001366 -1073940488
REM
CELL 1.54180   50.00000   50.00000   50.00000   90.00000   90.00000   90.00000
LATT -1
SFAC C  
C      1  0.4816550000000  0.4289150000000  0.4561880000000 1.0
C      1  0.5009280000000  0.4835250000000  0.4070630000000 1.0
C      1  0.4151480000000  0.4619760000000  0.5083500000000 1.0
C      1  0.5772450000000  0.5471750000000  0.4975930000000 1.0
C      1  0.4328660000000  0.5175920000000  0.4319880000000 1.0
C      1  0.5072650000000  0.4160990000000  0.4540640000000 1.0
C      1  0.5657880000000  0.4939880000000  0.4722770000000 1.0
C      1  0.5678720000000  0.5331020000000  0.5230120000000 1.0
C      1  0.5799600000000  0.5319780000000  0.4488090000000 1.0
C      1  0.5083270000000  0.5861720000000  0.4694930000000 1.0
C      1  0.5350750000000  0.5394790000000  0.4856770000000 1.0
C      1  0.4764450000000  0.4745700000000  0.5796670000000 1.0
C      1  0.4117260000000  0.5034170000000  0.4462220000000 1.0
C      1  0.4403330000000  0.4661870000000  0.4632490000000 1.0
C      1  0.4189050000000  0.5675190000000  0.4954830000000 1.0
C      1  0.4692470000000  0.5601130000000  0.5621090000000 1.0
C      1  0.5148480000000  0.4866230000000  0.4848370000000 1.0
C      1  0.4641830000000  0.5852120000000  0.5063690000000 1.0
C      1  0.5009140000000  0.5175270000000  0.4527610000000 1.0
C      1  0.4835910000000  0.4730250000000  0.5217940000000 1.0
C      1  0.4271240000000  0.4527600000000  0.5335010000000 1.0
C      1  0.5657030000000  0.4828880000000  0.4443230000000 1.0
C      1  0.4684730000000  0.5891330000000  0.4804580000000 1.0
C      1  0.5161440000000  0.4944800000000  0.4572420000000 1.0
C      1  0.5448130000000  0.4622550000000  0.4797750000000 1.0
C      1  0.4770970000000  0.5422310000000  0.5836270000000 1.0
C      1  0.5401330000000  0.5731900000000  0.5387910000000 1.0
C      1  0.5858250000000  0.5139630000000  0.5409680000000 1.0
C      1  0.5182770000000  0.5718560000000  0.5585270000000 1.0
C      1  0.5448710000000  0.4886740000000  0.4917680000000 1.0
C      1  0.4515690000000  0.4335940000000  0.4984620000000 1.0
C      1  0.5535440000000  0.4387870000000  0.5096410000000 1.0
C      1  0.4793080000000  0.4988980000000  0.5617590000000 1.0
C      1  0.4751610000000  0.4503250000000  0.4351020000000 1.0
C      1  0.4326730000000  0.4703050000000  0.5558930000000 1.0
C      1  0.5133730000000  0.4996670000000  0.5452820000000 1.0
C      1  0.4441200000000  0.5497810000000  0.5497390000000 1.0
C      1  0.4415580000000  0.5451850000000  0.5213120000000 1.0
C      1  0.5342290000000  0.4259710000000  0.4903380000000 1.0
C      1  0.5586190000000  0.5313530000000  0.4262000000000 1.0
C      1  0.5397300000000  0.5208780000000  0.5079720000000 1.0
C      1  0.4915690000000  0.5744750000000  0.5185250000000 1.0
C      1  0.4810070000000  0.4669230000000  0.4913020000000 1.0
C      1  0.5353580000000  0.4152110000000  0.4567620000000 1.0
C      1  0.5278730000000  0.4947190000000  0.4101760000000 1.0
C      1  0.4535300000000  0.4578220000000  0.5720410000000 1.0
C      1  0.4118160000000  0.5457460000000  0.4740330000000 1.0
C      1  0.4179100000000  0.5413260000000  0.5029240000000 1.0
C      1  0.4762420000000  0.4386710000000  0.4833470000000 1.0
C      1  0.5364660000000  0.4528500000000  0.5328150000000 1.0
C      1  0.5103200000000  0.4735210000000  0.5318950000000 1.0
C      1  0.4544300000000  0.4694960000000  0.4375610000000 1.0
C      1  0.5564080000000  0.5502480000000  0.5450110000000 1.0
C      1  0.5155880000000  0.5233850000000  0.5249180000000 1.0
C      1  0.5093320000000  0.5393850000000  0.4705220000000 1.0
C      1  0.5451890000000  0.5330770000000  0.5656690000000 1.0
C      1  0.5493280000000  0.4814100000000  0.5727380000000 1.0
C      1  0.4994740000000  0.5562590000000  0.4272000000000 1.0
C      1  0.4385590000000  0.5737900000000  0.5164770000000 1.0
C      1  0.4907920000000  0.5754640000000  0.5493640000000 1.0
C      1  0.5246100000000  0.5499780000000  0.5773060000000 1.0
C      1  0.5231170000000  0.4820580000000  0.5917370000000 1.0
C      1  0.4387280000000  0.5230680000000  0.5594720000000 1.0
C      1  0.5133350000000  0.5074780000000  0.5943820000000 1.0
C      1  0.5892680000000  0.4796410000000  0.5073870000000 1.0
C      1  0.5363310000000  0.4332240000000  0.5536070000000 1.0
C      1  0.5531940000000  0.5621690000000  0.4907920000000 1.0
C      1  0.4672590000000  0.4971920000000  0.5341210000000 1.0
C      1  0.5870740000000  0.5287920000000  0.4775340000000 1.0
C      1  0.4193670000000  0.4794450000000  0.4579740000000 1.0
C      1  0.4600520000000  0.5099890000000  0.4748840000000 1.0
C      1  0.4138890000000  0.4896720000000  0.5185140000000 1.0
C      1  0.5047600000000  0.5346240000000  0.5927560000000 1.0
C      1  0.5386440000000  0.5800270000000  0.5097570000000 1.0
C      1  0.5010840000000  0.4622180000000  0.5881030000000 1.0
C      1  0.4742900000000  0.5700340000000  0.4335740000000 1.0
C      1  0.5231810000000  0.4534090000000  0.4410570000000 1.0
C      1  0.4780790000000  0.5250410000000  0.4905980000000 1.0
C      1  0.5283060000000  0.3934770000000  0.5306100000000 1.0
C      1  0.4939130000000  0.5421050000000  0.5236050000000 1.0
C      1  0.5205480000000  0.4480070000000  0.4749320000000 1.0
C      1  0.5339580000000  0.4820160000000  0.4375070000000 1.0
C      1  0.4815430000000  0.5903900000000  0.4565430000000 1.0
C      1  0.4616660000000  0.5190050000000  0.5761300000000 1.0
C      1  0.5764780000000  0.5096570000000  0.4314610000000 1.0
C      1  0.5475120000000  0.4355320000000  0.4390910000000 1.0
C      1  0.5903950000000  0.4999750000000  0.4859590000000 1.0
C      1  0.5767440000000  0.4533790000000  0.5003770000000 1.0
C      1  0.5789690000000  0.4941080000000  0.5598440000000 1.0
C      1  0.5136410000000  0.5625570000000  0.4521990000000 1.0
C      1  0.4357040000000  0.4972110000000  0.5432590000000 1.0
C      1  0.4586730000000  0.4995340000000  0.4271280000000 1.0
C      1  0.4695090000000  0.5264330000000  0.5190270000000 1.0
C      1  0.4947450000000  0.4363840000000  0.5750910000000 1.0
C      1  0.4300020000000  0.4497680000000  0.4858190000000 1.0
C      1  0.5502640000000  0.4562750000000  0.5593950000000 1.0
C      1  0.4594600000000  0.4819200000000  0.4795480000000 1.0
C      1  0.4845340000000  0.5073180000000  0.4106490000000 1.0
C      1  0.5942840000000  0.4865370000000  0.5355270000000 1.0
C      1  0.4727190000000  0.5134780000000  0.4494150000000 1.0
C      1  0.5156410000000  0.4085540000000  0.5114870000000 1.0
C      1  0.4960420000000  0.4179230000000  0.5320120000000 1.0
C      1  0.5697770000000  0.4472760000000  0.4727060000000 1.0
C      1  0.4682490000000  0.4341030000000  0.5637300000000 1.0
C      1  0.4994500000000  0.4585380000000  0.4228040000000 1.0
C      1  0.4524310000000  0.5544830000000  0.4383920000000 1.0
C      1  0.5703690000000  0.4524740000000  0.4444800000000 1.0
C      1  0.5394410000000  0.5046800000000  0.5592970000000 1.0
C      1  0.4027550000000  0.5155910000000  0.4724830000000 1.0
C      1  0.5039090000000  0.5299300000000  0.4137230000000 1.0
C      1  0.5127750000000  0.5851130000000  0.4988250000000 1.0
C      1  0.4312580000000  0.5422880000000  0.4462730000000 1.0
C      1  0.4969420000000  0.5056600000000  0.4917000000000 1.0
C      1  0.4678840000000  0.4251100000000  0.5353780000000 1.0
C      1  0.4081960000000  0.5018840000000  0.4958160000000 1.0
C      1  0.5331790000000  0.5227820000000  0.4133440000000 1.0
C      1  0.4541890000000  0.4457050000000  0.5233480000000 1.0
C      1  0.5118360000000  0.4206290000000  0.5565700000000 1.0
END
