TITL C-4164246-3563-371 72.5956622327701 125000 -17895.8987083231 0 0 121 (C1) n - 1
REM
REM in /home/nfs/bkarasulu/CARBON/AIRSS/Generating-Clusters/ReaxFF-fromJPCA2015/Units_Real/with-SteepDescent/Only-C1/SD-CG/Try1-3A/FIRE-CG
REM
REM
REM
REM
REM
REM ./C.cell (11c1c37f851c82e70ff6c80c92926a4b)
REM
REM compiler GCC version 9.2.1 20190827 (Red Hat 9.2.1-1)
REM options -cpp -mtune=generic -march=x86-64 -g -O0 -fpre-include=/usr/include/finclude/math-vector-fortran.h
REM seed 786972761 440189540 287281207 -1984449397 1186521749 -690029442 714553705 -43346351 1626525395 425515878 867398417 -833237981 -1238775579 422402380 1126500452 -983068475 838869409 1645028989 1778637001 -1941629593 225971164 -1981584626 -932721977 793312835 -1672622578 552256339 -1677419201 452726595 1241219317 -1719780150 -2124177753 2935552 1392055304
REM
CELL 1.54180   50.00000   50.00000   50.00000   90.00000   90.00000   90.00000
LATT -1
SFAC C  
C      1  0.5326480000000  0.4309060000000  0.4483280000000 1.0
C      1  0.4786160000000  0.5480850000000  0.4270050000000 1.0
C      1  0.6048700000000  0.4920010000000  0.4944350000000 1.0
C      1  0.4967340000000  0.4645310000000  0.4908990000000 1.0
C      1  0.5101430000000  0.4380610000000  0.4872060000000 1.0
C      1  0.5835440000000  0.4754600000000  0.5162360000000 1.0
C      1  0.5298350000000  0.4381960000000  0.5298690000000 1.0
C      1  0.5606060000000  0.5573810000000  0.4672620000000 1.0
C      1  0.4245000000000  0.5280980000000  0.4531160000000 1.0
C      1  0.4458600000000  0.5572340000000  0.5340540000000 1.0
C      1  0.4719110000000  0.5371100000000  0.5694280000000 1.0
C      1  0.5584090000000  0.4483100000000  0.5729790000000 1.0
C      1  0.5742590000000  0.5121010000000  0.4733980000000 1.0
C      1  0.4435770000000  0.5277310000000  0.5722490000000 1.0
C      1  0.4721420000000  0.5704410000000  0.5387790000000 1.0
C      1  0.5374230000000  0.5099670000000  0.5804360000000 1.0
C      1  0.4435850000000  0.4808970000000  0.4976470000000 1.0
C      1  0.4799370000000  0.5173280000000  0.5490890000000 1.0
C      1  0.4741070000000  0.4157320000000  0.4674490000000 1.0
C      1  0.5422370000000  0.5102010000000  0.5236160000000 1.0
C      1  0.4796890000000  0.5854280000000  0.5182090000000 1.0
C      1  0.5302470000000  0.5134110000000  0.5515540000000 1.0
C      1  0.5421780000000  0.4550460000000  0.5970090000000 1.0
C      1  0.4435680000000  0.4990780000000  0.5825080000000 1.0
C      1  0.5049430000000  0.5147260000000  0.4481070000000 1.0
C      1  0.4988270000000  0.4144810000000  0.5015500000000 1.0
C      1  0.5357870000000  0.4276520000000  0.4776720000000 1.0
C      1  0.4571250000000  0.4197030000000  0.5218140000000 1.0
C      1  0.4821010000000  0.4304820000000  0.4437650000000 1.0
C      1  0.4821910000000  0.5156050000000  0.5025210000000 1.0
C      1  0.4750050000000  0.5899740000000  0.4540540000000 1.0
C      1  0.5099410000000  0.4900550000000  0.4904100000000 1.0
C      1  0.4992430000000  0.4718810000000  0.5447780000000 1.0
C      1  0.5181640000000  0.5429650000000  0.4137840000000 1.0
C      1  0.4934740000000  0.5116660000000  0.6019960000000 1.0
C      1  0.4742910000000  0.4646790000000  0.5309830000000 1.0
C      1  0.4598050000000  0.5666510000000  0.4406620000000 1.0
C      1  0.4663940000000  0.5132310000000  0.5236200000000 1.0
C      1  0.4798630000000  0.5047620000000  0.4547270000000 1.0
C      1  0.4570510000000  0.4585870000000  0.5537750000000 1.0
C      1  0.4363870000000  0.5552150000000  0.4543700000000 1.0
C      1  0.5104330000000  0.5168480000000  0.5046060000000 1.0
C      1  0.4988270000000  0.5928140000000  0.5004960000000 1.0
C      1  0.5486040000000  0.4958220000000  0.4257800000000 1.0
C      1  0.5294920000000  0.5809280000000  0.4509350000000 1.0
C      1  0.5009660000000  0.5758190000000  0.4554620000000 1.0
C      1  0.4157970000000  0.4672540000000  0.4935490000000 1.0
C      1  0.4455270000000  0.5650450000000  0.4809030000000 1.0
C      1  0.5141260000000  0.5447320000000  0.4940050000000 1.0
C      1  0.4941690000000  0.5397430000000  0.5886220000000 1.0
C      1  0.4192500000000  0.5113010000000  0.5298430000000 1.0
C      1  0.5004020000000  0.4846350000000  0.4088510000000 1.0
C      1  0.4327480000000  0.5660950000000  0.5084780000000 1.0
C      1  0.4424250000000  0.5022070000000  0.5157530000000 1.0
C      1  0.5543710000000  0.5523250000000  0.5416600000000 1.0
C      1  0.5839140000000  0.5371680000000  0.5166070000000 1.0
C      1  0.4343260000000  0.5105420000000  0.4325540000000 1.0
C      1  0.5242660000000  0.5714440000000  0.5025060000000 1.0
C      1  0.5040990000000  0.5010120000000  0.5487710000000 1.0
C      1  0.4640040000000  0.5000780000000  0.4297230000000 1.0
C      1  0.5562430000000  0.5300840000000  0.4804600000000 1.0
C      1  0.5289270000000  0.5019050000000  0.4474540000000 1.0
C      1  0.5102390000000  0.5524620000000  0.5693430000000 1.0
C      1  0.4592040000000  0.4495980000000  0.4444550000000 1.0
C      1  0.5641540000000  0.5098880000000  0.5749920000000 1.0
C      1  0.4358120000000  0.4768380000000  0.5630720000000 1.0
C      1  0.4238880000000  0.4827890000000  0.4302970000000 1.0
C      1  0.5054270000000  0.4209140000000  0.5292440000000 1.0
C      1  0.4794570000000  0.5994340000000  0.4807610000000 1.0
C      1  0.6042710000000  0.5202270000000  0.5025930000000 1.0
C      1  0.5831930000000  0.4576750000000  0.5579400000000 1.0
C      1  0.5653180000000  0.4333780000000  0.4870860000000 1.0
C      1  0.5036520000000  0.5655920000000  0.5479960000000 1.0
C      1  0.5436990000000  0.4670670000000  0.4835430000000 1.0
C      1  0.5450540000000  0.4670620000000  0.4200270000000 1.0
C      1  0.5414460000000  0.5761630000000  0.4773940000000 1.0
C      1  0.5655110000000  0.4550390000000  0.4671630000000 1.0
C      1  0.5898490000000  0.4829460000000  0.5452950000000 1.0
C      1  0.5859640000000  0.5098690000000  0.5577730000000 1.0
C      1  0.5303470000000  0.4874170000000  0.4711300000000 1.0
C      1  0.4791450000000  0.4222090000000  0.5415630000000 1.0
C      1  0.5044950000000  0.5396700000000  0.4394400000000 1.0
C      1  0.3975880000000  0.4880220000000  0.4772600000000 1.0
C      1  0.5511270000000  0.4316530000000  0.5487290000000 1.0
C      1  0.4161620000000  0.4584000000000  0.5243570000000 1.0
C      1  0.4514140000000  0.4721410000000  0.4279150000000 1.0
C      1  0.4088090000000  0.4797000000000  0.4540550000000 1.0
C      1  0.5545820000000  0.4483170000000  0.4402380000000 1.0
C      1  0.4766250000000  0.4396560000000  0.5652920000000 1.0
C      1  0.5149410000000  0.4670330000000  0.5937900000000 1.0
C      1  0.5157700000000  0.4615280000000  0.4157080000000 1.0
C      1  0.5590750000000  0.5277690000000  0.5072620000000 1.0
C      1  0.5370820000000  0.4613960000000  0.5123950000000 1.0
C      1  0.4848350000000  0.5067250000000  0.4050250000000 1.0
C      1  0.5738400000000  0.4924810000000  0.4374170000000 1.0
C      1  0.4128960000000  0.5485420000000  0.5008020000000 1.0
C      1  0.5086540000000  0.4391490000000  0.4338930000000 1.0
C      1  0.4681570000000  0.4641820000000  0.5006100000000 1.0
C      1  0.5884480000000  0.4971240000000  0.4602210000000 1.0
C      1  0.5001740000000  0.4569190000000  0.5695170000000 1.0
C      1  0.4179380000000  0.4818040000000  0.5414140000000 1.0
C      1  0.4683780000000  0.5460430000000  0.4795190000000 1.0
C      1  0.4350320000000  0.4371370000000  0.5235410000000 1.0
C      1  0.5781160000000  0.4365210000000  0.5373880000000 1.0
C      1  0.5631430000000  0.5563630000000  0.4366280000000 1.0
C      1  0.4681960000000  0.5022520000000  0.5944390000000 1.0
C      1  0.5305380000000  0.5658670000000  0.5353330000000 1.0
C      1  0.4489050000000  0.4479030000000  0.4726830000000 1.0
C      1  0.5795000000000  0.4449950000000  0.5097960000000 1.0
C      1  0.5175470000000  0.4957310000000  0.5987230000000 1.0
C      1  0.4327970000000  0.5344950000000  0.5464910000000 1.0
C      1  0.5362670000000  0.5634360000000  0.4264760000000 1.0
C      1  0.4032650000000  0.5230710000000  0.5037660000000 1.0
C      1  0.4952020000000  0.5547130000000  0.4750280000000 1.0
C      1  0.4705380000000  0.4097960000000  0.4951840000000 1.0
C      1  0.4219300000000  0.4399570000000  0.4768800000000 1.0
C      1  0.5542170000000  0.4827440000000  0.5214380000000 1.0
C      1  0.4056590000000  0.5166140000000  0.4752200000000 1.0
C      1  0.5788660000000  0.5376630000000  0.5456030000000 1.0
C      1  0.4684080000000  0.5171810000000  0.4778950000000 1.0
C      1  0.4911240000000  0.5358860000000  0.4025980000000 1.0
END
