TITL C-4164246-3563-316 2.90592615653599 125000 -16455.5884955869 0 0 109 (C1) n - 1
REM
REM in /home/nfs/bkarasulu/CARBON/AIRSS/Generating-Clusters/ReaxFF-fromJPCA2015/Units_Real/with-SteepDescent/Only-C1/SD-CG/Try1-3A/FIRE-CG
REM
REM
REM
REM
REM
REM ./C.cell (11c1c37f851c82e70ff6c80c92926a4b)
REM
REM compiler GCC version 9.2.1 20190827 (Red Hat 9.2.1-1)
REM options -cpp -mtune=generic -march=x86-64 -g -O0 -fpre-include=/usr/include/finclude/math-vector-fortran.h
REM seed 1337463209 -1162270080 -1390600809 1669927607 905527093 1401201313 -1629959458 873509248 1414727876 -1749530651 -129446490 1074184908 103166252 -1845049318 -209114549 1263800318 2058020374 185039048 1781230825 -2085926512 1894600158 -152076084 -1354309316 143787920 714457185 2090377713 1027178779 1115000618 9303809 -75349004 820215908 38880059 -1833903927
REM
CELL 1.54180   50.00000   50.00000   50.00000   90.00000   90.00000   90.00000
LATT -1
SFAC C  
C      1  0.4574120000000  0.5578020000000  0.4576930000000 1.0
C      1  0.4182860000000  0.5314210000000  0.5154950000000 1.0
C      1  0.5523020000000  0.5236820000000  0.4485410000000 1.0
C      1  0.5681840000000  0.4572050000000  0.5268580000000 1.0
C      1  0.4646950000000  0.4736540000000  0.4719250000000 1.0
C      1  0.5302850000000  0.4927080000000  0.5148750000000 1.0
C      1  0.5188960000000  0.4712680000000  0.4147050000000 1.0
C      1  0.4587090000000  0.4864120000000  0.4245350000000 1.0
C      1  0.4296620000000  0.4824360000000  0.4302990000000 1.0
C      1  0.4637790000000  0.4477180000000  0.4579560000000 1.0
C      1  0.5018240000000  0.5615930000000  0.5410580000000 1.0
C      1  0.4635770000000  0.5500550000000  0.4864280000000 1.0
C      1  0.4648730000000  0.5060540000000  0.5821880000000 1.0
C      1  0.5555640000000  0.4614360000000  0.4419990000000 1.0
C      1  0.5345270000000  0.4483950000000  0.4261140000000 1.0
C      1  0.4498090000000  0.4513290000000  0.5314170000000 1.0
C      1  0.5116370000000  0.5403070000000  0.4661440000000 1.0
C      1  0.5634410000000  0.5279160000000  0.5155900000000 1.0
C      1  0.5404580000000  0.5139260000000  0.4984580000000 1.0
C      1  0.4263380000000  0.5399140000000  0.5556770000000 1.0
C      1  0.4180310000000  0.5559430000000  0.5338220000000 1.0
C      1  0.4336710000000  0.4413380000000  0.4590470000000 1.0
C      1  0.4613340000000  0.5909600000000  0.5420020000000 1.0
C      1  0.5882090000000  0.5220030000000  0.4992800000000 1.0
C      1  0.4594810000000  0.5125510000000  0.5418300000000 1.0
C      1  0.5237620000000  0.5130800000000  0.5631360000000 1.0
C      1  0.5325730000000  0.5574360000000  0.5422660000000 1.0
C      1  0.5427590000000  0.5347890000000  0.5575810000000 1.0
C      1  0.4867240000000  0.4296350000000  0.5537300000000 1.0
C      1  0.5867940000000  0.4476330000000  0.4893860000000 1.0
C      1  0.4449390000000  0.4703230000000  0.5549470000000 1.0
C      1  0.5426770000000  0.4661870000000  0.5120790000000 1.0
C      1  0.5541980000000  0.5578840000000  0.5235650000000 1.0
C      1  0.4575710000000  0.5519060000000  0.5343660000000 1.0
C      1  0.4335040000000  0.5283070000000  0.4427810000000 1.0
C      1  0.4899770000000  0.4577440000000  0.5677230000000 1.0
C      1  0.5243240000000  0.5000410000000  0.4136700000000 1.0
C      1  0.5105280000000  0.4991790000000  0.5386510000000 1.0
C      1  0.4649650000000  0.4776680000000  0.5739280000000 1.0
C      1  0.5316010000000  0.5153630000000  0.4700320000000 1.0
C      1  0.5181580000000  0.4598590000000  0.5829170000000 1.0
C      1  0.4745840000000  0.5803660000000  0.4528560000000 1.0
C      1  0.5224340000000  0.4302900000000  0.4460960000000 1.0
C      1  0.4907580000000  0.4825330000000  0.4818800000000 1.0
C      1  0.5051140000000  0.4067750000000  0.5163390000000 1.0
C      1  0.4138900000000  0.4833390000000  0.4741120000000 1.0
C      1  0.5413990000000  0.4504210000000  0.5675190000000 1.0
C      1  0.5518000000000  0.5815800000000  0.4778050000000 1.0
C      1  0.4875870000000  0.5524980000000  0.5689740000000 1.0
C      1  0.4155510000000  0.5023210000000  0.5213760000000 1.0
C      1  0.4170360000000  0.4645750000000  0.4508080000000 1.0
C      1  0.4397060000000  0.5344480000000  0.4957030000000 1.0
C      1  0.4492960000000  0.5264050000000  0.5655990000000 1.0
C      1  0.4249290000000  0.4536830000000  0.5111670000000 1.0
C      1  0.5702340000000  0.4864470000000  0.4372820000000 1.0
C      1  0.5657210000000  0.5191720000000  0.5461500000000 1.0
C      1  0.5657120000000  0.4310420000000  0.4825900000000 1.0
C      1  0.4182620000000  0.5056300000000  0.4424230000000 1.0
C      1  0.5571240000000  0.4285950000000  0.5280310000000 1.0
C      1  0.4266940000000  0.4432390000000  0.4858820000000 1.0
C      1  0.5516520000000  0.4149340000000  0.5028290000000 1.0
C      1  0.5365490000000  0.4669630000000  0.4640350000000 1.0
C      1  0.4117530000000  0.4789910000000  0.5035160000000 1.0
C      1  0.5506540000000  0.5058940000000  0.4257110000000 1.0
C      1  0.4570690000000  0.5364810000000  0.4355990000000 1.0
C      1  0.5109050000000  0.4197990000000  0.4703510000000 1.0
C      1  0.5007710000000  0.5182330000000  0.4204230000000 1.0
C      1  0.4643490000000  0.5670270000000  0.5605550000000 1.0
C      1  0.4738460000000  0.4635190000000  0.4333540000000 1.0
C      1  0.4802540000000  0.5962460000000  0.5056100000000 1.0
C      1  0.5167950000000  0.4859120000000  0.5926210000000 1.0
C      1  0.5640340000000  0.4666260000000  0.5563490000000 1.0
C      1  0.5807940000000  0.5264150000000  0.4556080000000 1.0
C      1  0.5652080000000  0.4933080000000  0.5526870000000 1.0
C      1  0.5909850000000  0.4949960000000  0.4884830000000 1.0
C      1  0.4363380000000  0.4945940000000  0.5404400000000 1.0
C      1  0.4727450000000  0.5128780000000  0.4243610000000 1.0
C      1  0.4847820000000  0.4321990000000  0.4829660000000 1.0
C      1  0.5124700000000  0.5134300000000  0.5904930000000 1.0
C      1  0.4929110000000  0.5698530000000  0.4315030000000 1.0
C      1  0.4863630000000  0.5268810000000  0.5833920000000 1.0
C      1  0.5376270000000  0.4278300000000  0.5497800000000 1.0
C      1  0.5243730000000  0.4086380000000  0.4944270000000 1.0
C      1  0.5104860000000  0.4170450000000  0.5438650000000 1.0
C      1  0.4844940000000  0.5975130000000  0.4773010000000 1.0
C      1  0.5004820000000  0.4743730000000  0.4371340000000 1.0
C      1  0.5450620000000  0.4532950000000  0.4865880000000 1.0
C      1  0.5901300000000  0.4700200000000  0.5041390000000 1.0
C      1  0.5868830000000  0.4981920000000  0.4589480000000 1.0
C      1  0.5056110000000  0.5432800000000  0.4353470000000 1.0
C      1  0.4533160000000  0.5095100000000  0.4913530000000 1.0
C      1  0.5786970000000  0.5698800000000  0.4824550000000 1.0
C      1  0.4663720000000  0.4253030000000  0.5334660000000 1.0
C      1  0.4874590000000  0.5345720000000  0.4821690000000 1.0
C      1  0.4843320000000  0.5167720000000  0.5257300000000 1.0
C      1  0.4836330000000  0.5462250000000  0.5224410000000 1.0
C      1  0.4780180000000  0.4645400000000  0.5217200000000 1.0
C      1  0.4960520000000  0.4730710000000  0.5422350000000 1.0
C      1  0.4883170000000  0.5895660000000  0.5311270000000 1.0
C      1  0.5115360000000  0.5907050000000  0.4798340000000 1.0
C      1  0.5257470000000  0.5686680000000  0.4747890000000 1.0
C      1  0.5891100000000  0.5426290000000  0.4788820000000 1.0
C      1  0.4816040000000  0.5095420000000  0.4947970000000 1.0
C      1  0.4430400000000  0.4918790000000  0.4720960000000 1.0
C      1  0.4915890000000  0.4572460000000  0.4974920000000 1.0
C      1  0.4791290000000  0.4164480000000  0.5084460000000 1.0
C      1  0.5631390000000  0.5785930000000  0.5054830000000 1.0
C      1  0.5140390000000  0.4860030000000  0.4624760000000 1.0
C      1  0.4406290000000  0.5750680000000  0.5273080000000 1.0
END
