TITL C-4164242-3624-684 80.7288954404973 125000 -18576.3940684177 0 0 126 (C1) n - 1
REM
REM in /home/nfs/bkarasulu/CARBON/AIRSS/Generating-Clusters/ReaxFF-fromJPCA2015/Units_Real/with-SteepDescent/Only-C1/SD-CG/Try1-3A/FIRE-CG
REM
REM
REM
REM
REM
REM ./C.cell (11c1c37f851c82e70ff6c80c92926a4b)
REM
REM compiler GCC version 9.2.1 20190827 (Red Hat 9.2.1-1)
REM options -cpp -mtune=generic -march=x86-64 -g -O0 -fpre-include=/usr/include/finclude/math-vector-fortran.h
REM seed -749232658 -1707245644 -895423618 -1721588763 2085544889 214667681 1687191540 -1263615314 -17310731 324400414 28087391 -766555753 1709763742 -1496133539 -1603497644 528234390 1637448554 1442301617 1052372930 356328634 451513753 -33543983 -1633102219 -181124848 -652657897 1111914827 89778140 -1142146689 -1417914520 323470158 637899572 220843627 -1026428165
REM
CELL 1.54180   50.00000   50.00000   50.00000   90.00000   90.00000   90.00000
LATT -1
SFAC C  
C      1  0.5739640000000  0.4420880000000  0.5114750000000 1.0
C      1  0.4960650000000  0.4983320000000  0.5591950000000 1.0
C      1  0.5235790000000  0.4341760000000  0.4450810000000 1.0
C      1  0.4636110000000  0.5240820000000  0.5835990000000 1.0
C      1  0.4705630000000  0.4618300000000  0.4901790000000 1.0
C      1  0.5918400000000  0.5283420000000  0.4950520000000 1.0
C      1  0.4487150000000  0.4481030000000  0.5655280000000 1.0
C      1  0.5956490000000  0.4888390000000  0.4573900000000 1.0
C      1  0.5086700000000  0.4697570000000  0.5330640000000 1.0
C      1  0.5020690000000  0.4400340000000  0.5813730000000 1.0
C      1  0.5447070000000  0.5661670000000  0.4195530000000 1.0
C      1  0.5360960000000  0.5694220000000  0.5533300000000 1.0
C      1  0.4415390000000  0.4789080000000  0.5621260000000 1.0
C      1  0.5169530000000  0.5950010000000  0.5004740000000 1.0
C      1  0.4123300000000  0.4842170000000  0.5563120000000 1.0
C      1  0.4666930000000  0.4600930000000  0.4156050000000 1.0
C      1  0.4536880000000  0.4972810000000  0.5822180000000 1.0
C      1  0.6081970000000  0.4847360000000  0.4974370000000 1.0
C      1  0.5410180000000  0.5879810000000  0.4893850000000 1.0
C      1  0.4185870000000  0.5097890000000  0.4420150000000 1.0
C      1  0.4242960000000  0.4402310000000  0.4619490000000 1.0
C      1  0.5119880000000  0.5857150000000  0.5469750000000 1.0
C      1  0.5666410000000  0.5614610000000  0.4587690000000 1.0
C      1  0.5178100000000  0.4347400000000  0.4737570000000 1.0
C      1  0.4280350000000  0.5352660000000  0.4552440000000 1.0
C      1  0.5272430000000  0.4140490000000  0.4925860000000 1.0
C      1  0.4784780000000  0.5808010000000  0.5053160000000 1.0
C      1  0.5343580000000  0.4627250000000  0.4439680000000 1.0
C      1  0.5494110000000  0.4294680000000  0.5304110000000 1.0
C      1  0.4175350000000  0.4836160000000  0.5085180000000 1.0
C      1  0.5456410000000  0.5807400000000  0.4613440000000 1.0
C      1  0.4584530000000  0.4225940000000  0.5195100000000 1.0
C      1  0.4702310000000  0.4482170000000  0.5145930000000 1.0
C      1  0.4364380000000  0.5771300000000  0.4778260000000 1.0
C      1  0.5234130000000  0.5487370000000  0.5098890000000 1.0
C      1  0.5260390000000  0.5754520000000  0.4393360000000 1.0
C      1  0.5427360000000  0.4968640000000  0.5538630000000 1.0
C      1  0.5499820000000  0.5195470000000  0.4786830000000 1.0
C      1  0.4703290000000  0.5615600000000  0.5532610000000 1.0
C      1  0.5058040000000  0.4085510000000  0.5107990000000 1.0
C      1  0.4766060000000  0.5645410000000  0.4557630000000 1.0
C      1  0.4582430000000  0.5152860000000  0.4955470000000 1.0
C      1  0.4905560000000  0.4815820000000  0.4843060000000 1.0
C      1  0.4815180000000  0.5068930000000  0.4722730000000 1.0
C      1  0.5241630000000  0.4670430000000  0.5098320000000 1.0
C      1  0.5213670000000  0.4614950000000  0.5838290000000 1.0
C      1  0.5665870000000  0.5527440000000  0.4311810000000 1.0
C      1  0.4242230000000  0.5650480000000  0.4531390000000 1.0
C      1  0.4738700000000  0.4678330000000  0.4435980000000 1.0
C      1  0.5192440000000  0.4808230000000  0.5573780000000 1.0
C      1  0.5211490000000  0.5215090000000  0.5201110000000 1.0
C      1  0.5861930000000  0.5182920000000  0.5214890000000 1.0
C      1  0.4929620000000  0.4492830000000  0.4097150000000 1.0
C      1  0.4154370000000  0.5444970000000  0.5212780000000 1.0
C      1  0.4951870000000  0.4950000000000  0.6049730000000 1.0
C      1  0.5578000000000  0.5607540000000  0.5354040000000 1.0
C      1  0.5010140000000  0.4269240000000  0.4281240000000 1.0
C      1  0.5541790000000  0.4186930000000  0.5057200000000 1.0
C      1  0.4099680000000  0.5139340000000  0.5577880000000 1.0
C      1  0.4613370000000  0.4877280000000  0.5347220000000 1.0
C      1  0.4814690000000  0.4622070000000  0.5366690000000 1.0
C      1  0.4798640000000  0.4853710000000  0.5809950000000 1.0
C      1  0.4514970000000  0.5427010000000  0.5645760000000 1.0
C      1  0.4992650000000  0.5959630000000  0.5207150000000 1.0
C      1  0.5186850000000  0.5286560000000  0.5881680000000 1.0
C      1  0.5504030000000  0.5626480000000  0.5064790000000 1.0
C      1  0.4768480000000  0.4537110000000  0.5686090000000 1.0
C      1  0.5135660000000  0.4285930000000  0.5592250000000 1.0
C      1  0.4719920000000  0.5580460000000  0.5239200000000 1.0
C      1  0.4401130000000  0.5353480000000  0.4818380000000 1.0
C      1  0.4849550000000  0.5082400000000  0.5343440000000 1.0
C      1  0.4727640000000  0.4968620000000  0.4465040000000 1.0
C      1  0.4532500000000  0.4842270000000  0.4060300000000 1.0
C      1  0.4735620000000  0.5296850000000  0.5182780000000 1.0
C      1  0.4665290000000  0.5808110000000  0.4776230000000 1.0
C      1  0.4619040000000  0.4536170000000  0.4656260000000 1.0
C      1  0.5178740000000  0.5479030000000  0.4615240000000 1.0
C      1  0.4256140000000  0.5373110000000  0.5497440000000 1.0
C      1  0.5720440000000  0.4710920000000  0.5623630000000 1.0
C      1  0.5605690000000  0.4958410000000  0.5767350000000 1.0
C      1  0.5218510000000  0.4835050000000  0.6026510000000 1.0
C      1  0.4014160000000  0.5003310000000  0.4898710000000 1.0
C      1  0.4609480000000  0.5074160000000  0.4220600000000 1.0
C      1  0.4867040000000  0.4136550000000  0.4504730000000 1.0
C      1  0.4489240000000  0.4288060000000  0.4643550000000 1.0
C      1  0.5227770000000  0.4184270000000  0.5355930000000 1.0
C      1  0.4047740000000  0.4689730000000  0.5320240000000 1.0
C      1  0.5112150000000  0.4613550000000  0.4848480000000 1.0
C      1  0.5082930000000  0.5539860000000  0.4868850000000 1.0
C      1  0.4051690000000  0.5240220000000  0.5047400000000 1.0
C      1  0.5002820000000  0.5425410000000  0.4160190000000 1.0
C      1  0.5247470000000  0.5218840000000  0.4135480000000 1.0
C      1  0.4315000000000  0.5569390000000  0.4996870000000 1.0
C      1  0.6002160000000  0.4658210000000  0.4759380000000 1.0
C      1  0.5682030000000  0.4860970000000  0.4480690000000 1.0
C      1  0.4695830000000  0.4088590000000  0.4733960000000 1.0
C      1  0.4069470000000  0.4910680000000  0.4610850000000 1.0
C      1  0.4958030000000  0.5705330000000  0.5656830000000 1.0
C      1  0.5413100000000  0.5194910000000  0.5404400000000 1.0
C      1  0.5331580000000  0.4896960000000  0.4060600000000 1.0
C      1  0.5782850000000  0.4664290000000  0.5339590000000 1.0
C      1  0.5555730000000  0.4707700000000  0.4718100000000 1.0
C      1  0.4899930000000  0.5414370000000  0.4693460000000 1.0
C      1  0.4408670000000  0.4291190000000  0.5439900000000 1.0
C      1  0.5683350000000  0.5440800000000  0.4839020000000 1.0
C      1  0.4963160000000  0.5644460000000  0.4326760000000 1.0
C      1  0.4139280000000  0.4638240000000  0.4609110000000 1.0
C      1  0.5197380000000  0.5537140000000  0.5732780000000 1.0
C      1  0.5757390000000  0.4521100000000  0.4836230000000 1.0
C      1  0.4777640000000  0.4077460000000  0.5032320000000 1.0
C      1  0.5331420000000  0.5087770000000  0.4968340000000 1.0
C      1  0.5381140000000  0.5061270000000  0.5929130000000 1.0
C      1  0.4445420000000  0.4927030000000  0.5116600000000 1.0
C      1  0.5480920000000  0.5401120000000  0.4124960000000 1.0
C      1  0.5920130000000  0.4890690000000  0.5218150000000 1.0
C      1  0.5202060000000  0.5084780000000  0.4400260000000 1.0
C      1  0.5434940000000  0.4840110000000  0.4969150000000 1.0
C      1  0.5308680000000  0.5241310000000  0.4602520000000 1.0
C      1  0.5525290000000  0.4778450000000  0.4242890000000 1.0
C      1  0.4910360000000  0.5219140000000  0.5964060000000 1.0
C      1  0.5084630000000  0.4746690000000  0.4105460000000 1.0
C      1  0.6050360000000  0.5076340000000  0.4792240000000 1.0
C      1  0.5105020000000  0.4810020000000  0.4395030000000 1.0
C      1  0.4184800000000  0.4453590000000  0.5381700000000 1.0
C      1  0.5669260000000  0.5333760000000  0.5382800000000 1.0
C      1  0.4324340000000  0.5023410000000  0.4173920000000 1.0
END
