TITL C-4164239-2837-546 5.08185061223644 125000 -7424.95890587973 0 0 51 (C1) n - 1
REM
REM in /home/nfs/bkarasulu/CARBON/AIRSS/Generating-Clusters/ReaxFF-fromJPCA2015/Units_Real/with-SteepDescent/Only-C1/SD-CG/Try1-3A/FIRE-CG
REM
REM
REM
REM
REM
REM ./C.cell (11c1c37f851c82e70ff6c80c92926a4b)
REM
REM compiler GCC version 9.2.1 20190827 (Red Hat 9.2.1-1)
REM options -cpp -mtune=generic -march=x86-64 -g -O0 -fpre-include=/usr/include/finclude/math-vector-fortran.h
REM seed 165292051 1116202659 -1478269103 2138578926 -1208506713 1232628575 -1728562041 1810811061 229514426 693088951 985361709 -1014686601 -2136384317 -354437029 -1459099584 -604016347 1974459722 421454008 -549757696 544702045 1911096584 609725135 -2133965114 1079620148 199440223 -1025717278 30747087 2083912627 -1112131997 -1326338289 -666633389 575088637 993811756
REM
CELL 1.54180   50.00000   50.00000   50.00000   90.00000   90.00000   90.00000
LATT -1
SFAC C  
C      1  0.5544770000000  0.5024260000000  0.5277990000000 1.0
C      1  0.5547830000000  0.4627550000000  0.5208720000000 1.0
C      1  0.5202590000000  0.4607340000000  0.4821420000000 1.0
C      1  0.5157750000000  0.5732980000000  0.4585000000000 1.0
C      1  0.5119880000000  0.5152280000000  0.4736120000000 1.0
C      1  0.5117350000000  0.4891270000000  0.4893850000000 1.0
C      1  0.5134430000000  0.4658650000000  0.4317060000000 1.0
C      1  0.4553190000000  0.5519110000000  0.5062710000000 1.0
C      1  0.5173220000000  0.4961700000000  0.4311450000000 1.0
C      1  0.5392450000000  0.4800200000000  0.5373580000000 1.0
C      1  0.4688700000000  0.4671920000000  0.5530820000000 1.0
C      1  0.5319770000000  0.4595810000000  0.4530620000000 1.0
C      1  0.5547240000000  0.4772920000000  0.4555670000000 1.0
C      1  0.5029130000000  0.5523480000000  0.5160800000000 1.0
C      1  0.4930670000000  0.4797190000000  0.5615130000000 1.0
C      1  0.4541800000000  0.4662830000000  0.4949660000000 1.0
C      1  0.4938990000000  0.5642380000000  0.4775020000000 1.0
C      1  0.4411550000000  0.4709480000000  0.4668300000000 1.0
C      1  0.5378000000000  0.5242890000000  0.4568280000000 1.0
C      1  0.4725670000000  0.4422230000000  0.5339880000000 1.0
C      1  0.5349410000000  0.5525950000000  0.4487050000000 1.0
C      1  0.4954690000000  0.4894030000000  0.5129470000000 1.0
C      1  0.5099910000000  0.5429520000000  0.4892030000000 1.0
C      1  0.4571540000000  0.5106710000000  0.5706490000000 1.0
C      1  0.4526620000000  0.5415040000000  0.4801360000000 1.0
C      1  0.5611270000000  0.5526890000000  0.5286150000000 1.0
C      1  0.4605840000000  0.5358330000000  0.5562870000000 1.0
C      1  0.4655560000000  0.4896700000000  0.5079800000000 1.0
C      1  0.4522380000000  0.4917360000000  0.4507900000000 1.0
C      1  0.5096200000000  0.4811740000000  0.5377150000000 1.0
C      1  0.4880630000000  0.5067470000000  0.5783150000000 1.0
C      1  0.4922040000000  0.4511270000000  0.4431670000000 1.0
C      1  0.5448610000000  0.5010350000000  0.4411160000000 1.0
C      1  0.4932510000000  0.4412760000000  0.4846180000000 1.0
C      1  0.5643550000000  0.4726430000000  0.4830270000000 1.0
C      1  0.4537640000000  0.5309020000000  0.4594960000000 1.0
C      1  0.4792290000000  0.4415090000000  0.4621210000000 1.0
C      1  0.4686460000000  0.5130980000000  0.4420770000000 1.0
C      1  0.4497580000000  0.4893110000000  0.5519320000000 1.0
C      1  0.5276110000000  0.5394660000000  0.5464170000000 1.0
C      1  0.4846700000000  0.4219840000000  0.5439980000000 1.0
C      1  0.5699970000000  0.4850450000000  0.5099550000000 1.0
C      1  0.4699630000000  0.4430080000000  0.5020230000000 1.0
C      1  0.4503750000000  0.5332580000000  0.5289470000000 1.0
C      1  0.5047070000000  0.5361610000000  0.5396980000000 1.0
C      1  0.5511780000000  0.5300900000000  0.5373580000000 1.0
C      1  0.4805470000000  0.5675530000000  0.5039950000000 1.0
C      1  0.4480180000000  0.5042560000000  0.5263130000000 1.0
C      1  0.4980800000000  0.5120470000000  0.4455440000000 1.0
C      1  0.4894680000000  0.5354770000000  0.5625730000000 1.0
C      1  0.5464150000000  0.4541310000000  0.4960760000000 1.0
END
