TITL C-4164244-2836-571 9.291435140111 125000 -22463.8854015735 0 0 151 (C1) n - 1
REM
REM in /home/nfs/bkarasulu/CARBON/AIRSS/Generating-Clusters/ReaxFF-fromJPCA2015/Units_Real/with-SteepDescent/Only-C1/SD-CG/Try1-3A/FIRE-CG
REM
REM
REM
REM
REM
REM ./C.cell (11c1c37f851c82e70ff6c80c92926a4b)
REM
REM compiler GCC version 9.2.1 20190827 (Red Hat 9.2.1-1)
REM options -cpp -mtune=generic -march=x86-64 -g -O0 -fpre-include=/usr/include/finclude/math-vector-fortran.h
REM seed 1874738291 469820959 -9896370 950538818 -690621601 -717979543 -1367104573 -567240327 -2072602828 1978341962 663986915 1394548113 338575125 -1778251855 -186630244 -164295588 -461704238 -586824613 -178283295 -451967710 -268710743 -1952861320 380529802 -1966000134 -1800699233 -661309448 1643097816 -287503474 -1816589503 -342453729 -1473118835 -1965508546 -1444063723
REM
CELL 1.54180   50.00000   50.00000   50.00000   90.00000   90.00000   90.00000
LATT -1
SFAC C  
C      1  0.4480610000000  0.4653180000000  0.4288810000000 1.0
C      1  0.4849140000000  0.3977770000000  0.4897900000000 1.0
C      1  0.4366140000000  0.5823230000000  0.5088330000000 1.0
C      1  0.4907380000000  0.4691780000000  0.4538580000000 1.0
C      1  0.5053370000000  0.4712100000000  0.6013770000000 1.0
C      1  0.4528320000000  0.5353330000000  0.4118250000000 1.0
C      1  0.5367490000000  0.4831330000000  0.3974890000000 1.0
C      1  0.5013060000000  0.5127680000000  0.6045570000000 1.0
C      1  0.3954170000000  0.5164640000000  0.5132430000000 1.0
C      1  0.4186920000000  0.4969280000000  0.4360310000000 1.0
C      1  0.4874280000000  0.5731190000000  0.4255650000000 1.0
C      1  0.4948350000000  0.5953070000000  0.4747050000000 1.0
C      1  0.5034930000000  0.5874650000000  0.4442410000000 1.0
C      1  0.4741360000000  0.4060800000000  0.5327990000000 1.0
C      1  0.4362610000000  0.4649130000000  0.5550110000000 1.0
C      1  0.5297130000000  0.5779680000000  0.5619320000000 1.0
C      1  0.4864980000000  0.4494100000000  0.6072700000000 1.0
C      1  0.3911630000000  0.5084540000000  0.5449140000000 1.0
C      1  0.4551960000000  0.5186770000000  0.5870020000000 1.0
C      1  0.5834840000000  0.4610890000000  0.5143190000000 1.0
C      1  0.5378410000000  0.5896430000000  0.5103120000000 1.0
C      1  0.5914260000000  0.4796370000000  0.4492660000000 1.0
C      1  0.5004610000000  0.4107270000000  0.4475740000000 1.0
C      1  0.5020770000000  0.5529700000000  0.4110670000000 1.0
C      1  0.4139810000000  0.4534850000000  0.4652890000000 1.0
C      1  0.4973180000000  0.5444580000000  0.4587630000000 1.0
C      1  0.5162430000000  0.4918900000000  0.5242380000000 1.0
C      1  0.4427960000000  0.4376810000000  0.5520020000000 1.0
C      1  0.4787270000000  0.5309980000000  0.5985390000000 1.0
C      1  0.4319670000000  0.5323630000000  0.5732650000000 1.0
C      1  0.5438760000000  0.5228190000000  0.4098530000000 1.0
C      1  0.4226230000000  0.5640720000000  0.5278050000000 1.0
C      1  0.5219460000000  0.4762680000000  0.4951410000000 1.0
C      1  0.5535470000000  0.4492260000000  0.4763990000000 1.0
C      1  0.5976010000000  0.4678900000000  0.4895820000000 1.0
C      1  0.4624390000000  0.4327780000000  0.4692240000000 1.0
C      1  0.5425200000000  0.5274720000000  0.5625870000000 1.0
C      1  0.4704100000000  0.5080190000000  0.4601100000000 1.0
C      1  0.5450400000000  0.4176930000000  0.4416340000000 1.0
C      1  0.5307790000000  0.4543740000000  0.4059340000000 1.0
C      1  0.5200140000000  0.4250300000000  0.5508940000000 1.0
C      1  0.4053990000000  0.5457100000000  0.5128700000000 1.0
C      1  0.4836960000000  0.4428170000000  0.5601090000000 1.0
C      1  0.6065630000000  0.4914720000000  0.4725680000000 1.0
C      1  0.4422210000000  0.5085680000000  0.4179910000000 1.0
C      1  0.5685680000000  0.4817460000000  0.5300790000000 1.0
C      1  0.5404190000000  0.4689290000000  0.5717980000000 1.0
C      1  0.4448760000000  0.5746730000000  0.4555520000000 1.0
C      1  0.5793840000000  0.4734310000000  0.5577870000000 1.0
C      1  0.4912630000000  0.4819200000000  0.4107740000000 1.0
C      1  0.4998430000000  0.5331890000000  0.5579180000000 1.0
C      1  0.4577830000000  0.5256840000000  0.5264600000000 1.0
C      1  0.4658420000000  0.4995740000000  0.5409750000000 1.0
C      1  0.4828850000000  0.4568510000000  0.5339480000000 1.0
C      1  0.5761830000000  0.5598700000000  0.4792600000000 1.0
C      1  0.5486760000000  0.4392360000000  0.4233870000000 1.0
C      1  0.6000100000000  0.5196510000000  0.4726630000000 1.0
C      1  0.5577590000000  0.4250580000000  0.4929500000000 1.0
C      1  0.5173760000000  0.5116780000000  0.5608280000000 1.0
C      1  0.5212690000000  0.5314170000000  0.4678860000000 1.0
C      1  0.4473280000000  0.4205360000000  0.5303560000000 1.0
C      1  0.4510340000000  0.5484980000000  0.4496170000000 1.0
C      1  0.4922050000000  0.5654490000000  0.5330880000000 1.0
C      1  0.3983310000000  0.4673230000000  0.4856960000000 1.0
C      1  0.5227290000000  0.4482660000000  0.5048180000000 1.0
C      1  0.4865240000000  0.5531860000000  0.5799310000000 1.0
C      1  0.5594200000000  0.5007770000000  0.4105900000000 1.0
C      1  0.4284730000000  0.4306280000000  0.5062000000000 1.0
C      1  0.4608720000000  0.5994330000000  0.5140740000000 1.0
C      1  0.5733730000000  0.4954960000000  0.5771180000000 1.0
C      1  0.5307860000000  0.5151880000000  0.6011190000000 1.0
C      1  0.4318770000000  0.4336580000000  0.4779190000000 1.0
C      1  0.5513230000000  0.5693850000000  0.4926210000000 1.0
C      1  0.5118150000000  0.5440300000000  0.5356030000000 1.0
C      1  0.5809390000000  0.4586700000000  0.4677220000000 1.0
C      1  0.5237700000000  0.5046070000000  0.4533360000000 1.0
C      1  0.4870170000000  0.5652400000000  0.4758090000000 1.0
C      1  0.5407940000000  0.4427410000000  0.4505420000000 1.0
C      1  0.5030170000000  0.4514850000000  0.4111060000000 1.0
C      1  0.4506540000000  0.4680100000000  0.5777660000000 1.0
C      1  0.4658230000000  0.4941530000000  0.5748080000000 1.0
C      1  0.4789560000000  0.5477670000000  0.4960560000000 1.0
C      1  0.5955510000000  0.5405700000000  0.4918230000000 1.0
C      1  0.4407650000000  0.5253730000000  0.5043110000000 1.0
C      1  0.5360620000000  0.4060730000000  0.4883600000000 1.0
C      1  0.4984650000000  0.4942010000000  0.5811870000000 1.0
C      1  0.4775490000000  0.4047960000000  0.4651010000000 1.0
C      1  0.5467300000000  0.4920200000000  0.5892790000000 1.0
C      1  0.5324190000000  0.5590190000000  0.4730400000000 1.0
C      1  0.4691000000000  0.6003690000000  0.4876390000000 1.0
C      1  0.5366820000000  0.4752960000000  0.5415410000000 1.0
C      1  0.5270050000000  0.4490570000000  0.5336390000000 1.0
C      1  0.5613710000000  0.4271970000000  0.5432980000000 1.0
C      1  0.5424070000000  0.5924080000000  0.5409540000000 1.0
C      1  0.4594590000000  0.4865170000000  0.4125230000000 1.0
C      1  0.5491470000000  0.5623430000000  0.4342060000000 1.0
C      1  0.5549300000000  0.5074930000000  0.4787540000000 1.0
C      1  0.4904220000000  0.5926880000000  0.5225240000000 1.0
C      1  0.4775040000000  0.4490440000000  0.4885710000000 1.0
C      1  0.4024560000000  0.5065430000000  0.4589130000000 1.0
C      1  0.4553910000000  0.5652610000000  0.4289850000000 1.0
C      1  0.4896220000000  0.4846840000000  0.5320710000000 1.0
C      1  0.4524540000000  0.4859960000000  0.4580590000000 1.0
C      1  0.4352250000000  0.5578620000000  0.5562890000000 1.0
C      1  0.5176120000000  0.5641970000000  0.5819320000000 1.0
C      1  0.5924280000000  0.5346750000000  0.5468700000000 1.0
C      1  0.5390630000000  0.4077240000000  0.5377140000000 1.0
C      1  0.5666470000000  0.5792370000000  0.5402380000000 1.0
C      1  0.4323590000000  0.5720380000000  0.4813790000000 1.0
C      1  0.4436040000000  0.4822420000000  0.4818400000000 1.0
C      1  0.5734630000000  0.5206710000000  0.4562170000000 1.0
C      1  0.4494240000000  0.4777060000000  0.5336450000000 1.0
C      1  0.5624510000000  0.4503090000000  0.5630740000000 1.0
C      1  0.5109290000000  0.4949880000000  0.3904750000000 1.0
C      1  0.4813520000000  0.5330630000000  0.4128970000000 1.0
C      1  0.5723410000000  0.4339640000000  0.5170520000000 1.0
C      1  0.4831900000000  0.5021950000000  0.4835350000000 1.0
C      1  0.4600170000000  0.5647390000000  0.5670160000000 1.0
C      1  0.4934540000000  0.5228070000000  0.4980320000000 1.0
C      1  0.4225710000000  0.5053420000000  0.5114550000000 1.0
C      1  0.5836340000000  0.5601550000000  0.5415030000000 1.0
C      1  0.5766510000000  0.4995790000000  0.4342880000000 1.0
C      1  0.4110470000000  0.4535990000000  0.5081560000000 1.0
C      1  0.5264980000000  0.4056300000000  0.4593600000000 1.0
C      1  0.4110020000000  0.5188630000000  0.5609580000000 1.0
C      1  0.5112440000000  0.5971010000000  0.5030420000000 1.0
C      1  0.5032550000000  0.4884480000000  0.4396870000000 1.0
C      1  0.5302730000000  0.5784320000000  0.4497540000000 1.0
C      1  0.5386110000000  0.4871790000000  0.4719540000000 1.0
C      1  0.4939880000000  0.3928990000000  0.5143990000000 1.0
C      1  0.5184460000000  0.5218130000000  0.5148580000000 1.0
C      1  0.4327220000000  0.4776260000000  0.5110820000000 1.0
C      1  0.5691660000000  0.5515800000000  0.4522690000000 1.0
C      1  0.4920250000000  0.4315130000000  0.4282930000000 1.0
C      1  0.5456720000000  0.5218820000000  0.5003270000000 1.0
C      1  0.5918250000000  0.5268040000000  0.5180120000000 1.0
C      1  0.4939610000000  0.4421490000000  0.5101060000000 1.0
C      1  0.5246590000000  0.3983970000000  0.5135860000000 1.0
C      1  0.4692740000000  0.5512300000000  0.5229590000000 1.0
C      1  0.4747340000000  0.5319760000000  0.4457300000000 1.0
C      1  0.4231890000000  0.5455380000000  0.4898700000000 1.0
C      1  0.3930860000000  0.4968360000000  0.4850960000000 1.0
C      1  0.4202500000000  0.4680700000000  0.4398110000000 1.0
C      1  0.5325780000000  0.5470520000000  0.4139590000000 1.0
C      1  0.5716580000000  0.5213290000000  0.5635290000000 1.0
C      1  0.5672420000000  0.5108350000000  0.5168440000000 1.0
C      1  0.4718050000000  0.4481700000000  0.4439610000000 1.0
C      1  0.4915650000000  0.4156730000000  0.5537800000000 1.0
C      1  0.4919700000000  0.4729880000000  0.4817550000000 1.0
C      1  0.5356040000000  0.5413860000000  0.5880670000000 1.0
C      1  0.4671670000000  0.4461500000000  0.5837480000000 1.0
END
