TITL C-4164233-775-629 18.0765389274621 125000 -17312.3456215859 0 0 115 (C1) n - 1
REM
REM in /home/nfs/bkarasulu/CARBON/AIRSS/Generating-Clusters/ReaxFF-fromJPCA2015/Units_Real/with-SteepDescent/Only-C1/SD-CG/Try1-3A/FIRE-CG
REM
REM
REM
REM
REM
REM ./C.cell (11c1c37f851c82e70ff6c80c92926a4b)
REM
REM compiler GCC version 9.2.1 20190827 (Red Hat 9.2.1-1)
REM options -cpp -mtune=generic -march=x86-64 -g -O0 -fpre-include=/usr/include/finclude/math-vector-fortran.h
REM seed -2128743700 47176191 -1897400738 834706696 1736379462 567946112 -711897353 1109322509 -243677718 1691476745 2067893965 1479561718 -676243735 986074672 -1976138177 1326335176 2003656503 -1407853197 849919061 1898155620 -33458616 1153775365 2021644691 -942707276 -977981363 -508019724 1327094861 -898951752 -965273131 408089898 -136004726 438790804 -1075136156
REM
CELL 1.54180   50.00000   50.00000   50.00000   90.00000   90.00000   90.00000
LATT -1
SFAC C  
C      1  0.4628760000000  0.4474890000000  0.4527950000000 1.0
C      1  0.4938280000000  0.5397880000000  0.4599260000000 1.0
C      1  0.5135000000000  0.6098620000000  0.5180270000000 1.0
C      1  0.5691160000000  0.4462590000000  0.5320640000000 1.0
C      1  0.5125600000000  0.5294040000000  0.4825710000000 1.0
C      1  0.4978780000000  0.5960630000000  0.4972750000000 1.0
C      1  0.4602110000000  0.5173270000000  0.5918150000000 1.0
C      1  0.4399800000000  0.4299530000000  0.4997740000000 1.0
C      1  0.4406560000000  0.4550220000000  0.5413660000000 1.0
C      1  0.5527670000000  0.5409360000000  0.5183040000000 1.0
C      1  0.4089640000000  0.5227060000000  0.5049060000000 1.0
C      1  0.4935440000000  0.4343930000000  0.5765330000000 1.0
C      1  0.4643510000000  0.4741950000000  0.4466080000000 1.0
C      1  0.5844660000000  0.5290230000000  0.4857300000000 1.0
C      1  0.5451810000000  0.5797260000000  0.5383740000000 1.0
C      1  0.4877190000000  0.4696370000000  0.5384830000000 1.0
C      1  0.4673640000000  0.4683810000000  0.4932350000000 1.0
C      1  0.5585240000000  0.4806950000000  0.4782240000000 1.0
C      1  0.4750390000000  0.5790790000000  0.5072400000000 1.0
C      1  0.5575130000000  0.5541730000000  0.4535590000000 1.0
C      1  0.4843060000000  0.5446430000000  0.5478390000000 1.0
C      1  0.4143300000000  0.5392690000000  0.4799390000000 1.0
C      1  0.4242200000000  0.5362380000000  0.5265630000000 1.0
C      1  0.4582690000000  0.4730460000000  0.4209430000000 1.0
C      1  0.4926950000000  0.4420400000000  0.4562240000000 1.0
C      1  0.5246940000000  0.5414060000000  0.5109220000000 1.0
C      1  0.4994540000000  0.5031590000000  0.5176560000000 1.0
C      1  0.5211820000000  0.4914240000000  0.5028910000000 1.0
C      1  0.4270710000000  0.4960190000000  0.4459990000000 1.0
C      1  0.4557140000000  0.4468800000000  0.5674970000000 1.0
C      1  0.5616630000000  0.5695590000000  0.4782230000000 1.0
C      1  0.5776750000000  0.5010140000000  0.5302290000000 1.0
C      1  0.5856620000000  0.4830890000000  0.4856130000000 1.0
C      1  0.4797730000000  0.4111570000000  0.5346070000000 1.0
C      1  0.4990260000000  0.5058610000000  0.5819910000000 1.0
C      1  0.5631880000000  0.4366690000000  0.5048840000000 1.0
C      1  0.4880150000000  0.5230480000000  0.5001330000000 1.0
C      1  0.5247750000000  0.5127860000000  0.4120840000000 1.0
C      1  0.5188330000000  0.4387480000000  0.5778550000000 1.0
C      1  0.5111690000000  0.5378130000000  0.5361470000000 1.0
C      1  0.5310320000000  0.4126990000000  0.4780840000000 1.0
C      1  0.5738430000000  0.5304520000000  0.4580340000000 1.0
C      1  0.4538980000000  0.5530370000000  0.4186920000000 1.0
C      1  0.5452940000000  0.5613350000000  0.5565380000000 1.0
C      1  0.5065200000000  0.5095560000000  0.5455130000000 1.0
C      1  0.5492060000000  0.5217470000000  0.5669020000000 1.0
C      1  0.4631760000000  0.4739570000000  0.5794550000000 1.0
C      1  0.5025960000000  0.4546610000000  0.4286470000000 1.0
C      1  0.4835070000000  0.5205850000000  0.3998060000000 1.0
C      1  0.4982800000000  0.4622360000000  0.4796480000000 1.0
C      1  0.5179140000000  0.5891980000000  0.4752780000000 1.0
C      1  0.5744670000000  0.4738270000000  0.5422480000000 1.0
C      1  0.5786330000000  0.4831520000000  0.4585450000000 1.0
C      1  0.4407910000000  0.5599920000000  0.5228170000000 1.0
C      1  0.5494360000000  0.4320350000000  0.4658140000000 1.0
C      1  0.4434730000000  0.5450140000000  0.4813250000000 1.0
C      1  0.4835630000000  0.4125330000000  0.4913260000000 1.0
C      1  0.4513130000000  0.4946080000000  0.4856440000000 1.0
C      1  0.4244160000000  0.4903530000000  0.4736510000000 1.0
C      1  0.5633870000000  0.5244010000000  0.5411270000000 1.0
C      1  0.5453450000000  0.4135640000000  0.5035390000000 1.0
C      1  0.4076890000000  0.4940070000000  0.4984700000000 1.0
C      1  0.5303050000000  0.5443760000000  0.5728680000000 1.0
C      1  0.4604690000000  0.5206450000000  0.4893660000000 1.0
C      1  0.4413390000000  0.4978370000000  0.4223800000000 1.0
C      1  0.4651640000000  0.5175180000000  0.5495360000000 1.0
C      1  0.4995600000000  0.4973390000000  0.4029020000000 1.0
C      1  0.5722410000000  0.5515400000000  0.4988160000000 1.0
C      1  0.4870710000000  0.4723510000000  0.4120970000000 1.0
C      1  0.5726730000000  0.5060940000000  0.4418010000000 1.0
C      1  0.5195120000000  0.4612800000000  0.5020290000000 1.0
C      1  0.5023000000000  0.4158030000000  0.4718200000000 1.0
C      1  0.5417530000000  0.5977890000000  0.5171790000000 1.0
C      1  0.5489450000000  0.4997030000000  0.4236840000000 1.0
C      1  0.5102750000000  0.4836440000000  0.4615750000000 1.0
C      1  0.5227740000000  0.5422510000000  0.4159410000000 1.0
C      1  0.4502870000000  0.4472860000000  0.4791960000000 1.0
C      1  0.4895180000000  0.5679560000000  0.4538510000000 1.0
C      1  0.4601830000000  0.5233740000000  0.4208250000000 1.0
C      1  0.5345050000000  0.4104090000000  0.5312680000000 1.0
C      1  0.4723840000000  0.4246870000000  0.5624200000000 1.0
C      1  0.4980400000000  0.5460410000000  0.4006690000000 1.0
C      1  0.4487670000000  0.5700930000000  0.4960890000000 1.0
C      1  0.4677680000000  0.5665030000000  0.5325800000000 1.0
C      1  0.4857820000000  0.5301570000000  0.5933720000000 1.0
C      1  0.4102570000000  0.4721710000000  0.5180980000000 1.0
C      1  0.5336880000000  0.5587430000000  0.4375070000000 1.0
C      1  0.4688530000000  0.5732610000000  0.4329690000000 1.0
C      1  0.5249960000000  0.4869940000000  0.5479850000000 1.0
C      1  0.5491120000000  0.4549060000000  0.4877740000000 1.0
C      1  0.5885110000000  0.5057080000000  0.5032820000000 1.0
C      1  0.5436220000000  0.5895480000000  0.4885650000000 1.0
C      1  0.5157840000000  0.4638690000000  0.5327330000000 1.0
C      1  0.4176200000000  0.4763110000000  0.5458200000000 1.0
C      1  0.4721510000000  0.4897270000000  0.5540220000000 1.0
C      1  0.5067490000000  0.4107870000000  0.5329600000000 1.0
C      1  0.4232110000000  0.4451290000000  0.5181730000000 1.0
C      1  0.4790000000000  0.5205590000000  0.4468580000000 1.0
C      1  0.4840540000000  0.4935480000000  0.4530220000000 1.0
C      1  0.4632260000000  0.4119610000000  0.5088670000000 1.0
C      1  0.4763960000000  0.5660880000000  0.4057550000000 1.0
C      1  0.4361330000000  0.5214480000000  0.5487720000000 1.0
C      1  0.4919000000000  0.4808420000000  0.5933520000000 1.0
C      1  0.5004270000000  0.5473770000000  0.5746340000000 1.0
C      1  0.4421160000000  0.4965210000000  0.5856430000000 1.0
C      1  0.5429410000000  0.4926560000000  0.5699760000000 1.0
C      1  0.5155890000000  0.5768500000000  0.4503060000000 1.0
C      1  0.5525210000000  0.4282760000000  0.5477500000000 1.0
C      1  0.5459690000000  0.4457040000000  0.4393660000000 1.0
C      1  0.5270570000000  0.4682950000000  0.4356520000000 1.0
C      1  0.5603590000000  0.4692500000000  0.5671130000000 1.0
C      1  0.5263440000000  0.5026400000000  0.4769460000000 1.0
C      1  0.4649300000000  0.4637740000000  0.5227730000000 1.0
C      1  0.5461960000000  0.4424720000000  0.5719860000000 1.0
C      1  0.4231450000000  0.4989840000000  0.5629210000000 1.0
END
