TITL C-4164238-4211-301 10.3113018171742 125000 -22070.7524031268 0 0 148 (C1) n - 1
REM
REM in /home/nfs/bkarasulu/CARBON/AIRSS/Generating-Clusters/ReaxFF-fromJPCA2015/Units_Real/with-SteepDescent/Only-C1/SD-CG/Try1-3A/FIRE-CG
REM
REM
REM
REM
REM
REM ./C.cell (11c1c37f851c82e70ff6c80c92926a4b)
REM
REM compiler GCC version 9.2.1 20190827 (Red Hat 9.2.1-1)
REM options -cpp -mtune=generic -march=x86-64 -g -O0 -fpre-include=/usr/include/finclude/math-vector-fortran.h
REM seed -1564852907 55527238 -1338137990 1034466850 20011669 -1066532683 -1782311152 1764813035 -1103003175 778949613 1002671992 -1742913611 -412973702 1626676519 1901081416 -2000475448 -1460642403 -1649368472 -105311886 -148901054 1222301483 1897753639 1660534938 -1830558104 -1320036034 418818593 1208082823 -635998561 624511617 -788105504 1484079953 -1567494843 -1624349642
REM
CELL 1.54180   50.00000   50.00000   50.00000   90.00000   90.00000   90.00000
LATT -1
SFAC C  
C      1  0.5037280000000  0.4968790000000  0.6072560000000 1.0
C      1  0.4819180000000  0.4369370000000  0.4896460000000 1.0
C      1  0.4355260000000  0.4128080000000  0.5133270000000 1.0
C      1  0.5889740000000  0.5536660000000  0.5210270000000 1.0
C      1  0.5868500000000  0.5000290000000  0.4387110000000 1.0
C      1  0.5036030000000  0.5725240000000  0.4928700000000 1.0
C      1  0.5613870000000  0.5143480000000  0.5521200000000 1.0
C      1  0.5018690000000  0.5408230000000  0.4632420000000 1.0
C      1  0.5582280000000  0.4287100000000  0.5583300000000 1.0
C      1  0.4986550000000  0.4986440000000  0.4942100000000 1.0
C      1  0.5856590000000  0.5539330000000  0.5481940000000 1.0
C      1  0.4550890000000  0.5587220000000  0.4580660000000 1.0
C      1  0.6095840000000  0.4811540000000  0.5071560000000 1.0
C      1  0.4968900000000  0.6014950000000  0.5202320000000 1.0
C      1  0.4841450000000  0.5593420000000  0.4489110000000 1.0
C      1  0.4498460000000  0.5086370000000  0.5621250000000 1.0
C      1  0.4780880000000  0.5257760000000  0.4000800000000 1.0
C      1  0.4501210000000  0.5493780000000  0.6016840000000 1.0
C      1  0.4879270000000  0.4537370000000  0.5940940000000 1.0
C      1  0.4214090000000  0.4258520000000  0.4878860000000 1.0
C      1  0.4995600000000  0.4819100000000  0.3949310000000 1.0
C      1  0.4718730000000  0.5285940000000  0.6039240000000 1.0
C      1  0.5494270000000  0.4767000000000  0.4190380000000 1.0
C      1  0.5185990000000  0.4802830000000  0.5503330000000 1.0
C      1  0.5689550000000  0.4567830000000  0.4287360000000 1.0
C      1  0.5981810000000  0.5132140000000  0.4635370000000 1.0
C      1  0.5455990000000  0.5583910000000  0.4237080000000 1.0
C      1  0.5895210000000  0.5398110000000  0.4706600000000 1.0
C      1  0.5351330000000  0.4768580000000  0.5274940000000 1.0
C      1  0.5623590000000  0.5037200000000  0.4219790000000 1.0
C      1  0.6082360000000  0.4644140000000  0.4614510000000 1.0
C      1  0.5084820000000  0.4335300000000  0.5314910000000 1.0
C      1  0.5181100000000  0.3875450000000  0.4724570000000 1.0
C      1  0.5784610000000  0.4116650000000  0.4846290000000 1.0
C      1  0.5171590000000  0.4659530000000  0.4645150000000 1.0
C      1  0.4661970000000  0.5190570000000  0.4270230000000 1.0
C      1  0.4504630000000  0.5498680000000  0.4852560000000 1.0
C      1  0.4011580000000  0.4733750000000  0.4831070000000 1.0
C      1  0.5402220000000  0.5397470000000  0.5545490000000 1.0
C      1  0.4611440000000  0.4775080000000  0.4617460000000 1.0
C      1  0.4569650000000  0.4279880000000  0.4497400000000 1.0
C      1  0.4923500000000  0.4887640000000  0.5451320000000 1.0
C      1  0.5410100000000  0.3899640000000  0.4562580000000 1.0
C      1  0.5113350000000  0.4696570000000  0.5991590000000 1.0
C      1  0.5875280000000  0.5256600000000  0.5598070000000 1.0
C      1  0.5003500000000  0.4496890000000  0.4224920000000 1.0
C      1  0.4250190000000  0.5042930000000  0.4768950000000 1.0
C      1  0.4829880000000  0.4271240000000  0.5185270000000 1.0
C      1  0.4921390000000  0.3934070000000  0.4623770000000 1.0
C      1  0.5574960000000  0.5639900000000  0.5478890000000 1.0
C      1  0.5446570000000  0.4951060000000  0.5931730000000 1.0
C      1  0.5077180000000  0.5981670000000  0.4790710000000 1.0
C      1  0.5264650000000  0.5166750000000  0.5972070000000 1.0
C      1  0.4531590000000  0.4651770000000  0.4194460000000 1.0
C      1  0.4475130000000  0.5599560000000  0.5737320000000 1.0
C      1  0.4666810000000  0.4737890000000  0.5888060000000 1.0
C      1  0.4462150000000  0.4557640000000  0.5732320000000 1.0
C      1  0.5252350000000  0.4516120000000  0.5167730000000 1.0
C      1  0.5939660000000  0.4720930000000  0.4385620000000 1.0
C      1  0.4601430000000  0.5362470000000  0.5605720000000 1.0
C      1  0.5261030000000  0.5421590000000  0.5803710000000 1.0
C      1  0.5784250000000  0.4162240000000  0.5422150000000 1.0
C      1  0.4711780000000  0.4893080000000  0.5640660000000 1.0
C      1  0.5829410000000  0.5570520000000  0.4954710000000 1.0
C      1  0.5082480000000  0.4868690000000  0.4489370000000 1.0
C      1  0.4636220000000  0.4619290000000  0.4862030000000 1.0
C      1  0.4395470000000  0.5907140000000  0.5099450000000 1.0
C      1  0.5628270000000  0.4599360000000  0.4843430000000 1.0
C      1  0.5306760000000  0.4699750000000  0.5758030000000 1.0
C      1  0.4751580000000  0.4161630000000  0.4687100000000 1.0
C      1  0.4179130000000  0.4625440000000  0.4603180000000 1.0
C      1  0.4161190000000  0.5582310000000  0.5313240000000 1.0
C      1  0.5476140000000  0.5040830000000  0.4844020000000 1.0
C      1  0.5794870000000  0.4383970000000  0.4955430000000 1.0
C      1  0.6158240000000  0.4649950000000  0.4855780000000 1.0
C      1  0.5648070000000  0.4325040000000  0.4419460000000 1.0
C      1  0.4240570000000  0.4566850000000  0.5195100000000 1.0
C      1  0.4930840000000  0.5727270000000  0.4240070000000 1.0
C      1  0.3961770000000  0.4903560000000  0.5306600000000 1.0
C      1  0.5116430000000  0.4287410000000  0.5601690000000 1.0
C      1  0.5442000000000  0.5784010000000  0.5267250000000 1.0
C      1  0.5383250000000  0.4521090000000  0.4733230000000 1.0
C      1  0.4730770000000  0.4760800000000  0.4033050000000 1.0
C      1  0.4256880000000  0.5135870000000  0.4493100000000 1.0
C      1  0.4299020000000  0.5689430000000  0.4891770000000 1.0
C      1  0.4802750000000  0.4986650000000  0.4503800000000 1.0
C      1  0.5499120000000  0.5305480000000  0.4136930000000 1.0
C      1  0.4416970000000  0.4999100000000  0.5000530000000 1.0
C      1  0.3954680000000  0.4959400000000  0.5027060000000 1.0
C      1  0.5255640000000  0.5082390000000  0.4417350000000 1.0
C      1  0.5157100000000  0.4479070000000  0.4896760000000 1.0
C      1  0.5193380000000  0.5235520000000  0.5198550000000 1.0
C      1  0.5370010000000  0.4388790000000  0.5710150000000 1.0
C      1  0.5153650000000  0.5894900000000  0.5362650000000 1.0
C      1  0.4371010000000  0.4785370000000  0.4443140000000 1.0
C      1  0.4846060000000  0.5361420000000  0.5771210000000 1.0
C      1  0.4864380000000  0.4330720000000  0.5741660000000 1.0
C      1  0.5233060000000  0.5190400000000  0.4138800000000 1.0
C      1  0.4558210000000  0.6010890000000  0.4887000000000 1.0
C      1  0.4705630000000  0.4429270000000  0.4281390000000 1.0
C      1  0.4460520000000  0.4716340000000  0.5072520000000 1.0
C      1  0.4847020000000  0.6078240000000  0.4953390000000 1.0
C      1  0.4635840000000  0.5783390000000  0.5554290000000 1.0
C      1  0.5457910000000  0.5173530000000  0.4591840000000 1.0
C      1  0.5265420000000  0.4985980000000  0.5035270000000 1.0
C      1  0.5430860000000  0.5683790000000  0.4753930000000 1.0
C      1  0.5237960000000  0.5793610000000  0.4273360000000 1.0
C      1  0.4228080000000  0.4698940000000  0.5649770000000 1.0
C      1  0.5024740000000  0.5591080000000  0.5753930000000 1.0
C      1  0.5936480000000  0.4985270000000  0.4896150000000 1.0
C      1  0.4755810000000  0.5000650000000  0.6072060000000 1.0
C      1  0.4454520000000  0.5334100000000  0.4398600000000 1.0
C      1  0.5030540000000  0.5108280000000  0.3939710000000 1.0
C      1  0.5169530000000  0.5958410000000  0.4504520000000 1.0
C      1  0.5668410000000  0.5375790000000  0.4529160000000 1.0
C      1  0.4945640000000  0.5791240000000  0.5552330000000 1.0
C      1  0.5567540000000  0.5728490000000  0.5008210000000 1.0
C      1  0.5570270000000  0.5653940000000  0.4491750000000 1.0
C      1  0.6009770000000  0.5034440000000  0.5491790000000 1.0
C      1  0.4091050000000  0.5359570000000  0.5437130000000 1.0
C      1  0.4681340000000  0.5421200000000  0.5058310000000 1.0
C      1  0.4618690000000  0.5154110000000  0.5126710000000 1.0
C      1  0.4598830000000  0.4338220000000  0.5608490000000 1.0
C      1  0.4419470000000  0.5858000000000  0.4682800000000 1.0
C      1  0.4094250000000  0.4673250000000  0.5399410000000 1.0
C      1  0.5703480000000  0.4160280000000  0.5119300000000 1.0
C      1  0.5923580000000  0.4825950000000  0.5330570000000 1.0
C      1  0.4056340000000  0.4478150000000  0.4982550000000 1.0
C      1  0.3959510000000  0.5248150000000  0.4954200000000 1.0
C      1  0.4232090000000  0.4989230000000  0.5681520000000 1.0
C      1  0.5135560000000  0.5427500000000  0.5321800000000 1.0
C      1  0.5680420000000  0.4871280000000  0.4882010000000 1.0
C      1  0.4013770000000  0.5107500000000  0.5522550000000 1.0
C      1  0.5634080000000  0.4099000000000  0.4579940000000 1.0
C      1  0.5190240000000  0.5556990000000  0.4789870000000 1.0
C      1  0.4423970000000  0.5784210000000  0.5358700000000 1.0
C      1  0.4258480000000  0.3976690000000  0.5310480000000 1.0
C      1  0.4589420000000  0.4221980000000  0.5331210000000 1.0
C      1  0.4104200000000  0.5277480000000  0.4709850000000 1.0
C      1  0.4849450000000  0.4988740000000  0.5188080000000 1.0
C      1  0.5152360000000  0.3928360000000  0.4456330000000 1.0
C      1  0.4920520000000  0.5558610000000  0.5142810000000 1.0
C      1  0.5209850000000  0.4669200000000  0.4121580000000 1.0
C      1  0.4308210000000  0.4359000000000  0.4628380000000 1.0
C      1  0.5636790000000  0.4898780000000  0.5379850000000 1.0
C      1  0.4832440000000  0.5523240000000  0.4077230000000 1.0
C      1  0.4059920000000  0.5507110000000  0.5049860000000 1.0
C      1  0.4904060000000  0.5161790000000  0.4729530000000 1.0
END
