TITL C-4164235-1454-704 17.1976860704189 125000 -11100.4138478584 0 0 76 (C1) n - 1
REM
REM in /home/nfs/bkarasulu/CARBON/AIRSS/Generating-Clusters/ReaxFF-fromJPCA2015/Units_Real/with-SteepDescent/Only-C1/SD-CG/Try1-3A/FIRE-CG
REM
REM
REM
REM
REM
REM ./C.cell (11c1c37f851c82e70ff6c80c92926a4b)
REM
REM compiler GCC version 9.2.1 20190827 (Red Hat 9.2.1-1)
REM options -cpp -mtune=generic -march=x86-64 -g -O0 -fpre-include=/usr/include/finclude/math-vector-fortran.h
REM seed 1987411148 -61796625 -1649955759 1774497492 -607762844 1085166488 1863832728 1761363384 953240236 802160958 -1459355137 1503046021 1017699260 497287156 -1420014781 -1834152145 -439789947 -488163993 -747601507 -267560973 -775318983 -1737108818 -816396974 -154658841 755386114 -553800354 -247254730 -296203716 1962156959 684370905 1051644031 -1820479763 -245015802
REM
CELL 1.54180   50.00000   50.00000   50.00000   90.00000   90.00000   90.00000
LATT -1
SFAC C  
C      1  0.4972070000000  0.4346780000000  0.5426560000000 1.0
C      1  0.4673810000000  0.4783450000000  0.4591120000000 1.0
C      1  0.5323750000000  0.4875470000000  0.5609660000000 1.0
C      1  0.5083950000000  0.5246620000000  0.4774950000000 1.0
C      1  0.4307710000000  0.5129760000000  0.4785340000000 1.0
C      1  0.4840300000000  0.5205360000000  0.4141590000000 1.0
C      1  0.5383110000000  0.4331060000000  0.4835880000000 1.0
C      1  0.4818400000000  0.5800180000000  0.5165770000000 1.0
C      1  0.5274260000000  0.5344820000000  0.5726590000000 1.0
C      1  0.4602100000000  0.5209260000000  0.4776280000000 1.0
C      1  0.4968780000000  0.4701070000000  0.4716200000000 1.0
C      1  0.4373350000000  0.4861880000000  0.4705190000000 1.0
C      1  0.5027290000000  0.5002010000000  0.5251230000000 1.0
C      1  0.5050970000000  0.5184960000000  0.4503440000000 1.0
C      1  0.4256240000000  0.4912380000000  0.5373570000000 1.0
C      1  0.5565730000000  0.5010190000000  0.4793640000000 1.0
C      1  0.4692040000000  0.5189680000000  0.5041330000000 1.0
C      1  0.5137760000000  0.4172990000000  0.4773870000000 1.0
C      1  0.5308790000000  0.5115220000000  0.4384290000000 1.0
C      1  0.5542380000000  0.4524530000000  0.4691910000000 1.0
C      1  0.4478710000000  0.5567080000000  0.5261720000000 1.0
C      1  0.5044400000000  0.5487450000000  0.5624160000000 1.0
C      1  0.4903350000000  0.4927790000000  0.4176130000000 1.0
C      1  0.4935340000000  0.5477910000000  0.4876070000000 1.0
C      1  0.5594770000000  0.5456070000000  0.4651470000000 1.0
C      1  0.4851300000000  0.4184610000000  0.4730820000000 1.0
C      1  0.4603120000000  0.4495810000000  0.5332200000000 1.0
C      1  0.4476680000000  0.4488040000000  0.4942780000000 1.0
C      1  0.5370120000000  0.4593510000000  0.4514040000000 1.0
C      1  0.5509080000000  0.5574070000000  0.5102990000000 1.0
C      1  0.4885110000000  0.4840550000000  0.5077280000000 1.0
C      1  0.4626770000000  0.4372650000000  0.4706020000000 1.0
C      1  0.5394380000000  0.5394350000000  0.4439470000000 1.0
C      1  0.5297970000000  0.5093400000000  0.4899840000000 1.0
C      1  0.5051070000000  0.4882050000000  0.5759340000000 1.0
C      1  0.4154190000000  0.4877160000000  0.5113820000000 1.0
C      1  0.5779610000000  0.4712850000000  0.5098520000000 1.0
C      1  0.5066900000000  0.4696930000000  0.4981390000000 1.0
C      1  0.5073980000000  0.5684830000000  0.5033940000000 1.0
C      1  0.4701010000000  0.5624970000000  0.4774610000000 1.0
C      1  0.5420410000000  0.4364050000000  0.5126850000000 1.0
C      1  0.4320070000000  0.5322850000000  0.5281530000000 1.0
C      1  0.4195730000000  0.5169590000000  0.5055030000000 1.0
C      1  0.5440430000000  0.5137560000000  0.5582290000000 1.0
C      1  0.5169250000000  0.5569290000000  0.4488660000000 1.0
C      1  0.4939920000000  0.4165390000000  0.5226540000000 1.0
C      1  0.4262980000000  0.4687140000000  0.4899450000000 1.0
C      1  0.4628310000000  0.5002200000000  0.5552700000000 1.0
C      1  0.4780230000000  0.4786130000000  0.5671090000000 1.0
C      1  0.5673710000000  0.4742680000000  0.4823550000000 1.0
C      1  0.4787510000000  0.5168890000000  0.5322710000000 1.0
C      1  0.4682660000000  0.4753460000000  0.4296430000000 1.0
C      1  0.5707020000000  0.5262360000000  0.4841820000000 1.0
C      1  0.4650870000000  0.5432470000000  0.4573620000000 1.0
C      1  0.4574280000000  0.5723870000000  0.5032690000000 1.0
C      1  0.4637250000000  0.4663130000000  0.5121880000000 1.0
C      1  0.4879210000000  0.5410250000000  0.4376420000000 1.0
C      1  0.5218240000000  0.5726260000000  0.4725810000000 1.0
C      1  0.5186320000000  0.4519490000000  0.5238580000000 1.0
C      1  0.4629770000000  0.4513860000000  0.4448980000000 1.0
C      1  0.4366640000000  0.5126680000000  0.5515230000000 1.0
C      1  0.5386160000000  0.4650590000000  0.5430880000000 1.0
C      1  0.5248660000000  0.5489620000000  0.5202760000000 1.0
C      1  0.4735780000000  0.5661450000000  0.5412020000000 1.0
C      1  0.5663760000000  0.5174360000000  0.5374860000000 1.0
C      1  0.5149510000000  0.4675170000000  0.4487780000000 1.0
C      1  0.5609500000000  0.4536980000000  0.5273430000000 1.0
C      1  0.5231100000000  0.5194970000000  0.5164510000000 1.0
C      1  0.4921980000000  0.5457410000000  0.5430680000000 1.0
C      1  0.4752320000000  0.4504860000000  0.5568060000000 1.0
C      1  0.5691380000000  0.5350330000000  0.5125510000000 1.0
C      1  0.5486950000000  0.5668450000000  0.4818600000000 1.0
C      1  0.5183960000000  0.4871670000000  0.4281860000000 1.0
C      1  0.5734130000000  0.4940090000000  0.5253860000000 1.0
C      1  0.5093800000000  0.5151460000000  0.5829500000000 1.0
C      1  0.4959540000000  0.4045240000000  0.4978810000000 1.0
END
