TITL C-4164235-1454-120 52.3664633636902 125000 -21695.8668755192 0 0 146 (C1) n - 1
REM
REM in /home/nfs/bkarasulu/CARBON/AIRSS/Generating-Clusters/ReaxFF-fromJPCA2015/Units_Real/with-SteepDescent/Only-C1/SD-CG/Try1-3A/FIRE-CG
REM
REM
REM
REM
REM
REM ./C.cell (11c1c37f851c82e70ff6c80c92926a4b)
REM
REM compiler GCC version 9.2.1 20190827 (Red Hat 9.2.1-1)
REM options -cpp -mtune=generic -march=x86-64 -g -O0 -fpre-include=/usr/include/finclude/math-vector-fortran.h
REM seed -1593008859 -59083867 -900539641 -523495501 1619127260 -2041491759 155544892 -1038593287 140854495 760651538 126614749 -745788300 -1810098102 -844280239 -190794428 -2055009020 -845329539 137337293 -1510348414 -874436155 -684467988 -930451148 1551452363 2106348070 -744086310 -585400149 1069895419 -1035406571 -483676995 1649659229 -175105713 2012298456 1989665898
REM
CELL 1.54180   50.00000   50.00000   50.00000   90.00000   90.00000   90.00000
LATT -1
SFAC C  
C      1  0.5712470000000  0.4363080000000  0.5147580000000 1.0
C      1  0.5758840000000  0.5329460000000  0.5605710000000 1.0
C      1  0.5477320000000  0.5640590000000  0.5589820000000 1.0
C      1  0.4993280000000  0.4146610000000  0.5546030000000 1.0
C      1  0.4685960000000  0.5865050000000  0.5241400000000 1.0
C      1  0.5540580000000  0.5344180000000  0.4278370000000 1.0
C      1  0.5465170000000  0.5854130000000  0.4585410000000 1.0
C      1  0.3959990000000  0.4824890000000  0.5358150000000 1.0
C      1  0.4574900000000  0.4355990000000  0.4493070000000 1.0
C      1  0.5225070000000  0.5793970000000  0.5164230000000 1.0
C      1  0.4378060000000  0.4163210000000  0.4943680000000 1.0
C      1  0.5875030000000  0.4983340000000  0.4663010000000 1.0
C      1  0.5456600000000  0.5100580000000  0.4892570000000 1.0
C      1  0.5468140000000  0.4127040000000  0.4905200000000 1.0
C      1  0.4670740000000  0.4069890000000  0.4895170000000 1.0
C      1  0.4915010000000  0.4658480000000  0.4002600000000 1.0
C      1  0.5589020000000  0.4173510000000  0.5337850000000 1.0
C      1  0.4796830000000  0.4726280000000  0.5147280000000 1.0
C      1  0.5391500000000  0.4124860000000  0.4626830000000 1.0
C      1  0.4776640000000  0.5184020000000  0.5253940000000 1.0
C      1  0.4405150000000  0.4967880000000  0.4866010000000 1.0
C      1  0.5936590000000  0.5181480000000  0.5161300000000 1.0
C      1  0.4616320000000  0.4939130000000  0.5204170000000 1.0
C      1  0.5398510000000  0.6003000000000  0.5028630000000 1.0
C      1  0.5354370000000  0.5080450000000  0.4005360000000 1.0
C      1  0.4160150000000  0.5530980000000  0.4857400000000 1.0
C      1  0.4596490000000  0.4502980000000  0.4737800000000 1.0
C      1  0.5708300000000  0.4332920000000  0.5560600000000 1.0
C      1  0.4301210000000  0.5160800000000  0.5829030000000 1.0
C      1  0.4724710000000  0.5743820000000  0.5495780000000 1.0
C      1  0.5028600000000  0.4686820000000  0.4511760000000 1.0
C      1  0.5783310000000  0.5663320000000  0.4958310000000 1.0
C      1  0.5423340000000  0.4313430000000  0.4414160000000 1.0
C      1  0.5250120000000  0.4984210000000  0.5960780000000 1.0
C      1  0.5677480000000  0.5420810000000  0.4527580000000 1.0
C      1  0.4464880000000  0.4863310000000  0.4026520000000 1.0
C      1  0.4838220000000  0.4181060000000  0.5099830000000 1.0
C      1  0.5851590000000  0.4582210000000  0.5626260000000 1.0
C      1  0.5270630000000  0.5308000000000  0.5062490000000 1.0
C      1  0.5684750000000  0.5931130000000  0.5053880000000 1.0
C      1  0.5661210000000  0.5180720000000  0.4703660000000 1.0
C      1  0.5678080000000  0.5668460000000  0.4676350000000 1.0
C      1  0.5217770000000  0.5528810000000  0.4726080000000 1.0
C      1  0.5111050000000  0.4450440000000  0.4672640000000 1.0
C      1  0.4026270000000  0.4653790000000  0.4865000000000 1.0
C      1  0.4152340000000  0.5406350000000  0.5126640000000 1.0
C      1  0.5102430000000  0.5280880000000  0.4650040000000 1.0
C      1  0.5060930000000  0.5363530000000  0.4116460000000 1.0
C      1  0.5077970000000  0.5543220000000  0.5862410000000 1.0
C      1  0.4920720000000  0.5307720000000  0.5973780000000 1.0
C      1  0.4286480000000  0.5610100000000  0.5309500000000 1.0
C      1  0.4898230000000  0.5252380000000  0.5503640000000 1.0
C      1  0.4984860000000  0.5977180000000  0.4776900000000 1.0
C      1  0.4465900000000  0.5595500000000  0.5537690000000 1.0
C      1  0.5352960000000  0.5218270000000  0.5814230000000 1.0
C      1  0.5072340000000  0.4105680000000  0.5259360000000 1.0
C      1  0.5420860000000  0.4487080000000  0.4212490000000 1.0
C      1  0.4543700000000  0.4357330000000  0.5639770000000 1.0
C      1  0.4540830000000  0.5200930000000  0.4917650000000 1.0
C      1  0.4309070000000  0.5798350000000  0.4876270000000 1.0
C      1  0.5125030000000  0.4462270000000  0.4099930000000 1.0
C      1  0.5811300000000  0.4541250000000  0.4749080000000 1.0
C      1  0.4040980000000  0.4885560000000  0.4692110000000 1.0
C      1  0.5363330000000  0.5308390000000  0.5309670000000 1.0
C      1  0.4932100000000  0.5291270000000  0.5031020000000 1.0
C      1  0.5211640000000  0.5189710000000  0.5536830000000 1.0
C      1  0.3968170000000  0.4799860000000  0.5085160000000 1.0
C      1  0.5196180000000  0.4657110000000  0.5389400000000 1.0
C      1  0.5772290000000  0.4735120000000  0.4552860000000 1.0
C      1  0.4410500000000  0.5823360000000  0.5159940000000 1.0
C      1  0.6092740000000  0.4685660000000  0.5182760000000 1.0
C      1  0.4788330000000  0.5326970000000  0.4277520000000 1.0
C      1  0.4566980000000  0.5562740000000  0.4278860000000 1.0
C      1  0.4176110000000  0.5379210000000  0.4605280000000 1.0
C      1  0.5253630000000  0.4567620000000  0.5665670000000 1.0
C      1  0.4781300000000  0.4859350000000  0.5598630000000 1.0
C      1  0.4502880000000  0.5914650000000  0.4710330000000 1.0
C      1  0.5284230000000  0.5491910000000  0.4244670000000 1.0
C      1  0.4997180000000  0.5699460000000  0.5621000000000 1.0
C      1  0.5366750000000  0.5505870000000  0.5834700000000 1.0
C      1  0.4327850000000  0.4727360000000  0.4434070000000 1.0
C      1  0.4910670000000  0.5815070000000  0.5024350000000 1.0
C      1  0.4624130000000  0.4620990000000  0.4049570000000 1.0
C      1  0.5237910000000  0.5749100000000  0.5469380000000 1.0
C      1  0.4460800000000  0.5399990000000  0.5752340000000 1.0
C      1  0.4422740000000  0.4718650000000  0.4713050000000 1.0
C      1  0.4171450000000  0.4364290000000  0.4935450000000 1.0
C      1  0.5723140000000  0.5535660000000  0.5441720000000 1.0
C      1  0.5683040000000  0.4652180000000  0.5179710000000 1.0
C      1  0.4025410000000  0.5112960000000  0.5360420000000 1.0
C      1  0.4439580000000  0.4907940000000  0.5897850000000 1.0
C      1  0.4404720000000  0.5529400000000  0.4514290000000 1.0
C      1  0.4150680000000  0.5089990000000  0.4529790000000 1.0
C      1  0.5275320000000  0.6010270000000  0.4756460000000 1.0
C      1  0.4823110000000  0.5540850000000  0.4937430000000 1.0
C      1  0.4304330000000  0.5153190000000  0.5077610000000 1.0
C      1  0.5567630000000  0.5066920000000  0.4173380000000 1.0
C      1  0.4293520000000  0.4412800000000  0.5448920000000 1.0
C      1  0.4743620000000  0.5304200000000  0.5736500000000 1.0
C      1  0.4752310000000  0.5984520000000  0.4582910000000 1.0
C      1  0.4683860000000  0.5802340000000  0.4364780000000 1.0
C      1  0.5667250000000  0.4811000000000  0.5707680000000 1.0
C      1  0.5843860000000  0.5078480000000  0.5664750000000 1.0
C      1  0.4463340000000  0.4519670000000  0.4276450000000 1.0
C      1  0.4935680000000  0.4743730000000  0.5392220000000 1.0
C      1  0.5560080000000  0.4772370000000  0.4318930000000 1.0
C      1  0.5015640000000  0.4391660000000  0.5731810000000 1.0
C      1  0.5095380000000  0.4164470000000  0.4630170000000 1.0
C      1  0.4733440000000  0.4824470000000  0.5893340000000 1.0
C      1  0.5827240000000  0.5450440000000  0.5165460000000 1.0
C      1  0.4915590000000  0.4918660000000  0.3870020000000 1.0
C      1  0.4779590000000  0.4479120000000  0.4993770000000 1.0
C      1  0.5994510000000  0.5026820000000  0.5417780000000 1.0
C      1  0.5258860000000  0.4659340000000  0.5103080000000 1.0
C      1  0.4836560000000  0.4032480000000  0.4652220000000 1.0
C      1  0.4760660000000  0.4146430000000  0.4387180000000 1.0
C      1  0.5275790000000  0.4881480000000  0.4912010000000 1.0
C      1  0.5024890000000  0.5039590000000  0.4803040000000 1.0
C      1  0.4636560000000  0.5441330000000  0.4735230000000 1.0
C      1  0.5393960000000  0.4757290000000  0.5832770000000 1.0
C      1  0.4126170000000  0.4629170000000  0.5525100000000 1.0
C      1  0.5576050000000  0.4823610000000  0.5389880000000 1.0
C      1  0.4964830000000  0.5023890000000  0.5998770000000 1.0
C      1  0.4158130000000  0.5160850000000  0.5588700000000 1.0
C      1  0.5316900000000  0.5562080000000  0.4998390000000 1.0
C      1  0.5977470000000  0.4994370000000  0.4937190000000 1.0
C      1  0.4844660000000  0.4911980000000  0.4591380000000 1.0
C      1  0.5104870000000  0.5154140000000  0.3915890000000 1.0
C      1  0.5278710000000  0.4811800000000  0.4424950000000 1.0
C      1  0.4872940000000  0.5406720000000  0.4550440000000 1.0
C      1  0.5381080000000  0.5024520000000  0.5343100000000 1.0
C      1  0.6049820000000  0.4735610000000  0.5452250000000 1.0
C      1  0.5939870000000  0.4710500000000  0.4979670000000 1.0
C      1  0.4754260000000  0.4499250000000  0.5790500000000 1.0
C      1  0.5074090000000  0.4499620000000  0.4951020000000 1.0
C      1  0.5688490000000  0.4301490000000  0.4859010000000 1.0
C      1  0.4630610000000  0.5012640000000  0.3829180000000 1.0
C      1  0.5353020000000  0.4101640000000  0.5173520000000 1.0
C      1  0.4538810000000  0.4892010000000  0.5474700000000 1.0
C      1  0.4951680000000  0.4300010000000  0.4232850000000 1.0
C      1  0.4349010000000  0.4763210000000  0.5663880000000 1.0
C      1  0.4686530000000  0.5057390000000  0.4401620000000 1.0
C      1  0.4717620000000  0.4159820000000  0.5562700000000 1.0
C      1  0.5259060000000  0.5685360000000  0.4473870000000 1.0
C      1  0.4244200000000  0.4265350000000  0.5194120000000 1.0
C      1  0.4404900000000  0.4994450000000  0.4317960000000 1.0
END
