TITL C-4164242-3624-355 10.0688372264238 125000 -2518.06879445706 0 0 19 (C1) n - 1
REM
REM in /home/nfs/bkarasulu/CARBON/AIRSS/Generating-Clusters/ReaxFF-fromJPCA2015/Units_Real/with-SteepDescent/Only-C1/SD-CG/Try1-3A/FIRE-CG
REM
REM
REM
REM
REM
REM ./C.cell (11c1c37f851c82e70ff6c80c92926a4b)
REM
REM compiler GCC version 9.2.1 20190827 (Red Hat 9.2.1-1)
REM options -cpp -mtune=generic -march=x86-64 -g -O0 -fpre-include=/usr/include/finclude/math-vector-fortran.h
REM seed 1329874151 433056992 1887374256 -383854590 896128868 384627109 -569262268 -918553621 1962480731 1814987660 2085036146 255722801 -530069239 1001055720 2044742420 1777491927 -1194923828 -1771704372 438295111 1793056841 1367805084 76003400 -581937186 -1812585836 -880777496 329060728 -724250170 1892197867 -780989945 -1627433975 283191785 1012638627 -1932123127
REM
CELL 1.54180   50.00000   50.00000   50.00000   90.00000   90.00000   90.00000
LATT -1
SFAC C  
C      1  0.5113200000000  0.5346230000000  0.4995710000000 1.0
C      1  0.4798350000000  0.4771480000000  0.4678760000000 1.0
C      1  0.4887960000000  0.4509350000000  0.4720020000000 1.0
C      1  0.5458920000000  0.4888190000000  0.5047270000000 1.0
C      1  0.4816850000000  0.4951130000000  0.5354500000000 1.0
C      1  0.5323230000000  0.5280520000000  0.5126040000000 1.0
C      1  0.4697810000000  0.5024560000000  0.4681420000000 1.0
C      1  0.5021950000000  0.5053690000000  0.5456210000000 1.0
C      1  0.4689190000000  0.4578520000000  0.5151800000000 1.0
C      1  0.5397630000000  0.4675220000000  0.5136000000000 1.0
C      1  0.4855100000000  0.5270520000000  0.4593710000000 1.0
C      1  0.4883310000000  0.5417780000000  0.4853070000000 1.0
C      1  0.5569650000000  0.5209600000000  0.4670810000000 1.0
C      1  0.4618310000000  0.4869120000000  0.5191470000000 1.0
C      1  0.5265700000000  0.5188360000000  0.5429250000000 1.0
C      1  0.4864980000000  0.4392430000000  0.5016630000000 1.0
C      1  0.5543030000000  0.5158670000000  0.4927280000000 1.0
C      1  0.4617070000000  0.5348860000000  0.5007210000000 1.0
C      1  0.4577770000000  0.5065770000000  0.4962850000000 1.0
END
