TITL C-4164244-2836-478 9.36054392300313 125000 -16330.8699450206 0 0 110 (C1) n - 1
REM
REM in /home/nfs/bkarasulu/CARBON/AIRSS/Generating-Clusters/ReaxFF-fromJPCA2015/Units_Real/with-SteepDescent/Only-C1/SD-CG/Try1-3A/FIRE-CG
REM
REM
REM
REM
REM
REM ./C.cell (11c1c37f851c82e70ff6c80c92926a4b)
REM
REM compiler GCC version 9.2.1 20190827 (Red Hat 9.2.1-1)
REM options -cpp -mtune=generic -march=x86-64 -g -O0 -fpre-include=/usr/include/finclude/math-vector-fortran.h
REM seed 704039304 1133566606 -1281773054 -601853426 571152755 -72265236 -1093893358 391391779 -1115675988 1842698640 1648260439 -472428099 2072657668 -1387424915 -76746917 -1450085974 130892656 1265522722 1042755684 1159789534 1477143917 1055212495 -1038425312 858476544 1383060702 -14287538 325823382 1510346757 -1753418386 1121751761 1622085481 -1790424827 -1134261889
REM
CELL 1.54180   50.00000   50.00000   50.00000   90.00000   90.00000   90.00000
LATT -1
SFAC C  
C      1  0.4933480000000  0.4406680000000  0.5606290000000 1.0
C      1  0.5717040000000  0.5427970000000  0.4953770000000 1.0
C      1  0.4452020000000  0.4887250000000  0.4350160000000 1.0
C      1  0.5736750000000  0.5171810000000  0.4841780000000 1.0
C      1  0.5085890000000  0.4780120000000  0.4665210000000 1.0
C      1  0.4962720000000  0.5401030000000  0.5343190000000 1.0
C      1  0.5461630000000  0.5499940000000  0.4750110000000 1.0
C      1  0.5523950000000  0.5772960000000  0.4839600000000 1.0
C      1  0.4396950000000  0.5649570000000  0.4977030000000 1.0
C      1  0.5004400000000  0.5860220000000  0.5434680000000 1.0
C      1  0.5550860000000  0.5068960000000  0.4583830000000 1.0
C      1  0.4094400000000  0.5328320000000  0.5124320000000 1.0
C      1  0.4978020000000  0.4163640000000  0.4831990000000 1.0
C      1  0.5390780000000  0.5256060000000  0.5751160000000 1.0
C      1  0.4771480000000  0.4955370000000  0.5051170000000 1.0
C      1  0.4865330000000  0.5820140000000  0.4830630000000 1.0
C      1  0.4957200000000  0.4954620000000  0.5839720000000 1.0
C      1  0.4726850000000  0.5834690000000  0.5350150000000 1.0
C      1  0.5816760000000  0.4758400000000  0.5083580000000 1.0
C      1  0.5650030000000  0.4903880000000  0.5546040000000 1.0
C      1  0.4841250000000  0.5484890000000  0.4374010000000 1.0
C      1  0.4439800000000  0.4627580000000  0.4442210000000 1.0
C      1  0.5338680000000  0.5410300000000  0.4189390000000 1.0
C      1  0.5687860000000  0.4350220000000  0.4771170000000 1.0
C      1  0.4584360000000  0.5666390000000  0.5536210000000 1.0
C      1  0.4700130000000  0.5013060000000  0.4176300000000 1.0
C      1  0.5204320000000  0.4800010000000  0.5826790000000 1.0
C      1  0.5441650000000  0.5591890000000  0.5527830000000 1.0
C      1  0.4658810000000  0.4616420000000  0.5810770000000 1.0
C      1  0.4767820000000  0.4549930000000  0.5010110000000 1.0
C      1  0.4702060000000  0.4173560000000  0.5233550000000 1.0
C      1  0.4786800000000  0.4262040000000  0.4362870000000 1.0
C      1  0.4973040000000  0.5102700000000  0.4103370000000 1.0
C      1  0.4214060000000  0.4834470000000  0.5038040000000 1.0
C      1  0.4557970000000  0.4418100000000  0.5175510000000 1.0
C      1  0.4810880000000  0.5418900000000  0.5098670000000 1.0
C      1  0.4684540000000  0.5230750000000  0.4384390000000 1.0
C      1  0.5171310000000  0.4523870000000  0.5741820000000 1.0
C      1  0.4367150000000  0.5230140000000  0.5042010000000 1.0
C      1  0.5210810000000  0.4632490000000  0.5124140000000 1.0
C      1  0.4938210000000  0.4434280000000  0.4181040000000 1.0
C      1  0.4488220000000  0.4541500000000  0.5440800000000 1.0
C      1  0.4826520000000  0.5504740000000  0.5590630000000 1.0
C      1  0.5691180000000  0.4312330000000  0.5309310000000 1.0
C      1  0.5697850000000  0.4655370000000  0.5348950000000 1.0
C      1  0.5201470000000  0.4162010000000  0.5253060000000 1.0
C      1  0.5326380000000  0.5972780000000  0.4742940000000 1.0
C      1  0.5647270000000  0.5100940000000  0.5332060000000 1.0
C      1  0.5441960000000  0.4198680000000  0.5415600000000 1.0
C      1  0.4329920000000  0.4833860000000  0.4791970000000 1.0
C      1  0.4155350000000  0.5345890000000  0.5587760000000 1.0
C      1  0.5399250000000  0.4634540000000  0.5354880000000 1.0
C      1  0.5543560000000  0.4761960000000  0.4485850000000 1.0
C      1  0.4664690000000  0.4924040000000  0.4789270000000 1.0
C      1  0.4517110000000  0.4345470000000  0.4475680000000 1.0
C      1  0.5193460000000  0.5887290000000  0.5220440000000 1.0
C      1  0.5230040000000  0.5315010000000  0.4779980000000 1.0
C      1  0.5399010000000  0.4437480000000  0.5582970000000 1.0
C      1  0.4255470000000  0.4985630000000  0.4549250000000 1.0
C      1  0.5438570000000  0.5688260000000  0.4281710000000 1.0
C      1  0.5188570000000  0.4303090000000  0.4989770000000 1.0
C      1  0.5350570000000  0.5868670000000  0.4480400000000 1.0
C      1  0.4707890000000  0.4091210000000  0.4942280000000 1.0
C      1  0.4757570000000  0.5170620000000  0.4648990000000 1.0
C      1  0.5314000000000  0.5527990000000  0.5715410000000 1.0
C      1  0.4945780000000  0.4199970000000  0.5391640000000 1.0
C      1  0.4828760000000  0.4685910000000  0.4752730000000 1.0
C      1  0.5622090000000  0.4763750000000  0.4917120000000 1.0
C      1  0.5264140000000  0.4234170000000  0.4457640000000 1.0
C      1  0.5238930000000  0.4424290000000  0.4237970000000 1.0
C      1  0.5447050000000  0.5746530000000  0.5300680000000 1.0
C      1  0.4901140000000  0.5618000000000  0.4627500000000 1.0
C      1  0.4730500000000  0.4611320000000  0.5567920000000 1.0
C      1  0.5134890000000  0.4838110000000  0.4106000000000 1.0
C      1  0.4997960000000  0.4154620000000  0.4538120000000 1.0
C      1  0.5538370000000  0.5278360000000  0.4364820000000 1.0
C      1  0.5360410000000  0.4686270000000  0.4223450000000 1.0
C      1  0.5051390000000  0.5366260000000  0.4195120000000 1.0
C      1  0.5378100000000  0.5096350000000  0.5221980000000 1.0
C      1  0.5141700000000  0.5172130000000  0.5375360000000 1.0
C      1  0.4120730000000  0.4851600000000  0.5310690000000 1.0
C      1  0.4679700000000  0.5721330000000  0.5061160000000 1.0
C      1  0.4887020000000  0.4703560000000  0.4115580000000 1.0
C      1  0.4944270000000  0.5028630000000  0.5554810000000 1.0
C      1  0.5383870000000  0.4324440000000  0.4717900000000 1.0
C      1  0.4075630000000  0.5099000000000  0.5460650000000 1.0
C      1  0.4183120000000  0.5265760000000  0.4634010000000 1.0
C      1  0.4306550000000  0.4756940000000  0.5519050000000 1.0
C      1  0.5104900000000  0.5937370000000  0.4944460000000 1.0
C      1  0.5280850000000  0.5043880000000  0.4731850000000 1.0
C      1  0.4477450000000  0.4950900000000  0.5676800000000 1.0
C      1  0.5373760000000  0.4893650000000  0.4990930000000 1.0
C      1  0.4946400000000  0.5363130000000  0.4799850000000 1.0
C      1  0.5829860000000  0.5054550000000  0.5091270000000 1.0
C      1  0.4675290000000  0.4881570000000  0.5895800000000 1.0
C      1  0.5313560000000  0.4620140000000  0.4629160000000 1.0
C      1  0.5056720000000  0.5670360000000  0.5659770000000 1.0
C      1  0.4007360000000  0.5292880000000  0.4852150000000 1.0
C      1  0.5638270000000  0.5681680000000  0.5086190000000 1.0
C      1  0.5713480000000  0.4301060000000  0.5039980000000 1.0
C      1  0.5606770000000  0.5536460000000  0.4476260000000 1.0
C      1  0.4675230000000  0.4991360000000  0.5465850000000 1.0
C      1  0.5723330000000  0.4637250000000  0.4705860000000 1.0
C      1  0.4221160000000  0.5598310000000  0.5196710000000 1.0
C      1  0.4570590000000  0.4206920000000  0.4719600000000 1.0
C      1  0.4933950000000  0.4736810000000  0.5158260000000 1.0
C      1  0.4309700000000  0.5582020000000  0.5470620000000 1.0
C      1  0.4621650000000  0.5166130000000  0.5191570000000 1.0
C      1  0.5439110000000  0.4975030000000  0.5742800000000 1.0
C      1  0.4394620000000  0.5408270000000  0.4807780000000 1.0
END
