TITL C-4164234-2335-516 -12.5710199944288 125000 -19887.6289423563 0 0 135 (C1) n - 1
REM
REM in /home/nfs/bkarasulu/CARBON/AIRSS/Generating-Clusters/ReaxFF-fromJPCA2015/Units_Real/with-SteepDescent/Only-C1/SD-CG/Try1-3A/FIRE-CG
REM
REM
REM
REM
REM
REM ./C.cell (11c1c37f851c82e70ff6c80c92926a4b)
REM
REM compiler GCC version 9.2.1 20190827 (Red Hat 9.2.1-1)
REM options -cpp -mtune=generic -march=x86-64 -g -O0 -fpre-include=/usr/include/finclude/math-vector-fortran.h
REM seed 437108184 -1289446318 -813284688 1249030886 -1181541130 912127021 1385823574 -302135576 -2125727351 741137892 -1608612019 1405457988 -1162885306 -511365779 729318942 -2135172421 -109875310 -140200489 1488690846 -18123832 -1935364117 1491718476 -143270783 914872103 490930545 987437655 735672046 -1445147580 -1316939919 1579478014 -478424797 31007459 765394536
REM
CELL 1.54180   50.00000   50.00000   50.00000   90.00000   90.00000   90.00000
LATT -1
SFAC C  
C      1  0.4146490000000  0.4982780000000  0.4390310000000 1.0
C      1  0.5561200000000  0.4844570000000  0.4715030000000 1.0
C      1  0.4194580000000  0.5271490000000  0.4484450000000 1.0
C      1  0.4086850000000  0.4582410000000  0.5475860000000 1.0
C      1  0.5129980000000  0.4094320000000  0.5026780000000 1.0
C      1  0.5117740000000  0.5368350000000  0.5420290000000 1.0
C      1  0.5543750000000  0.4980250000000  0.4245710000000 1.0
C      1  0.5960770000000  0.5336240000000  0.4904630000000 1.0
C      1  0.5053170000000  0.5928230000000  0.5352660000000 1.0
C      1  0.4790240000000  0.5047240000000  0.4103610000000 1.0
C      1  0.5617380000000  0.5332720000000  0.5761940000000 1.0
C      1  0.4549200000000  0.5344070000000  0.5076310000000 1.0
C      1  0.4771990000000  0.4526620000000  0.4766710000000 1.0
C      1  0.5337660000000  0.5336100000000  0.5925040000000 1.0
C      1  0.4627730000000  0.5992070000000  0.5301570000000 1.0
C      1  0.5205250000000  0.5647570000000  0.4276220000000 1.0
C      1  0.4406550000000  0.4514250000000  0.4476720000000 1.0
C      1  0.5365210000000  0.5046840000000  0.4779280000000 1.0
C      1  0.4710450000000  0.4087210000000  0.4807430000000 1.0
C      1  0.5220110000000  0.5435980000000  0.4804160000000 1.0
C      1  0.5518860000000  0.4109780000000  0.4661490000000 1.0
C      1  0.5072350000000  0.4307090000000  0.5552700000000 1.0
C      1  0.4606230000000  0.5325290000000  0.5817400000000 1.0
C      1  0.4471630000000  0.4260990000000  0.5231430000000 1.0
C      1  0.5372510000000  0.5223110000000  0.5433150000000 1.0
C      1  0.4692810000000  0.4454370000000  0.4501550000000 1.0
C      1  0.5340780000000  0.4975600000000  0.4008870000000 1.0
C      1  0.4022880000000  0.5120400000000  0.5014860000000 1.0
C      1  0.5126470000000  0.5530870000000  0.5888360000000 1.0
C      1  0.5682050000000  0.4214580000000  0.4411240000000 1.0
C      1  0.4371990000000  0.5308660000000  0.5631520000000 1.0
C      1  0.4442330000000  0.5719030000000  0.4472020000000 1.0
C      1  0.5006650000000  0.4010750000000  0.4778590000000 1.0
C      1  0.4878060000000  0.5199450000000  0.4649500000000 1.0
C      1  0.5652210000000  0.5557980000000  0.5577640000000 1.0
C      1  0.4586010000000  0.5594940000000  0.4945190000000 1.0
C      1  0.5232350000000  0.4115700000000  0.4623430000000 1.0
C      1  0.5140550000000  0.4431760000000  0.4556980000000 1.0
C      1  0.4439490000000  0.4741470000000  0.5829410000000 1.0
C      1  0.5475790000000  0.5852040000000  0.4592030000000 1.0
C      1  0.5654120000000  0.4126410000000  0.5206550000000 1.0
C      1  0.5432420000000  0.5306880000000  0.4930430000000 1.0
C      1  0.4453730000000  0.5064070000000  0.4754440000000 1.0
C      1  0.4928280000000  0.4444410000000  0.4349770000000 1.0
C      1  0.4926610000000  0.5196380000000  0.5269970000000 1.0
C      1  0.4689530000000  0.4268970000000  0.5693510000000 1.0
C      1  0.5191670000000  0.4978470000000  0.5028420000000 1.0
C      1  0.4856690000000  0.5948150000000  0.5119450000000 1.0
C      1  0.4702240000000  0.5117450000000  0.6011710000000 1.0
C      1  0.4481940000000  0.4209060000000  0.4909280000000 1.0
C      1  0.4583010000000  0.4889420000000  0.4204940000000 1.0
C      1  0.4498880000000  0.4805480000000  0.5092360000000 1.0
C      1  0.5648940000000  0.5748940000000  0.4816440000000 1.0
C      1  0.4527180000000  0.5081190000000  0.5201850000000 1.0
C      1  0.5310110000000  0.4944860000000  0.5521870000000 1.0
C      1  0.4807610000000  0.4690380000000  0.5367030000000 1.0
C      1  0.4049120000000  0.5029260000000  0.5294210000000 1.0
C      1  0.5681090000000  0.4173240000000  0.4903590000000 1.0
C      1  0.5728100000000  0.4357710000000  0.5375340000000 1.0
C      1  0.4978800000000  0.5124280000000  0.6048990000000 1.0
C      1  0.5789160000000  0.4573930000000  0.5500570000000 1.0
C      1  0.4465750000000  0.5428610000000  0.4393760000000 1.0
C      1  0.5203400000000  0.5230840000000  0.3969070000000 1.0
C      1  0.4750910000000  0.4983980000000  0.5373360000000 1.0
C      1  0.5682700000000  0.5211990000000  0.4322880000000 1.0
C      1  0.5066800000000  0.5683980000000  0.4784240000000 1.0
C      1  0.5499330000000  0.4779740000000  0.4460920000000 1.0
C      1  0.5245310000000  0.5065790000000  0.5996200000000 1.0
C      1  0.4819630000000  0.5988590000000  0.5527870000000 1.0
C      1  0.5279380000000  0.4637380000000  0.4406610000000 1.0
C      1  0.5849340000000  0.4721650000000  0.5131790000000 1.0
C      1  0.5553160000000  0.5283740000000  0.5195890000000 1.0
C      1  0.4702800000000  0.4819180000000  0.5945570000000 1.0
C      1  0.4368430000000  0.5718760000000  0.4761910000000 1.0
C      1  0.3867930000000  0.4927240000000  0.4853760000000 1.0
C      1  0.4812470000000  0.5333660000000  0.4201780000000 1.0
C      1  0.4793850000000  0.5707180000000  0.5611100000000 1.0
C      1  0.5030000000000  0.4531650000000  0.4820870000000 1.0
C      1  0.4101680000000  0.4517960000000  0.4861890000000 1.0
C      1  0.5625570000000  0.4654610000000  0.4943410000000 1.0
C      1  0.5826790000000  0.5530590000000  0.4721190000000 1.0
C      1  0.4702330000000  0.4763490000000  0.4868350000000 1.0
C      1  0.4234030000000  0.4367810000000  0.5362100000000 1.0
C      1  0.5151340000000  0.4430450000000  0.5068450000000 1.0
C      1  0.5036930000000  0.4506410000000  0.5339910000000 1.0
C      1  0.4815020000000  0.5522560000000  0.5830590000000 1.0
C      1  0.4225150000000  0.4807560000000  0.5646120000000 1.0
C      1  0.4838150000000  0.5748710000000  0.4928970000000 1.0
C      1  0.4695220000000  0.4973620000000  0.4665940000000 1.0
C      1  0.5833980000000  0.4380360000000  0.4570210000000 1.0
C      1  0.5830140000000  0.5217190000000  0.5163530000000 1.0
C      1  0.4737590000000  0.5365150000000  0.4459440000000 1.0
C      1  0.5199710000000  0.4557440000000  0.4090950000000 1.0
C      1  0.5390280000000  0.4580740000000  0.5137610000000 1.0
C      1  0.5588850000000  0.5773530000000  0.5382300000000 1.0
C      1  0.5931920000000  0.4959370000000  0.5256990000000 1.0
C      1  0.5739720000000  0.5072760000000  0.5699400000000 1.0
C      1  0.5829600000000  0.5423600000000  0.4433200000000 1.0
C      1  0.5635330000000  0.4421670000000  0.4221050000000 1.0
C      1  0.4954280000000  0.4698850000000  0.5845730000000 1.0
C      1  0.5615760000000  0.5766860000000  0.5098010000000 1.0
C      1  0.5169680000000  0.5214340000000  0.4626410000000 1.0
C      1  0.4950150000000  0.4049040000000  0.5465430000000 1.0
C      1  0.4917400000000  0.4411140000000  0.5784620000000 1.0
C      1  0.5832700000000  0.4418530000000  0.4851850000000 1.0
C      1  0.5051030000000  0.4986270000000  0.3966490000000 1.0
C      1  0.3956760000000  0.4752120000000  0.5275960000000 1.0
C      1  0.5456260000000  0.5710980000000  0.4162060000000 1.0
C      1  0.5490860000000  0.4599510000000  0.4058090000000 1.0
C      1  0.5205520000000  0.5773760000000  0.4542920000000 1.0
C      1  0.4311470000000  0.5567780000000  0.5484260000000 1.0
C      1  0.5192170000000  0.4859140000000  0.5778360000000 1.0
C      1  0.5072040000000  0.5429820000000  0.4144870000000 1.0
C      1  0.5422970000000  0.3984840000000  0.5283350000000 1.0
C      1  0.5329450000000  0.5867620000000  0.5513230000000 1.0
C      1  0.4988370000000  0.5155020000000  0.4991220000000 1.0
C      1  0.4363580000000  0.4766370000000  0.4327770000000 1.0
C      1  0.5002060000000  0.5636680000000  0.5421990000000 1.0
C      1  0.4230700000000  0.5211640000000  0.4819960000000 1.0
C      1  0.4437750000000  0.5799050000000  0.5374440000000 1.0
C      1  0.5604430000000  0.5845700000000  0.4342950000000 1.0
C      1  0.5148120000000  0.3925730000000  0.5268950000000 1.0
C      1  0.6076680000000  0.5204530000000  0.4690400000000 1.0
C      1  0.4072630000000  0.5662420000000  0.4745510000000 1.0
C      1  0.5850420000000  0.4857640000000  0.5535980000000 1.0
C      1  0.4301430000000  0.4387210000000  0.4726160000000 1.0
C      1  0.5297980000000  0.4828840000000  0.5253170000000 1.0
C      1  0.3970700000000  0.5476530000000  0.4538020000000 1.0
C      1  0.4561570000000  0.4583190000000  0.5264720000000 1.0
C      1  0.5719660000000  0.5613100000000  0.4224100000000 1.0
C      1  0.4665030000000  0.4118820000000  0.5457820000000 1.0
C      1  0.3970740000000  0.4936570000000  0.4594170000000 1.0
C      1  0.3906330000000  0.4659090000000  0.4994070000000 1.0
C      1  0.5279550000000  0.5699370000000  0.5728260000000 1.0
C      1  0.4215740000000  0.5080280000000  0.5536670000000 1.0
END
