TITL C-4164240-4114-428 53.3786669245298 125000 -17543.5395768031 0 0 119 (C1) n - 1
REM
REM in /home/nfs/bkarasulu/CARBON/AIRSS/Generating-Clusters/ReaxFF-fromJPCA2015/Units_Real/with-SteepDescent/Only-C1/SD-CG/Try1-3A/FIRE-CG
REM
REM
REM
REM
REM
REM ./C.cell (11c1c37f851c82e70ff6c80c92926a4b)
REM
REM compiler GCC version 9.2.1 20190827 (Red Hat 9.2.1-1)
REM options -cpp -mtune=generic -march=x86-64 -g -O0 -fpre-include=/usr/include/finclude/math-vector-fortran.h
REM seed 1564526959 -1632778041 -672959141 748963398 -1609961649 -432798288 -2116784081 -324343993 -61015419 -851624590 -307698477 783100058 -1820667100 -826714363 152649356 -462088388 -1903919500 2082205522 -1346987710 -1786140192 -754618497 253360019 -1000708293 120294922 -619861063 -154507826 -1993200533 1512583837 -1861469082 965164218 -159824283 1039238848 -699645856
REM
CELL 1.54180   50.00000   50.00000   50.00000   90.00000   90.00000   90.00000
LATT -1
SFAC C  
C      1  0.5859310000000  0.5114990000000  0.5238610000000 1.0
C      1  0.5416750000000  0.4766550000000  0.5057660000000 1.0
C      1  0.4165070000000  0.5218630000000  0.4981970000000 1.0
C      1  0.4959410000000  0.5775710000000  0.5463090000000 1.0
C      1  0.5097290000000  0.5878200000000  0.4644110000000 1.0
C      1  0.5008460000000  0.4747640000000  0.4952830000000 1.0
C      1  0.5777590000000  0.5433530000000  0.4917870000000 1.0
C      1  0.4802990000000  0.4994560000000  0.4596320000000 1.0
C      1  0.4778120000000  0.5748190000000  0.5057400000000 1.0
C      1  0.4836390000000  0.5165140000000  0.5915360000000 1.0
C      1  0.4656010000000  0.5745760000000  0.5479070000000 1.0
C      1  0.5186040000000  0.4842520000000  0.5394440000000 1.0
C      1  0.5009800000000  0.5121950000000  0.4127840000000 1.0
C      1  0.5817330000000  0.5014400000000  0.4702260000000 1.0
C      1  0.5017330000000  0.5407690000000  0.4109090000000 1.0
C      1  0.5901240000000  0.4775830000000  0.5618950000000 1.0
C      1  0.5106160000000  0.5095670000000  0.5823760000000 1.0
C      1  0.5365800000000  0.4513300000000  0.4641800000000 1.0
C      1  0.5711670000000  0.5328180000000  0.5396520000000 1.0
C      1  0.5656610000000  0.5474350000000  0.4662580000000 1.0
C      1  0.5180910000000  0.4081870000000  0.5391690000000 1.0
C      1  0.5593530000000  0.4353950000000  0.5246700000000 1.0
C      1  0.5859890000000  0.4620480000000  0.4872660000000 1.0
C      1  0.4393870000000  0.4521970000000  0.4820290000000 1.0
C      1  0.5015910000000  0.5265710000000  0.4950820000000 1.0
C      1  0.4353300000000  0.5577010000000  0.4477540000000 1.0
C      1  0.4343100000000  0.5389590000000  0.5481360000000 1.0
C      1  0.4623490000000  0.4962590000000  0.5950340000000 1.0
C      1  0.4353170000000  0.5478700000000  0.5191760000000 1.0
C      1  0.5336780000000  0.4249320000000  0.4790720000000 1.0
C      1  0.4499200000000  0.5085230000000  0.4213580000000 1.0
C      1  0.4401980000000  0.4671800000000  0.5745100000000 1.0
C      1  0.5350020000000  0.4381930000000  0.5726200000000 1.0
C      1  0.4548150000000  0.5367950000000  0.4978940000000 1.0
C      1  0.5204040000000  0.4959380000000  0.4324550000000 1.0
C      1  0.5388810000000  0.4662860000000  0.5801380000000 1.0
C      1  0.5858110000000  0.4841400000000  0.5322080000000 1.0
C      1  0.4770930000000  0.5271900000000  0.4513080000000 1.0
C      1  0.5643840000000  0.5507370000000  0.5175990000000 1.0
C      1  0.4361750000000  0.4873030000000  0.4357270000000 1.0
C      1  0.5313960000000  0.4778250000000  0.4783150000000 1.0
C      1  0.4094720000000  0.4502040000000  0.5076630000000 1.0
C      1  0.5329160000000  0.5869510000000  0.4793070000000 1.0
C      1  0.5373200000000  0.4701660000000  0.4254530000000 1.0
C      1  0.5286690000000  0.5828790000000  0.5096530000000 1.0
C      1  0.4107760000000  0.5129640000000  0.4724840000000 1.0
C      1  0.5452550000000  0.4265540000000  0.5036100000000 1.0
C      1  0.5079460000000  0.4106240000000  0.4876350000000 1.0
C      1  0.4560330000000  0.4123450000000  0.4846790000000 1.0
C      1  0.4548090000000  0.5087020000000  0.4909050000000 1.0
C      1  0.4798200000000  0.5788040000000  0.4361920000000 1.0
C      1  0.5797180000000  0.4728940000000  0.4617500000000 1.0
C      1  0.4803360000000  0.4355910000000  0.5176780000000 1.0
C      1  0.5633770000000  0.4712940000000  0.5722010000000 1.0
C      1  0.4988410000000  0.5420510000000  0.4580430000000 1.0
C      1  0.4803630000000  0.5483240000000  0.4959660000000 1.0
C      1  0.5012910000000  0.4131130000000  0.5156850000000 1.0
C      1  0.5034360000000  0.5702530000000  0.4484570000000 1.0
C      1  0.4737970000000  0.5425250000000  0.5812130000000 1.0
C      1  0.4310840000000  0.4966810000000  0.5049060000000 1.0
C      1  0.5132030000000  0.4817040000000  0.5689970000000 1.0
C      1  0.4169720000000  0.4891690000000  0.4596150000000 1.0
C      1  0.4775770000000  0.5547820000000  0.4200280000000 1.0
C      1  0.5166630000000  0.4673110000000  0.5160620000000 1.0
C      1  0.5188960000000  0.5275700000000  0.4718480000000 1.0
C      1  0.4532810000000  0.5714050000000  0.5221410000000 1.0
C      1  0.4788750000000  0.4718270000000  0.4198760000000 1.0
C      1  0.4361710000000  0.4960910000000  0.5801520000000 1.0
C      1  0.5060340000000  0.4333060000000  0.5794470000000 1.0
C      1  0.5151800000000  0.4525230000000  0.4209850000000 1.0
C      1  0.4658860000000  0.4572600000000  0.4750350000000 1.0
C      1  0.4208140000000  0.4730710000000  0.4854760000000 1.0
C      1  0.5213660000000  0.5283720000000  0.5157730000000 1.0
C      1  0.5481170000000  0.5702790000000  0.4599210000000 1.0
C      1  0.5348670000000  0.5531730000000  0.5158850000000 1.0
C      1  0.4531050000000  0.4234530000000  0.5111510000000 1.0
C      1  0.4860360000000  0.4534500000000  0.4949220000000 1.0
C      1  0.5712570000000  0.5185300000000  0.4228330000000 1.0
C      1  0.5879750000000  0.5160820000000  0.4947080000000 1.0
C      1  0.4439670000000  0.4611000000000  0.5455470000000 1.0
C      1  0.5320700000000  0.5087210000000  0.5328460000000 1.0
C      1  0.5270170000000  0.5572370000000  0.5639900000000 1.0
C      1  0.5562220000000  0.4600550000000  0.4450620000000 1.0
C      1  0.4729930000000  0.4519810000000  0.5451270000000 1.0
C      1  0.4318640000000  0.4406480000000  0.5229380000000 1.0
C      1  0.5692510000000  0.4651060000000  0.5141980000000 1.0
C      1  0.5309730000000  0.5289660000000  0.5748930000000 1.0
C      1  0.5295800000000  0.5518360000000  0.4137760000000 1.0
C      1  0.4435730000000  0.4927460000000  0.5354700000000 1.0
C      1  0.4817190000000  0.4202970000000  0.4450240000000 1.0
C      1  0.5506920000000  0.5683000000000  0.5512560000000 1.0
C      1  0.4380870000000  0.4281550000000  0.4673190000000 1.0
C      1  0.5005390000000  0.5869920000000  0.5192180000000 1.0
C      1  0.5529020000000  0.5887600000000  0.5324950000000 1.0
C      1  0.5637160000000  0.5193620000000  0.4537170000000 1.0
C      1  0.4997440000000  0.4356990000000  0.4321530000000 1.0
C      1  0.4659280000000  0.4676940000000  0.5888660000000 1.0
C      1  0.5417570000000  0.4264290000000  0.5458090000000 1.0
C      1  0.4840660000000  0.4994290000000  0.4887740000000 1.0
C      1  0.5080210000000  0.5526170000000  0.5445260000000 1.0
C      1  0.4526160000000  0.4642600000000  0.4299500000000 1.0
C      1  0.5037160000000  0.4104360000000  0.5636460000000 1.0
C      1  0.4828760000000  0.4094320000000  0.4721340000000 1.0
C      1  0.4523900000000  0.5800690000000  0.4517870000000 1.0
C      1  0.4751150000000  0.4996510000000  0.4092260000000 1.0
C      1  0.5333360000000  0.5056770000000  0.4598910000000 1.0
C      1  0.5537010000000  0.5344110000000  0.4066070000000 1.0
C      1  0.4793120000000  0.4751870000000  0.5281260000000 1.0
C      1  0.4578550000000  0.4402680000000  0.4488600000000 1.0
C      1  0.4715350000000  0.5185530000000  0.5479260000000 1.0
C      1  0.4555600000000  0.5371890000000  0.4315120000000 1.0
C      1  0.4306600000000  0.5112250000000  0.5556070000000 1.0
C      1  0.4893280000000  0.4584180000000  0.5724380000000 1.0
C      1  0.5494640000000  0.5194710000000  0.5544270000000 1.0
C      1  0.4954810000000  0.4819390000000  0.4423930000000 1.0
C      1  0.4523030000000  0.5551230000000  0.5649470000000 1.0
C      1  0.4889110000000  0.5353820000000  0.5563190000000 1.0
C      1  0.4688590000000  0.5022790000000  0.5281980000000 1.0
C      1  0.5323520000000  0.5701110000000  0.4349940000000 1.0
END
