TITL C-4164238-4211-568 24.334469618685 125000 -21953.442465017 0 0 149 (C1) n - 1
REM
REM in /home/nfs/bkarasulu/CARBON/AIRSS/Generating-Clusters/ReaxFF-fromJPCA2015/Units_Real/with-SteepDescent/Only-C1/SD-CG/Try1-3A/FIRE-CG
REM
REM
REM
REM
REM
REM ./C.cell (11c1c37f851c82e70ff6c80c92926a4b)
REM
REM compiler GCC version 9.2.1 20190827 (Red Hat 9.2.1-1)
REM options -cpp -mtune=generic -march=x86-64 -g -O0 -fpre-include=/usr/include/finclude/math-vector-fortran.h
REM seed 1664884661 905420323 2088018073 -162375412 102051433 1419913395 1817728604 1650117349 -2035419137 382537556 868427042 -1893124879 -533938030 134212754 -535158157 -945187637 1826535614 2008908107 45903914 -1025349619 556206844 -928754736 351024850 1465265061 -390202766 1255964543 -1488102757 1011717400 -1611770713 2074581005 656436922 -972416181 -24182870
REM
CELL 1.54180   50.00000   50.00000   50.00000   90.00000   90.00000   90.00000
LATT -1
SFAC C  
C      1  0.4676480000000  0.4108020000000  0.4806880000000 1.0
C      1  0.5506260000000  0.5758370000000  0.4867200000000 1.0
C      1  0.5119980000000  0.4375220000000  0.5097770000000 1.0
C      1  0.4432300000000  0.5221050000000  0.5187700000000 1.0
C      1  0.5234570000000  0.5808040000000  0.4430790000000 1.0
C      1  0.4735230000000  0.4512620000000  0.5797990000000 1.0
C      1  0.5136320000000  0.3879340000000  0.5155380000000 1.0
C      1  0.4482480000000  0.5676570000000  0.5486230000000 1.0
C      1  0.4907370000000  0.4276690000000  0.5716320000000 1.0
C      1  0.5722460000000  0.5055280000000  0.5609090000000 1.0
C      1  0.5471280000000  0.4638760000000  0.5756300000000 1.0
C      1  0.4101830000000  0.5382310000000  0.4513420000000 1.0
C      1  0.3980170000000  0.5243500000000  0.5056210000000 1.0
C      1  0.4266070000000  0.4472640000000  0.4723810000000 1.0
C      1  0.4662510000000  0.5118600000000  0.4709020000000 1.0
C      1  0.5381040000000  0.5276070000000  0.5275790000000 1.0
C      1  0.5282480000000  0.4475990000000  0.4740990000000 1.0
C      1  0.4810970000000  0.6046600000000  0.4896770000000 1.0
C      1  0.5960850000000  0.5180050000000  0.5419310000000 1.0
C      1  0.4195900000000  0.4619530000000  0.5206290000000 1.0
C      1  0.5573390000000  0.4998790000000  0.4058050000000 1.0
C      1  0.4333960000000  0.4386150000000  0.5413380000000 1.0
C      1  0.5153760000000  0.5707060000000  0.4169120000000 1.0
C      1  0.5229580000000  0.4942770000000  0.5084880000000 1.0
C      1  0.5536920000000  0.5253790000000  0.5785170000000 1.0
C      1  0.4872410000000  0.3954270000000  0.5254820000000 1.0
C      1  0.5830500000000  0.5263930000000  0.4642890000000 1.0
C      1  0.5106350000000  0.4357100000000  0.4519100000000 1.0
C      1  0.5009000000000  0.5151920000000  0.5076380000000 1.0
C      1  0.5439580000000  0.4205390000000  0.5541030000000 1.0
C      1  0.4617610000000  0.4822580000000  0.4967570000000 1.0
C      1  0.5020560000000  0.5905270000000  0.5085700000000 1.0
C      1  0.5431390000000  0.4348820000000  0.5769580000000 1.0
C      1  0.4229980000000  0.5236390000000  0.4313310000000 1.0
C      1  0.4717200000000  0.5470220000000  0.4002690000000 1.0
C      1  0.5705840000000  0.5591350000000  0.5003950000000 1.0
C      1  0.4609800000000  0.5610430000000  0.4906010000000 1.0
C      1  0.4174400000000  0.4966120000000  0.4767200000000 1.0
C      1  0.4002580000000  0.5475400000000  0.5219130000000 1.0
C      1  0.5432560000000  0.4738560000000  0.4120130000000 1.0
C      1  0.4608460000000  0.5219030000000  0.3938480000000 1.0
C      1  0.4392420000000  0.5730120000000  0.5050810000000 1.0
C      1  0.4740710000000  0.5945190000000  0.4636220000000 1.0
C      1  0.4453510000000  0.4897250000000  0.5872890000000 1.0
C      1  0.5287220000000  0.5709300000000  0.5738530000000 1.0
C      1  0.4923700000000  0.5231310000000  0.5354030000000 1.0
C      1  0.4800470000000  0.5491710000000  0.5304790000000 1.0
C      1  0.5599300000000  0.4367310000000  0.4473550000000 1.0
C      1  0.4404890000000  0.4576140000000  0.4208810000000 1.0
C      1  0.5220540000000  0.4729190000000  0.5563760000000 1.0
C      1  0.4916600000000  0.4527390000000  0.4395790000000 1.0
C      1  0.5272680000000  0.4891070000000  0.6107760000000 1.0
C      1  0.4769350000000  0.5726060000000  0.5479790000000 1.0
C      1  0.4486380000000  0.5827290000000  0.4495580000000 1.0
C      1  0.4187940000000  0.5089670000000  0.5264140000000 1.0
C      1  0.5088980000000  0.4944050000000  0.3830290000000 1.0
C      1  0.4668510000000  0.5101500000000  0.5009860000000 1.0
C      1  0.5664720000000  0.4238230000000  0.4719750000000 1.0
C      1  0.4928300000000  0.4095500000000  0.4637340000000 1.0
C      1  0.4717260000000  0.4577300000000  0.4571210000000 1.0
C      1  0.5438310000000  0.5892490000000  0.5334630000000 1.0
C      1  0.5443230000000  0.4671630000000  0.6085110000000 1.0
C      1  0.4285340000000  0.4737290000000  0.5657600000000 1.0
C      1  0.4886070000000  0.5590590000000  0.5049120000000 1.0
C      1  0.4832480000000  0.5249790000000  0.4527070000000 1.0
C      1  0.4843520000000  0.5080680000000  0.3876250000000 1.0
C      1  0.4975380000000  0.5924500000000  0.5379020000000 1.0
C      1  0.5356240000000  0.4247340000000  0.4348850000000 1.0
C      1  0.5653480000000  0.4317510000000  0.5374050000000 1.0
C      1  0.5656880000000  0.5409590000000  0.4461540000000 1.0
C      1  0.4634390000000  0.4035070000000  0.5099260000000 1.0
C      1  0.5325500000000  0.5152210000000  0.5955990000000 1.0
C      1  0.4452930000000  0.4271770000000  0.4799230000000 1.0
C      1  0.4625750000000  0.4642800000000  0.4047240000000 1.0
C      1  0.5028840000000  0.5202030000000  0.5975180000000 1.0
C      1  0.4476220000000  0.4696680000000  0.5138550000000 1.0
C      1  0.4331980000000  0.5504630000000  0.5257430000000 1.0
C      1  0.4002660000000  0.5202080000000  0.4759100000000 1.0
C      1  0.4841520000000  0.5704040000000  0.4086140000000 1.0
C      1  0.5037980000000  0.5051430000000  0.4538430000000 1.0
C      1  0.4278420000000  0.5619480000000  0.4575740000000 1.0
C      1  0.4972350000000  0.5494240000000  0.4571690000000 1.0
C      1  0.5528040000000  0.5540240000000  0.5719960000000 1.0
C      1  0.4949450000000  0.4925900000000  0.6037190000000 1.0
C      1  0.4927010000000  0.4523350000000  0.5102210000000 1.0
C      1  0.4903500000000  0.4616580000000  0.4135190000000 1.0
C      1  0.5343300000000  0.5089140000000  0.3904450000000 1.0
C      1  0.4393190000000  0.4812410000000  0.4066930000000 1.0
C      1  0.5719820000000  0.4754860000000  0.5632730000000 1.0
C      1  0.5685950000000  0.4203930000000  0.5120620000000 1.0
C      1  0.4747430000000  0.4968270000000  0.5489180000000 1.0
C      1  0.5787440000000  0.4976130000000  0.4637200000000 1.0
C      1  0.4634410000000  0.5784900000000  0.4264580000000 1.0
C      1  0.4589070000000  0.6190610000000  0.5029590000000 1.0
C      1  0.5312300000000  0.3943470000000  0.4921570000000 1.0
C      1  0.4364180000000  0.5097570000000  0.4116850000000 1.0
C      1  0.4515570000000  0.4177110000000  0.5334790000000 1.0
C      1  0.4164980000000  0.4691600000000  0.4894210000000 1.0
C      1  0.5902510000000  0.5395210000000  0.4910160000000 1.0
C      1  0.4349650000000  0.6019920000000  0.5102060000000 1.0
C      1  0.4820490000000  0.4542070000000  0.5377110000000 1.0
C      1  0.4606900000000  0.5363930000000  0.5807390000000 1.0
C      1  0.5102130000000  0.5490790000000  0.5679310000000 1.0
C      1  0.4930600000000  0.4704430000000  0.5600740000000 1.0
C      1  0.4788790000000  0.4180810000000  0.5468400000000 1.0
C      1  0.5607450000000  0.5679200000000  0.5467600000000 1.0
C      1  0.5223130000000  0.5916190000000  0.5527330000000 1.0
C      1  0.5653620000000  0.4887780000000  0.5135110000000 1.0
C      1  0.4888280000000  0.5428100000000  0.5869990000000 1.0
C      1  0.6113240000000  0.4713320000000  0.5013870000000 1.0
C      1  0.4272510000000  0.5100110000000  0.6079740000000 1.0
C      1  0.4435050000000  0.5448300000000  0.4739420000000 1.0
C      1  0.5135850000000  0.3899200000000  0.4659700000000 1.0
C      1  0.5312320000000  0.4274060000000  0.4943190000000 1.0
C      1  0.5192880000000  0.4224640000000  0.5709270000000 1.0
C      1  0.5090660000000  0.5404370000000  0.4960080000000 1.0
C      1  0.5293780000000  0.5096640000000  0.4431860000000 1.0
C      1  0.5168690000000  0.5308800000000  0.5470160000000 1.0
C      1  0.5308510000000  0.4765900000000  0.4804810000000 1.0
C      1  0.4444950000000  0.4552600000000  0.4491070000000 1.0
C      1  0.5496570000000  0.4892590000000  0.4552080000000 1.0
C      1  0.6016470000000  0.4636850000000  0.5237950000000 1.0
C      1  0.4572740000000  0.5097430000000  0.5686020000000 1.0
C      1  0.4963620000000  0.5783580000000  0.4538250000000 1.0
C      1  0.5578710000000  0.5060240000000  0.5325910000000 1.0
C      1  0.5433570000000  0.5626700000000  0.4597550000000 1.0
C      1  0.4725370000000  0.4762270000000  0.5967960000000 1.0
C      1  0.5583470000000  0.5486500000000  0.5255090000000 1.0
C      1  0.4404840000000  0.5324070000000  0.6001850000000 1.0
C      1  0.5223250000000  0.5437990000000  0.4709960000000 1.0
C      1  0.5268190000000  0.3994810000000  0.4428590000000 1.0
C      1  0.5225120000000  0.4836450000000  0.5323170000000 1.0
C      1  0.5221750000000  0.5188160000000  0.4166660000000 1.0
C      1  0.5827620000000  0.4567270000000  0.5446110000000 1.0
C      1  0.4815480000000  0.4689300000000  0.4828040000000 1.0
C      1  0.4395570000000  0.5149860000000  0.4679780000000 1.0
C      1  0.5641560000000  0.4029330000000  0.4906800000000 1.0
C      1  0.5149330000000  0.4726220000000  0.4018810000000 1.0
C      1  0.5336770000000  0.5885340000000  0.5061730000000 1.0
C      1  0.5655720000000  0.5214150000000  0.4255870000000 1.0
C      1  0.5042990000000  0.4847300000000  0.4726650000000 1.0
C      1  0.4433560000000  0.4496400000000  0.5653320000000 1.0
C      1  0.5234360000000  0.5451110000000  0.4230460000000 1.0
C      1  0.4154730000000  0.4835110000000  0.5410890000000 1.0
C      1  0.5953000000000  0.5283140000000  0.5162370000000 1.0
C      1  0.4628090000000  0.4737420000000  0.5349400000000 1.0
C      1  0.5523950000000  0.4643110000000  0.4380470000000 1.0
C      1  0.5955990000000  0.4779080000000  0.4784070000000 1.0
C      1  0.5724670000000  0.4721750000000  0.4954610000000 1.0
END
