TITL C-4164244-2836-57 45.2986982912703 125000 -23510.677796388 0 0 157 (C1) n - 1
REM
REM in /home/nfs/bkarasulu/CARBON/AIRSS/Generating-Clusters/ReaxFF-fromJPCA2015/Units_Real/with-SteepDescent/Only-C1/SD-CG/Try1-3A/FIRE-CG
REM
REM
REM
REM
REM
REM ./C.cell (11c1c37f851c82e70ff6c80c92926a4b)
REM
REM compiler GCC version 9.2.1 20190827 (Red Hat 9.2.1-1)
REM options -cpp -mtune=generic -march=x86-64 -g -O0 -fpre-include=/usr/include/finclude/math-vector-fortran.h
REM seed 186132618 -1576336045 -818438315 -1728774740 -1444120328 1892301209 -246520222 -1492909306 -740728370 20291100 -1931461758 -1135929637 -150708036 -1273798691 -1185489170 -621152409 -1658816832 2078515186 152410594 141369036 1336540521 -1628768339 -649196522 -608771856 -760791620 -59567183 112686749 1782711170 -74850293 326872782 1114615536 -888172040 1427336542
REM
CELL 1.54180   50.00000   50.00000   50.00000   90.00000   90.00000   90.00000
LATT -1
SFAC C  
C      1  0.4446170000000  0.5226040000000  0.6047740000000 1.0
C      1  0.5446020000000  0.5713330000000  0.4641460000000 1.0
C      1  0.4914430000000  0.5688570000000  0.5240390000000 1.0
C      1  0.5629580000000  0.4253860000000  0.5317100000000 1.0
C      1  0.5742770000000  0.5463280000000  0.4363240000000 1.0
C      1  0.5239870000000  0.5474770000000  0.4140630000000 1.0
C      1  0.5473960000000  0.4158810000000  0.4770450000000 1.0
C      1  0.5886450000000  0.5221560000000  0.4436120000000 1.0
C      1  0.5065500000000  0.4086360000000  0.4462540000000 1.0
C      1  0.5713860000000  0.5344760000000  0.5781260000000 1.0
C      1  0.5066050000000  0.4785580000000  0.6026730000000 1.0
C      1  0.5586350000000  0.4275180000000  0.4521900000000 1.0
C      1  0.4533840000000  0.4068530000000  0.4500430000000 1.0
C      1  0.4031670000000  0.5070690000000  0.4679590000000 1.0
C      1  0.4322090000000  0.4311460000000  0.4582190000000 1.0
C      1  0.5738150000000  0.4741500000000  0.4203400000000 1.0
C      1  0.5785980000000  0.5019340000000  0.4246110000000 1.0
C      1  0.4807040000000  0.5744870000000  0.5674990000000 1.0
C      1  0.4064470000000  0.4447810000000  0.5048910000000 1.0
C      1  0.4893830000000  0.4309770000000  0.5577400000000 1.0
C      1  0.4997920000000  0.5239840000000  0.4997680000000 1.0
C      1  0.4843660000000  0.5165260000000  0.4015890000000 1.0
C      1  0.5247320000000  0.5400610000000  0.4980920000000 1.0
C      1  0.5007810000000  0.4679870000000  0.4035700000000 1.0
C      1  0.4301850000000  0.5645460000000  0.4459880000000 1.0
C      1  0.4027470000000  0.5342040000000  0.4696140000000 1.0
C      1  0.5130520000000  0.4979800000000  0.5044860000000 1.0
C      1  0.5059090000000  0.5120110000000  0.4485210000000 1.0
C      1  0.5434130000000  0.5228180000000  0.4838680000000 1.0
C      1  0.4629320000000  0.5484890000000  0.5702190000000 1.0
C      1  0.4634190000000  0.5314740000000  0.5447500000000 1.0
C      1  0.5733640000000  0.6119710000000  0.5204530000000 1.0
C      1  0.4953940000000  0.4237230000000  0.4897770000000 1.0
C      1  0.5765650000000  0.5157740000000  0.5566310000000 1.0
C      1  0.5779510000000  0.4488810000000  0.5414090000000 1.0
C      1  0.5337290000000  0.5039420000000  0.3993880000000 1.0
C      1  0.5363290000000  0.4469710000000  0.5719500000000 1.0
C      1  0.4585720000000  0.3942790000000  0.5017440000000 1.0
C      1  0.4120530000000  0.4854510000000  0.5372250000000 1.0
C      1  0.5333110000000  0.5986140000000  0.4598460000000 1.0
C      1  0.6081680000000  0.4849000000000  0.5320520000000 1.0
C      1  0.4385130000000  0.5195360000000  0.4310990000000 1.0
C      1  0.5226070000000  0.5622870000000  0.4799330000000 1.0
C      1  0.4903150000000  0.4881220000000  0.4522980000000 1.0
C      1  0.4780490000000  0.3973160000000  0.5242850000000 1.0
C      1  0.4314940000000  0.5541060000000  0.5614820000000 1.0
C      1  0.5857130000000  0.4655620000000  0.4415350000000 1.0
C      1  0.4155580000000  0.5329050000000  0.5499230000000 1.0
C      1  0.4418240000000  0.5013250000000  0.5031610000000 1.0
C      1  0.4229410000000  0.4392940000000  0.5519330000000 1.0
C      1  0.4986010000000  0.5145770000000  0.5412290000000 1.0
C      1  0.4695570000000  0.4115580000000  0.5479710000000 1.0
C      1  0.4791800000000  0.4873000000000  0.4002940000000 1.0
C      1  0.5131790000000  0.5243710000000  0.4010580000000 1.0
C      1  0.4696650000000  0.5413640000000  0.4680300000000 1.0
C      1  0.5367130000000  0.6038730000000  0.4888630000000 1.0
C      1  0.5283660000000  0.4759490000000  0.4021380000000 1.0
C      1  0.4746420000000  0.5597800000000  0.4162310000000 1.0
C      1  0.4319590000000  0.5658990000000  0.4931720000000 1.0
C      1  0.4321870000000  0.4918630000000  0.4173880000000 1.0
C      1  0.4379820000000  0.4768520000000  0.4621070000000 1.0
C      1  0.5945620000000  0.4786860000000  0.5057150000000 1.0
C      1  0.5142970000000  0.4293260000000  0.4278700000000 1.0
C      1  0.4172010000000  0.4466500000000  0.4388570000000 1.0
C      1  0.5142270000000  0.6053580000000  0.5060930000000 1.0
C      1  0.5296970000000  0.4510210000000  0.5045910000000 1.0
C      1  0.4617760000000  0.3940130000000  0.4735470000000 1.0
C      1  0.5087760000000  0.5870020000000  0.4480430000000 1.0
C      1  0.4713400000000  0.5339990000000  0.5966680000000 1.0
C      1  0.5712710000000  0.4695620000000  0.5213380000000 1.0
C      1  0.5142530000000  0.5867490000000  0.5315850000000 1.0
C      1  0.4472740000000  0.5030270000000  0.4544710000000 1.0
C      1  0.5520260000000  0.5730350000000  0.5608310000000 1.0
C      1  0.5847990000000  0.5519750000000  0.5315950000000 1.0
C      1  0.4331450000000  0.5689060000000  0.5390640000000 1.0
C      1  0.4884210000000  0.4392350000000  0.5854730000000 1.0
C      1  0.4526340000000  0.5050810000000  0.5446040000000 1.0
C      1  0.4855700000000  0.5368310000000  0.5247990000000 1.0
C      1  0.5873590000000  0.5029040000000  0.4890080000000 1.0
C      1  0.5035940000000  0.5615970000000  0.4316860000000 1.0
C      1  0.4948650000000  0.5180860000000  0.6059730000000 1.0
C      1  0.4943940000000  0.4569020000000  0.5414780000000 1.0
C      1  0.4106080000000  0.5472800000000  0.4970000000000 1.0
C      1  0.5173260000000  0.4135360000000  0.4736850000000 1.0
C      1  0.4947130000000  0.5895310000000  0.5599590000000 1.0
C      1  0.4885980000000  0.5989230000000  0.4937050000000 1.0
C      1  0.4148370000000  0.5036520000000  0.5146300000000 1.0
C      1  0.4714190000000  0.5870690000000  0.5142160000000 1.0
C      1  0.5460690000000  0.5360160000000  0.5948440000000 1.0
C      1  0.5334890000000  0.5068880000000  0.4608770000000 1.0
C      1  0.5433010000000  0.4749350000000  0.5666720000000 1.0
C      1  0.4076740000000  0.4792810000000  0.4692080000000 1.0
C      1  0.4017710000000  0.4634040000000  0.4918010000000 1.0
C      1  0.4514000000000  0.5694420000000  0.4280790000000 1.0
C      1  0.5029600000000  0.4084820000000  0.5135160000000 1.0
C      1  0.4624110000000  0.4569900000000  0.5829700000000 1.0
C      1  0.4176070000000  0.5381110000000  0.4442070000000 1.0
C      1  0.5632920000000  0.4244120000000  0.5008030000000 1.0
C      1  0.4750200000000  0.4650940000000  0.4394440000000 1.0
C      1  0.5907180000000  0.4898060000000  0.5562950000000 1.0
C      1  0.5481020000000  0.4604230000000  0.4148250000000 1.0
C      1  0.4698720000000  0.4408990000000  0.4905750000000 1.0
C      1  0.5886640000000  0.5524040000000  0.4813450000000 1.0
C      1  0.5828190000000  0.5652960000000  0.5064700000000 1.0
C      1  0.5285970000000  0.5346210000000  0.5573100000000 1.0
C      1  0.4077590000000  0.5319070000000  0.5216260000000 1.0
C      1  0.4764310000000  0.4634940000000  0.5146230000000 1.0
C      1  0.4946850000000  0.4997850000000  0.5654660000000 1.0
C      1  0.4564660000000  0.4860580000000  0.5221170000000 1.0
C      1  0.4927830000000  0.5379730000000  0.4517150000000 1.0
C      1  0.5417540000000  0.4375740000000  0.4301670000000 1.0
C      1  0.4420610000000  0.4184070000000  0.5559200000000 1.0
C      1  0.5960620000000  0.5245520000000  0.4715850000000 1.0
C      1  0.5448120000000  0.4571280000000  0.4802250000000 1.0
C      1  0.5237210000000  0.5071890000000  0.5707390000000 1.0
C      1  0.4224760000000  0.4280420000000  0.4881990000000 1.0
C      1  0.4830020000000  0.4914060000000  0.6097960000000 1.0
C      1  0.5765430000000  0.5578320000000  0.5600920000000 1.0
C      1  0.4556890000000  0.4536060000000  0.4632640000000 1.0
C      1  0.5396340000000  0.4812770000000  0.4691500000000 1.0
C      1  0.5224350000000  0.4294300000000  0.5232140000000 1.0
C      1  0.5345480000000  0.5557640000000  0.5764490000000 1.0
C      1  0.4791290000000  0.4125330000000  0.4407760000000 1.0
C      1  0.4416760000000  0.5821800000000  0.5162600000000 1.0
C      1  0.5251230000000  0.4739000000000  0.5406620000000 1.0
C      1  0.5168590000000  0.4997410000000  0.5314950000000 1.0
C      1  0.4988720000000  0.5784410000000  0.4738300000000 1.0
C      1  0.5727410000000  0.5634180000000  0.4594540000000 1.0
C      1  0.4138820000000  0.4573870000000  0.5312670000000 1.0
C      1  0.4938160000000  0.4782180000000  0.4962730000000 1.0
C      1  0.4353930000000  0.4986640000000  0.5889720000000 1.0
C      1  0.4823730000000  0.4737790000000  0.5619340000000 1.0
C      1  0.4836880000000  0.4960180000000  0.4778340000000 1.0
C      1  0.5243750000000  0.5156100000000  0.5989130000000 1.0
C      1  0.5524470000000  0.5421600000000  0.4169810000000 1.0
C      1  0.5721270000000  0.4676150000000  0.5635770000000 1.0
C      1  0.4595560000000  0.5130290000000  0.4783410000000 1.0
C      1  0.5421650000000  0.4739210000000  0.5169690000000 1.0
C      1  0.5410850000000  0.5739020000000  0.5340640000000 1.0
C      1  0.4397550000000  0.4404070000000  0.5731260000000 1.0
C      1  0.5385980000000  0.4285200000000  0.5482520000000 1.0
C      1  0.4496580000000  0.5630140000000  0.4692810000000 1.0
C      1  0.5136400000000  0.4529780000000  0.5920080000000 1.0
C      1  0.4247710000000  0.5034050000000  0.5584440000000 1.0
C      1  0.4641430000000  0.5330220000000  0.4130840000000 1.0
C      1  0.4929030000000  0.4473420000000  0.4220070000000 1.0
C      1  0.5375850000000  0.5439980000000  0.5305240000000 1.0
C      1  0.4557060000000  0.4815640000000  0.5992330000000 1.0
C      1  0.5834020000000  0.4432490000000  0.4574690000000 1.0
C      1  0.5613220000000  0.5911500000000  0.5094320000000 1.0
C      1  0.4482140000000  0.4224170000000  0.5005550000000 1.0
C      1  0.5747030000000  0.4469620000000  0.4861130000000 1.0
C      1  0.5657640000000  0.5282480000000  0.5289310000000 1.0
C      1  0.5578470000000  0.5150640000000  0.4096080000000 1.0
C      1  0.4174330000000  0.4692300000000  0.4261840000000 1.0
C      1  0.5639090000000  0.5149190000000  0.5011060000000 1.0
C      1  0.4571140000000  0.4770950000000  0.4156400000000 1.0
END
