TITL C-4164247-2821-497 61.6002200236052 125000 -19175.0934046576 0 0 130 (C1) n - 1
REM
REM in /home/nfs/bkarasulu/CARBON/AIRSS/Generating-Clusters/ReaxFF-fromJPCA2015/Units_Real/with-SteepDescent/Only-C1/SD-CG/Try1-3A/FIRE-CG
REM
REM
REM
REM
REM
REM ./C.cell (11c1c37f851c82e70ff6c80c92926a4b)
REM
REM compiler GCC version 9.2.1 20190827 (Red Hat 9.2.1-1)
REM options -cpp -mtune=generic -march=x86-64 -g -O0 -fpre-include=/usr/include/finclude/math-vector-fortran.h
REM seed 419055100 -739163201 639812050 1778365045 1623683900 -100902811 -71529392 -525490131 -1493925319 625034943 -182741279 713850982 1357909500 232079274 1945779317 797767231 -659348939 -383146467 879406101 574044035 -1730628032 -455764014 2007703420 -1742707712 -832007774 417844887 -494119536 -209800783 -532752927 -244308575 -2093593585 408859121 -219183152
REM
CELL 1.54180   50.00000   50.00000   50.00000   90.00000   90.00000   90.00000
LATT -1
SFAC C  
C      1  0.4404530000000  0.5481450000000  0.4389220000000 1.0
C      1  0.5256220000000  0.3936910000000  0.5152860000000 1.0
C      1  0.5165700000000  0.4209680000000  0.4482680000000 1.0
C      1  0.4037410000000  0.5432060000000  0.4873390000000 1.0
C      1  0.4655380000000  0.5600460000000  0.4309200000000 1.0
C      1  0.4567540000000  0.5019090000000  0.4189470000000 1.0
C      1  0.5447580000000  0.4901010000000  0.5866890000000 1.0
C      1  0.5291230000000  0.4707770000000  0.4717240000000 1.0
C      1  0.4578980000000  0.4089540000000  0.5127570000000 1.0
C      1  0.5739260000000  0.4693120000000  0.5529910000000 1.0
C      1  0.4895210000000  0.4285520000000  0.4401540000000 1.0
C      1  0.4659520000000  0.4743150000000  0.5188280000000 1.0
C      1  0.5129360000000  0.5086310000000  0.4550020000000 1.0
C      1  0.4857990000000  0.4651990000000  0.4990660000000 1.0
C      1  0.5598340000000  0.5384950000000  0.5628010000000 1.0
C      1  0.4808840000000  0.4578230000000  0.4273600000000 1.0
C      1  0.5324880000000  0.5506690000000  0.5635580000000 1.0
C      1  0.4333430000000  0.4456450000000  0.5395850000000 1.0
C      1  0.4245600000000  0.5609880000000  0.4645160000000 1.0
C      1  0.4839960000000  0.5150770000000  0.5212160000000 1.0
C      1  0.4602260000000  0.5865150000000  0.4721190000000 1.0
C      1  0.4263300000000  0.4855210000000  0.5429800000000 1.0
C      1  0.4063340000000  0.4772590000000  0.4803700000000 1.0
C      1  0.5074670000000  0.4989160000000  0.4116700000000 1.0
C      1  0.5222490000000  0.4232100000000  0.5558270000000 1.0
C      1  0.5994790000000  0.4897710000000  0.4483760000000 1.0
C      1  0.5189340000000  0.4626810000000  0.5393770000000 1.0
C      1  0.4065670000000  0.4909300000000  0.4564620000000 1.0
C      1  0.4408820000000  0.5791240000000  0.5166410000000 1.0
C      1  0.4995810000000  0.4841430000000  0.5886920000000 1.0
C      1  0.5170970000000  0.5850960000000  0.4956950000000 1.0
C      1  0.5123610000000  0.5585720000000  0.4306810000000 1.0
C      1  0.5150970000000  0.5329230000000  0.5796650000000 1.0
C      1  0.4745700000000  0.5619760000000  0.5681920000000 1.0
C      1  0.5565170000000  0.5082520000000  0.4349830000000 1.0
C      1  0.4373530000000  0.4684780000000  0.5245840000000 1.0
C      1  0.4362000000000  0.5215620000000  0.4279390000000 1.0
C      1  0.5072340000000  0.4704200000000  0.4179560000000 1.0
C      1  0.5454480000000  0.5075830000000  0.5402100000000 1.0
C      1  0.5516570000000  0.5108710000000  0.5674480000000 1.0
C      1  0.4656980000000  0.5186710000000  0.5854640000000 1.0
C      1  0.4733380000000  0.5619830000000  0.4865980000000 1.0
C      1  0.5325910000000  0.4466710000000  0.5199750000000 1.0
C      1  0.4733690000000  0.5546930000000  0.5267850000000 1.0
C      1  0.5147230000000  0.3906470000000  0.4897350000000 1.0
C      1  0.5496650000000  0.4085670000000  0.5046460000000 1.0
C      1  0.4858690000000  0.4360250000000  0.4987900000000 1.0
C      1  0.4869330000000  0.5393020000000  0.5816170000000 1.0
C      1  0.4078820000000  0.5239060000000  0.5066410000000 1.0
C      1  0.4488420000000  0.5002900000000  0.4822100000000 1.0
C      1  0.5474740000000  0.4887490000000  0.4869210000000 1.0
C      1  0.4912550000000  0.5793250000000  0.5517290000000 1.0
C      1  0.5054230000000  0.4822700000000  0.4847290000000 1.0
C      1  0.4737480000000  0.5836350000000  0.4468630000000 1.0
C      1  0.4203800000000  0.4526440000000  0.4691830000000 1.0
C      1  0.5194330000000  0.5046660000000  0.5904900000000 1.0
C      1  0.5833340000000  0.5380880000000  0.4622800000000 1.0
C      1  0.5234030000000  0.4987850000000  0.5005220000000 1.0
C      1  0.4902350000000  0.5821030000000  0.5011940000000 1.0
C      1  0.4804690000000  0.4730280000000  0.4538410000000 1.0
C      1  0.5087020000000  0.4079210000000  0.5362330000000 1.0
C      1  0.6001190000000  0.5141080000000  0.4653670000000 1.0
C      1  0.5572960000000  0.5823450000000  0.5189510000000 1.0
C      1  0.4670700000000  0.5175320000000  0.4652940000000 1.0
C      1  0.5757190000000  0.5826760000000  0.4945310000000 1.0
C      1  0.5598570000000  0.5391050000000  0.5037440000000 1.0
C      1  0.4566500000000  0.4726400000000  0.4689800000000 1.0
C      1  0.5800150000000  0.5544050000000  0.4871620000000 1.0
C      1  0.4733540000000  0.4823470000000  0.5440930000000 1.0
C      1  0.4112920000000  0.5379250000000  0.4646350000000 1.0
C      1  0.5040620000000  0.4580670000000  0.5700210000000 1.0
C      1  0.5245190000000  0.5775510000000  0.4663520000000 1.0
C      1  0.4349740000000  0.4271740000000  0.5162400000000 1.0
C      1  0.5843540000000  0.4504720000000  0.5024320000000 1.0
C      1  0.5524830000000  0.4655020000000  0.5725390000000 1.0
C      1  0.4724950000000  0.4909590000000  0.5896010000000 1.0
C      1  0.5280390000000  0.4641880000000  0.4368710000000 1.0
C      1  0.5488970000000  0.5546110000000  0.5221800000000 1.0
C      1  0.5987200000000  0.4963000000000  0.4893020000000 1.0
C      1  0.4737420000000  0.5844860000000  0.5256440000000 1.0
C      1  0.5213630000000  0.4918170000000  0.5328830000000 1.0
C      1  0.5856760000000  0.4963510000000  0.5516080000000 1.0
C      1  0.4852330000000  0.5008040000000  0.4522460000000 1.0
C      1  0.5418760000000  0.4399490000000  0.4442640000000 1.0
C      1  0.4599060000000  0.4708260000000  0.5688790000000 1.0
C      1  0.5584690000000  0.5348550000000  0.4475630000000 1.0
C      1  0.4572880000000  0.5144290000000  0.5090450000000 1.0
C      1  0.4403240000000  0.4615930000000  0.4480220000000 1.0
C      1  0.5196800000000  0.5743370000000  0.5483930000000 1.0
C      1  0.5862460000000  0.4500380000000  0.4742820000000 1.0
C      1  0.4229930000000  0.5118800000000  0.5522890000000 1.0
C      1  0.5281480000000  0.5108430000000  0.4290870000000 1.0
C      1  0.4370360000000  0.5792250000000  0.4873840000000 1.0
C      1  0.4616470000000  0.4206320000000  0.4838820000000 1.0
C      1  0.4831980000000  0.5395660000000  0.4714600000000 1.0
C      1  0.4773690000000  0.4103450000000  0.4588120000000 1.0
C      1  0.5412020000000  0.4214440000000  0.4800490000000 1.0
C      1  0.4421210000000  0.5274950000000  0.5706930000000 1.0
C      1  0.5719550000000  0.4830040000000  0.4405420000000 1.0
C      1  0.5292560000000  0.5893010000000  0.5234440000000 1.0
C      1  0.4117000000000  0.5151470000000  0.4433370000000 1.0
C      1  0.5359120000000  0.5559020000000  0.4488920000000 1.0
C      1  0.4507600000000  0.4436210000000  0.5621860000000 1.0
C      1  0.4334520000000  0.4336200000000  0.4879080000000 1.0
C      1  0.5820780000000  0.5248680000000  0.5457220000000 1.0
C      1  0.4466310000000  0.5541780000000  0.5613640000000 1.0
C      1  0.4943680000000  0.5005170000000  0.5424600000000 1.0
C      1  0.4774560000000  0.4450700000000  0.5702080000000 1.0
C      1  0.5043130000000  0.3973960000000  0.4641910000000 1.0
C      1  0.5226360000000  0.5447400000000  0.5165080000000 1.0
C      1  0.4881340000000  0.5432620000000  0.4218550000000 1.0
C      1  0.5316440000000  0.4458080000000  0.4899050000000 1.0
C      1  0.5274700000000  0.5288610000000  0.4932040000000 1.0
C      1  0.4974530000000  0.5390670000000  0.5295800000000 1.0
C      1  0.4840850000000  0.4189960000000  0.5222190000000 1.0
C      1  0.5715350000000  0.4941730000000  0.4996540000000 1.0
C      1  0.4832050000000  0.5152790000000  0.4145610000000 1.0
C      1  0.5099790000000  0.5323870000000  0.4707860000000 1.0
C      1  0.4169910000000  0.5339130000000  0.5327620000000 1.0
C      1  0.4533150000000  0.4729980000000  0.4239130000000 1.0
C      1  0.4307870000000  0.5596630000000  0.5365290000000 1.0
C      1  0.5662880000000  0.5159300000000  0.5204460000000 1.0
C      1  0.5779770000000  0.4484330000000  0.5294400000000 1.0
C      1  0.5659610000000  0.4564680000000  0.4522400000000 1.0
C      1  0.4563540000000  0.5430790000000  0.5071110000000 1.0
C      1  0.4205340000000  0.4994160000000  0.4944250000000 1.0
C      1  0.5560980000000  0.4293230000000  0.5253840000000 1.0
C      1  0.5313210000000  0.4434390000000  0.5737730000000 1.0
C      1  0.5035240000000  0.5824970000000  0.4459230000000 1.0
C      1  0.6053500000000  0.4725400000000  0.4725090000000 1.0
END
