TITL C-4164242-3624-151 -3.13461964714642e-09 125000 -7007.46933315827 0 0 48 (C1) n - 1
REM
REM in /home/nfs/bkarasulu/CARBON/AIRSS/Generating-Clusters/ReaxFF-fromJPCA2015/Units_Real/with-SteepDescent/Only-C1/SD-CG/Try1-3A/FIRE-CG
REM
REM
REM
REM
REM
REM ./C.cell (11c1c37f851c82e70ff6c80c92926a4b)
REM
REM compiler GCC version 9.2.1 20190827 (Red Hat 9.2.1-1)
REM options -cpp -mtune=generic -march=x86-64 -g -O0 -fpre-include=/usr/include/finclude/math-vector-fortran.h
REM seed 2110618392 -1263108633 1417338442 -1684215882 -750709216 1535451179 938969345 -1101255177 916695134 -1019668308 2001937088 -2096974841 -1950109422 905319971 -444933744 -1813087020 -323649359 1654494494 -302845710 1838740767 1004000573 -454899577 1175599882 -1335554697 1793208054 -1938342344 -2059426071 -606670576 1692614868 553365924 -1099607595 2105842357 -766658675
REM
CELL 1.54180   50.00000   50.00000   50.00000   90.00000   90.00000   90.00000
LATT -1
SFAC C  
C      1  0.4818150000000  0.4743500000000  0.5448760000000 1.0
C      1  0.4860170000000  0.4719480000000  0.4402450000000 1.0
C      1  0.4581090000000  0.4915870000000  0.5450150000000 1.0
C      1  0.5514820000000  0.5246960000000  0.4732910000000 1.0
C      1  0.4576930000000  0.4734490000000  0.4467390000000 1.0
C      1  0.5182470000000  0.4409480000000  0.5155000000000 1.0
C      1  0.4442020000000  0.4631370000000  0.4999070000000 1.0
C      1  0.5433440000000  0.4702490000000  0.4770570000000 1.0
C      1  0.4546070000000  0.5391120000000  0.4824700000000 1.0
C      1  0.5057080000000  0.4927000000000  0.4529850000000 1.0
C      1  0.5527830000000  0.5414300000000  0.5228590000000 1.0
C      1  0.5506440000000  0.4647540000000  0.5275100000000 1.0
C      1  0.5287180000000  0.5389030000000  0.4616650000000 1.0
C      1  0.4958630000000  0.4975730000000  0.4801270000000 1.0
C      1  0.4390730000000  0.4825970000000  0.5235050000000 1.0
C      1  0.4816980000000  0.5291300000000  0.4504880000000 1.0
C      1  0.5699540000000  0.5044130000000  0.5053350000000 1.0
C      1  0.4433180000000  0.4966820000000  0.4559010000000 1.0
C      1  0.4542860000000  0.5263990000000  0.4577860000000 1.0
C      1  0.4406290000000  0.4732920000000  0.4721780000000 1.0
C      1  0.5050690000000  0.4483350000000  0.4456520000000 1.0
C      1  0.5148530000000  0.5413440000000  0.5004410000000 1.0
C      1  0.5033460000000  0.4907490000000  0.5044300000000 1.0
C      1  0.4872690000000  0.4721210000000  0.5160710000000 1.0
C      1  0.5257570000000  0.4552500000000  0.5406920000000 1.0
C      1  0.4293950000000  0.5082400000000  0.5205940000000 1.0
C      1  0.4907320000000  0.4454040000000  0.5048380000000 1.0
C      1  0.5257590000000  0.4696870000000  0.4545830000000 1.0
C      1  0.5083020000000  0.5250230000000  0.4458750000000 1.0
C      1  0.4985740000000  0.4381180000000  0.4213780000000 1.0
C      1  0.5202670000000  0.5017040000000  0.5603210000000 1.0
C      1  0.5574910000000  0.4966880000000  0.4800470000000 1.0
C      1  0.5089550000000  0.4747780000000  0.5552180000000 1.0
C      1  0.4848380000000  0.5373990000000  0.5422760000000 1.0
C      1  0.4807100000000  0.5568510000000  0.5208660000000 1.0
C      1  0.4395970000000  0.5332450000000  0.5277850000000 1.0
C      1  0.4988150000000  0.5177020000000  0.4996850000000 1.0
C      1  0.5031580000000  0.5656380000000  0.5043950000000 1.0
C      1  0.5414640000000  0.4532890000000  0.5017040000000 1.0
C      1  0.4547280000000  0.5510250000000  0.5074350000000 1.0
C      1  0.5397480000000  0.5372170000000  0.5470690000000 1.0
C      1  0.5602690000000  0.4924960000000  0.5303810000000 1.0
C      1  0.5178240000000  0.5593600000000  0.4798180000000 1.0
C      1  0.5476520000000  0.5082490000000  0.5517370000000 1.0
C      1  0.4598710000000  0.5213500000000  0.5454790000000 1.0
C      1  0.5654760000000  0.5338300000000  0.4991810000000 1.0
C      1  0.5106190000000  0.5285270000000  0.5528520000000 1.0
C      1  0.4612740000000  0.4390290000000  0.5037590000000 1.0
END
