TITL C-4164244-2836-47 34.1989231810787 125000 -29821.1436796707 0 0 197 (C1) n - 1
REM
REM in /home/nfs/bkarasulu/CARBON/AIRSS/Generating-Clusters/ReaxFF-fromJPCA2015/Units_Real/with-SteepDescent/Only-C1/SD-CG/Try1-3A/FIRE-CG
REM
REM
REM
REM
REM
REM ./C.cell (11c1c37f851c82e70ff6c80c92926a4b)
REM
REM compiler GCC version 9.2.1 20190827 (Red Hat 9.2.1-1)
REM options -cpp -mtune=generic -march=x86-64 -g -O0 -fpre-include=/usr/include/finclude/math-vector-fortran.h
REM seed -1818784088 2129179324 1416067060 -1432530465 1898795661 629673080 84439110 922792394 947377349 1191958079 -427141628 1117958534 2069430846 -74822748 40131326 -1522598778 -1121117203 -1605333187 -1483216694 -1929889904 -591288593 -376323475 -1242891188 1386213185 -1676038955 1111784687 -1732802689 1124556067 624446475 1482341100 434855048 1198678673 1096473106
REM
CELL 1.54180   50.00000   50.00000   50.00000   90.00000   90.00000   90.00000
LATT -1
SFAC C  
C      1  0.5928090000000  0.5460480000000  0.5578450000000 1.0
C      1  0.4435460000000  0.4217560000000  0.5637040000000 1.0
C      1  0.4455420000000  0.5330380000000  0.5284120000000 1.0
C      1  0.5792910000000  0.4485130000000  0.4436110000000 1.0
C      1  0.5157170000000  0.5349700000000  0.5594440000000 1.0
C      1  0.4927980000000  0.4069360000000  0.5686030000000 1.0
C      1  0.5399030000000  0.4738790000000  0.5419030000000 1.0
C      1  0.5532420000000  0.4842330000000  0.4029800000000 1.0
C      1  0.4748290000000  0.4406590000000  0.4623280000000 1.0
C      1  0.4935450000000  0.4916560000000  0.5212250000000 1.0
C      1  0.4922800000000  0.4498820000000  0.5346530000000 1.0
C      1  0.4821070000000  0.5256350000000  0.3986860000000 1.0
C      1  0.5577040000000  0.4228500000000  0.4396360000000 1.0
C      1  0.4818750000000  0.6073360000000  0.5162550000000 1.0
C      1  0.5244560000000  0.4965340000000  0.5872430000000 1.0
C      1  0.5061750000000  0.6058610000000  0.5323120000000 1.0
C      1  0.5297550000000  0.5397930000000  0.4533510000000 1.0
C      1  0.6127970000000  0.5313380000000  0.5235020000000 1.0
C      1  0.5523260000000  0.4938160000000  0.6020510000000 1.0
C      1  0.4823340000000  0.4152090000000  0.4174990000000 1.0
C      1  0.5769900000000  0.5705110000000  0.4396820000000 1.0
C      1  0.5528340000000  0.5695730000000  0.5426360000000 1.0
C      1  0.6020560000000  0.4603540000000  0.4645330000000 1.0
C      1  0.5415660000000  0.4048600000000  0.5506860000000 1.0
C      1  0.5721290000000  0.4427440000000  0.4895140000000 1.0
C      1  0.5045110000000  0.5274910000000  0.4550220000000 1.0
C      1  0.4763740000000  0.4993400000000  0.4795620000000 1.0
C      1  0.5779920000000  0.5900520000000  0.5062610000000 1.0
C      1  0.4379150000000  0.4532130000000  0.5961260000000 1.0
C      1  0.4536380000000  0.4158380000000  0.4569980000000 1.0
C      1  0.5012080000000  0.4491400000000  0.4524590000000 1.0
C      1  0.6083910000000  0.5220040000000  0.5496300000000 1.0
C      1  0.4167300000000  0.4231060000000  0.5211560000000 1.0
C      1  0.4984590000000  0.3924580000000  0.4570540000000 1.0
C      1  0.5181910000000  0.4390600000000  0.4746050000000 1.0
C      1  0.4773800000000  0.4425910000000  0.4041350000000 1.0
C      1  0.5058390000000  0.5763610000000  0.4125750000000 1.0
C      1  0.5261410000000  0.5567940000000  0.5943270000000 1.0
C      1  0.5161080000000  0.5628990000000  0.4982790000000 1.0
C      1  0.4376990000000  0.4709480000000  0.5376200000000 1.0
C      1  0.5930130000000  0.4675110000000  0.5446420000000 1.0
C      1  0.5720150000000  0.4428510000000  0.5535710000000 1.0
C      1  0.4087850000000  0.5075690000000  0.5721520000000 1.0
C      1  0.4210880000000  0.5523580000000  0.4818900000000 1.0
C      1  0.5484760000000  0.4475860000000  0.5349780000000 1.0
C      1  0.4247400000000  0.5517790000000  0.5710330000000 1.0
C      1  0.4252590000000  0.5173950000000  0.5177530000000 1.0
C      1  0.5620600000000  0.4541340000000  0.4643640000000 1.0
C      1  0.5261650000000  0.5802120000000  0.5773570000000 1.0
C      1  0.5566210000000  0.4829080000000  0.5637960000000 1.0
C      1  0.4799800000000  0.5403180000000  0.4485240000000 1.0
C      1  0.4252860000000  0.4417520000000  0.5737950000000 1.0
C      1  0.5261600000000  0.5092080000000  0.5600150000000 1.0
C      1  0.4353170000000  0.5859300000000  0.4604410000000 1.0
C      1  0.4778380000000  0.6120500000000  0.4854060000000 1.0
C      1  0.5315290000000  0.4123140000000  0.4767960000000 1.0
C      1  0.5042270000000  0.5117220000000  0.6072420000000 1.0
C      1  0.5265100000000  0.4377500000000  0.4009930000000 1.0
C      1  0.4955900000000  0.5978110000000  0.4654390000000 1.0
C      1  0.5582100000000  0.4085740000000  0.4642250000000 1.0
C      1  0.4323210000000  0.4570960000000  0.4277710000000 1.0
C      1  0.5197200000000  0.4609900000000  0.4931500000000 1.0
C      1  0.5061850000000  0.5194920000000  0.4136620000000 1.0
C      1  0.6211100000000  0.5442250000000  0.4314720000000 1.0
C      1  0.5437770000000  0.4584310000000  0.3997990000000 1.0
C      1  0.6034200000000  0.5550770000000  0.4461480000000 1.0
C      1  0.4815340000000  0.4940340000000  0.6068300000000 1.0
C      1  0.5453860000000  0.4745690000000  0.4580030000000 1.0
C      1  0.4636650000000  0.5131990000000  0.5957560000000 1.0
C      1  0.3936780000000  0.4898240000000  0.4371590000000 1.0
C      1  0.4160070000000  0.5684060000000  0.5330410000000 1.0
C      1  0.4511510000000  0.4898910000000  0.5530710000000 1.0
C      1  0.4378750000000  0.4642200000000  0.4557230000000 1.0
C      1  0.5184330000000  0.3845400000000  0.4774870000000 1.0
C      1  0.5263950000000  0.5559620000000  0.5436560000000 1.0
C      1  0.4876200000000  0.4005850000000  0.5407520000000 1.0
C      1  0.5316000000000  0.4231490000000  0.5303490000000 1.0
C      1  0.4403050000000  0.5345960000000  0.4700190000000 1.0
C      1  0.5854900000000  0.5601850000000  0.5055950000000 1.0
C      1  0.5741680000000  0.4108150000000  0.5159270000000 1.0
C      1  0.3894470000000  0.4941100000000  0.5271480000000 1.0
C      1  0.3928930000000  0.4646980000000  0.4833040000000 1.0
C      1  0.4131810000000  0.4784950000000  0.4199720000000 1.0
C      1  0.6132150000000  0.5357170000000  0.4704630000000 1.0
C      1  0.4942440000000  0.4945870000000  0.4250430000000 1.0
C      1  0.4336280000000  0.4980870000000  0.4985370000000 1.0
C      1  0.4664330000000  0.5660670000000  0.4869030000000 1.0
C      1  0.5324160000000  0.4320920000000  0.5889940000000 1.0
C      1  0.5640700000000  0.4699280000000  0.5896870000000 1.0
C      1  0.4686020000000  0.5337950000000  0.5110640000000 1.0
C      1  0.4680840000000  0.5439830000000  0.4198410000000 1.0
C      1  0.5330470000000  0.6108410000000  0.5188110000000 1.0
C      1  0.5745480000000  0.5575570000000  0.5791870000000 1.0
C      1  0.5538300000000  0.5025690000000  0.4921960000000 1.0
C      1  0.5624820000000  0.5756270000000  0.4653100000000 1.0
C      1  0.4822340000000  0.5102040000000  0.5040230000000 1.0
C      1  0.5975580000000  0.4573020000000  0.4929600000000 1.0
C      1  0.5551350000000  0.5789090000000  0.5719040000000 1.0
C      1  0.5700770000000  0.4119360000000  0.5438930000000 1.0
C      1  0.4667120000000  0.3955570000000  0.4982190000000 1.0
C      1  0.4430960000000  0.4562960000000  0.4849130000000 1.0
C      1  0.6116670000000  0.5447970000000  0.4987720000000 1.0
C      1  0.4259650000000  0.5002940000000  0.4071850000000 1.0
C      1  0.4771240000000  0.5843830000000  0.5589560000000 1.0
C      1  0.5405570000000  0.5199300000000  0.5129270000000 1.0
C      1  0.4646280000000  0.5611690000000  0.5733670000000 1.0
C      1  0.5023210000000  0.4231150000000  0.5289320000000 1.0
C      1  0.4636950000000  0.5951500000000  0.5343850000000 1.0
C      1  0.4368880000000  0.4731080000000  0.5086710000000 1.0
C      1  0.5530180000000  0.5230800000000  0.4420880000000 1.0
C      1  0.4034240000000  0.4473210000000  0.5283530000000 1.0
C      1  0.4395800000000  0.5000070000000  0.5776210000000 1.0
C      1  0.5978170000000  0.4933510000000  0.5562820000000 1.0
C      1  0.4941190000000  0.4642150000000  0.5075450000000 1.0
C      1  0.5766670000000  0.4133210000000  0.4882370000000 1.0
C      1  0.5820280000000  0.4756440000000  0.4317290000000 1.0
C      1  0.5047780000000  0.5921230000000  0.5588320000000 1.0
C      1  0.4359930000000  0.5488220000000  0.4219700000000 1.0
C      1  0.5224900000000  0.4102970000000  0.5725830000000 1.0
C      1  0.5130150000000  0.4521830000000  0.6006500000000 1.0
C      1  0.5554860000000  0.5668130000000  0.4212100000000 1.0
C      1  0.4793040000000  0.4994660000000  0.3872700000000 1.0
C      1  0.4530660000000  0.4876190000000  0.3991100000000 1.0
C      1  0.5531330000000  0.5381060000000  0.4158440000000 1.0
C      1  0.4656880000000  0.4946240000000  0.4258720000000 1.0
C      1  0.5069030000000  0.5591060000000  0.5249660000000 1.0
C      1  0.4507260000000  0.4883350000000  0.4493940000000 1.0
C      1  0.4894380000000  0.5248930000000  0.5531830000000 1.0
C      1  0.4709050000000  0.4518090000000  0.4876750000000 1.0
C      1  0.4658620000000  0.5428660000000  0.4729840000000 1.0
C      1  0.4565390000000  0.4061290000000  0.4276900000000 1.0
C      1  0.5942070000000  0.4761100000000  0.5166690000000 1.0
C      1  0.4096760000000  0.4160710000000  0.4931370000000 1.0
C      1  0.3987590000000  0.5347510000000  0.4890890000000 1.0
C      1  0.4547670000000  0.6021120000000  0.4723160000000 1.0
C      1  0.5043600000000  0.4771270000000  0.4452170000000 1.0
C      1  0.5145680000000  0.4692680000000  0.5771650000000 1.0
C      1  0.4748220000000  0.5402600000000  0.5924960000000 1.0
C      1  0.5030370000000  0.4976920000000  0.4666200000000 1.0
C      1  0.4015190000000  0.5361310000000  0.5679390000000 1.0
C      1  0.5320440000000  0.5244040000000  0.4003390000000 1.0
C      1  0.4709300000000  0.3948290000000  0.4717870000000 1.0
C      1  0.5068620000000  0.4075750000000  0.4326890000000 1.0
C      1  0.5207810000000  0.5923870000000  0.4512620000000 1.0
C      1  0.4691990000000  0.4213760000000  0.5786870000000 1.0
C      1  0.4139960000000  0.4598730000000  0.5519910000000 1.0
C      1  0.5714320000000  0.5075800000000  0.5616670000000 1.0
C      1  0.3920290000000  0.4688360000000  0.5122420000000 1.0
C      1  0.4317240000000  0.4787440000000  0.5897840000000 1.0
C      1  0.4663190000000  0.4432480000000  0.5979920000000 1.0
C      1  0.4530090000000  0.4570690000000  0.4073740000000 1.0
C      1  0.3892330000000  0.4871420000000  0.4654200000000 1.0
C      1  0.3980370000000  0.5477960000000  0.5400170000000 1.0
C      1  0.4394440000000  0.5711600000000  0.4980440000000 1.0
C      1  0.4337550000000  0.5680130000000  0.4409930000000 1.0
C      1  0.5556010000000  0.4904180000000  0.4345700000000 1.0
C      1  0.4943160000000  0.4679000000000  0.5566210000000 1.0
C      1  0.5643100000000  0.5175950000000  0.5915450000000 1.0
C      1  0.6011260000000  0.4862380000000  0.4517110000000 1.0
C      1  0.5300320000000  0.4838680000000  0.4800230000000 1.0
C      1  0.4862280000000  0.5648500000000  0.4087310000000 1.0
C      1  0.5688790000000  0.5219640000000  0.4702900000000 1.0
C      1  0.5335410000000  0.5681280000000  0.4608840000000 1.0
C      1  0.4462750000000  0.5477700000000  0.5545170000000 1.0
C      1  0.4387600000000  0.4120850000000  0.5369200000000 1.0
C      1  0.3970320000000  0.5180030000000  0.4384150000000 1.0
C      1  0.5421190000000  0.6192990000000  0.4911480000000 1.0
C      1  0.4364130000000  0.5854410000000  0.5239540000000 1.0
C      1  0.4006860000000  0.4375040000000  0.4738850000000 1.0
C      1  0.5300450000000  0.5854820000000  0.4238930000000 1.0
C      1  0.5026310000000  0.5404430000000  0.6023980000000 1.0
C      1  0.5305660000000  0.4971110000000  0.3887880000000 1.0
C      1  0.5018740000000  0.4546030000000  0.3938700000000 1.0
C      1  0.4861170000000  0.4620920000000  0.6067910000000 1.0
C      1  0.5240060000000  0.4975730000000  0.5325760000000 1.0
C      1  0.5567210000000  0.5952470000000  0.5249320000000 1.0
C      1  0.5036200000000  0.4831410000000  0.3868940000000 1.0
C      1  0.4618860000000  0.3967490000000  0.5258200000000 1.0
C      1  0.4938220000000  0.5739930000000  0.4826990000000 1.0
C      1  0.5585840000000  0.4428780000000  0.5814780000000 1.0
C      1  0.4841580000000  0.5438960000000  0.5323060000000 1.0
C      1  0.3976030000000  0.4890540000000  0.5536230000000 1.0
C      1  0.5656060000000  0.6024300000000  0.4836030000000 1.0
C      1  0.5752720000000  0.4979580000000  0.5122180000000 1.0
C      1  0.5376910000000  0.5446110000000  0.4969610000000 1.0
C      1  0.4480260000000  0.5058850000000  0.4736660000000 1.0
C      1  0.4228190000000  0.4194780000000  0.4681280000000 1.0
C      1  0.5639980000000  0.5497350000000  0.4847530000000 1.0
C      1  0.3961390000000  0.5243010000000  0.5179720000000 1.0
C      1  0.5967990000000  0.5121150000000  0.4660330000000 1.0
C      1  0.3919420000000  0.5169720000000  0.4677340000000 1.0
C      1  0.5325030000000  0.4202890000000  0.4253880000000 1.0
C      1  0.4191340000000  0.5250340000000  0.4202410000000 1.0
C      1  0.5762440000000  0.5490780000000  0.5333680000000 1.0
C      1  0.4801270000000  0.4947190000000  0.5485030000000 1.0
C      1  0.5659410000000  0.5193120000000  0.5304520000000 1.0
C      1  0.5546550000000  0.5444810000000  0.5962290000000 1.0
END
