TITL C-4164245-3996-750 16.7610053606883 125000 -19404.3249747847 0 0 132 (C1) n - 1
REM
REM in /home/nfs/bkarasulu/CARBON/AIRSS/Generating-Clusters/ReaxFF-fromJPCA2015/Units_Real/with-SteepDescent/Only-C1/SD-CG/Try1-3A/FIRE-CG
REM
REM
REM
REM
REM
REM ./C.cell (11c1c37f851c82e70ff6c80c92926a4b)
REM
REM compiler GCC version 9.2.1 20190827 (Red Hat 9.2.1-1)
REM options -cpp -mtune=generic -march=x86-64 -g -O0 -fpre-include=/usr/include/finclude/math-vector-fortran.h
REM seed -264759206 -21709703 2129992653 -1960674427 -61497556 1442789609 101088110 -1939681417 -1936721779 788052974 -618856257 298874312 1512034428 -958781731 -1727926204 -271662409 430167671 -1310934297 1624516072 -2018172916 605158387 1333797271 62270098 886946948 1150866575 -1952400380 650356429 -899364891 -2006076481 411226819 -1345138544 1501695855 -458926779
REM
CELL 1.54180   50.00000   50.00000   50.00000   90.00000   90.00000   90.00000
LATT -1
SFAC C  
C      1  0.5173430000000  0.4541750000000  0.5065540000000 1.0
C      1  0.4739860000000  0.4602410000000  0.4984930000000 1.0
C      1  0.5619260000000  0.5539560000000  0.5736840000000 1.0
C      1  0.5491050000000  0.5102750000000  0.4862170000000 1.0
C      1  0.5319540000000  0.5066160000000  0.5485750000000 1.0
C      1  0.5290610000000  0.4455980000000  0.4148470000000 1.0
C      1  0.4337660000000  0.5711730000000  0.5036150000000 1.0
C      1  0.5332160000000  0.4162210000000  0.5087180000000 1.0
C      1  0.5152170000000  0.4804490000000  0.4716320000000 1.0
C      1  0.4471260000000  0.4820510000000  0.4660970000000 1.0
C      1  0.4469840000000  0.5497610000000  0.4916710000000 1.0
C      1  0.5972450000000  0.5200730000000  0.4508700000000 1.0
C      1  0.4485340000000  0.4674250000000  0.5587880000000 1.0
C      1  0.4750310000000  0.5341590000000  0.4168150000000 1.0
C      1  0.4477440000000  0.4586440000000  0.5039840000000 1.0
C      1  0.4768150000000  0.5855750000000  0.5497180000000 1.0
C      1  0.4995390000000  0.5240140000000  0.4905030000000 1.0
C      1  0.5842640000000  0.4624950000000  0.5463340000000 1.0
C      1  0.5615810000000  0.4435220000000  0.5452800000000 1.0
C      1  0.5497820000000  0.5730030000000  0.4559050000000 1.0
C      1  0.5003240000000  0.5930470000000  0.4679480000000 1.0
C      1  0.4531580000000  0.5659020000000  0.5475290000000 1.0
C      1  0.4779980000000  0.5062600000000  0.4966480000000 1.0
C      1  0.5977300000000  0.4940500000000  0.4917270000000 1.0
C      1  0.5697130000000  0.5511240000000  0.4543020000000 1.0
C      1  0.5728410000000  0.5650730000000  0.5141510000000 1.0
C      1  0.5312290000000  0.4739870000000  0.5187450000000 1.0
C      1  0.5602470000000  0.5644490000000  0.5419560000000 1.0
C      1  0.5462400000000  0.4783080000000  0.5844740000000 1.0
C      1  0.4227390000000  0.5168150000000  0.5479350000000 1.0
C      1  0.5837510000000  0.5159140000000  0.5346930000000 1.0
C      1  0.4766840000000  0.5596860000000  0.4610110000000 1.0
C      1  0.5020650000000  0.5649670000000  0.4759360000000 1.0
C      1  0.5821130000000  0.4920080000000  0.5508350000000 1.0
C      1  0.4764270000000  0.4936350000000  0.5797460000000 1.0
C      1  0.5055440000000  0.4900410000000  0.4133490000000 1.0
C      1  0.4277620000000  0.4288200000000  0.5330850000000 1.0
C      1  0.5328020000000  0.5274630000000  0.5307880000000 1.0
C      1  0.5956310000000  0.4942740000000  0.4625200000000 1.0
C      1  0.4373400000000  0.4980050000000  0.4260840000000 1.0
C      1  0.4070300000000  0.4736300000000  0.4672370000000 1.0
C      1  0.5929500000000  0.5434800000000  0.4426930000000 1.0
C      1  0.4508070000000  0.4406160000000  0.5488510000000 1.0
C      1  0.4354750000000  0.5400110000000  0.4545240000000 1.0
C      1  0.5634450000000  0.5373120000000  0.4835390000000 1.0
C      1  0.5457430000000  0.5844320000000  0.4826070000000 1.0
C      1  0.5307310000000  0.4989210000000  0.5989380000000 1.0
C      1  0.4028980000000  0.4461150000000  0.4729860000000 1.0
C      1  0.4749280000000  0.5086780000000  0.4495210000000 1.0
C      1  0.3962620000000  0.5080640000000  0.5063310000000 1.0
C      1  0.5983590000000  0.5179160000000  0.5094560000000 1.0
C      1  0.4487240000000  0.5616950000000  0.4683760000000 1.0
C      1  0.4439140000000  0.4180660000000  0.4812420000000 1.0
C      1  0.5563460000000  0.4325030000000  0.5181770000000 1.0
C      1  0.4895840000000  0.4455150000000  0.5153530000000 1.0
C      1  0.4902460000000  0.4884620000000  0.5353780000000 1.0
C      1  0.4777070000000  0.5249710000000  0.5467470000000 1.0
C      1  0.5240480000000  0.4163120000000  0.4800930000000 1.0
C      1  0.4723300000000  0.4662350000000  0.5746110000000 1.0
C      1  0.5405150000000  0.5275280000000  0.5983800000000 1.0
C      1  0.4890760000000  0.5284570000000  0.4639120000000 1.0
C      1  0.5532530000000  0.4894730000000  0.5061730000000 1.0
C      1  0.4485030000000  0.5017800000000  0.4888930000000 1.0
C      1  0.5788580000000  0.4753280000000  0.5037410000000 1.0
C      1  0.5732990000000  0.4505780000000  0.4442430000000 1.0
C      1  0.5740590000000  0.4775800000000  0.4490790000000 1.0
C      1  0.4911510000000  0.5716800000000  0.5710390000000 1.0
C      1  0.4260550000000  0.4303090000000  0.4618810000000 1.0
C      1  0.5438660000000  0.4525800000000  0.5691990000000 1.0
C      1  0.4031240000000  0.4816890000000  0.4976420000000 1.0
C      1  0.5337980000000  0.5014040000000  0.4632400000000 1.0
C      1  0.4501550000000  0.5219970000000  0.4356460000000 1.0
C      1  0.4121180000000  0.5378190000000  0.5295670000000 1.0
C      1  0.4303100000000  0.5281400000000  0.4812300000000 1.0
C      1  0.4680210000000  0.5017220000000  0.5360870000000 1.0
C      1  0.4053350000000  0.5325100000000  0.5012160000000 1.0
C      1  0.5333010000000  0.5798470000000  0.5412190000000 1.0
C      1  0.5473380000000  0.5595740000000  0.4993920000000 1.0
C      1  0.4358570000000  0.4453870000000  0.4398700000000 1.0
C      1  0.5185280000000  0.4491110000000  0.5730310000000 1.0
C      1  0.5267320000000  0.4572950000000  0.4802550000000 1.0
C      1  0.4394900000000  0.4914930000000  0.5394110000000 1.0
C      1  0.5494840000000  0.4381530000000  0.4333010000000 1.0
C      1  0.5873900000000  0.5435230000000  0.5013300000000 1.0
C      1  0.5189110000000  0.5516990000000  0.4262270000000 1.0
C      1  0.4345240000000  0.4820890000000  0.5107760000000 1.0
C      1  0.5365630000000  0.5567260000000  0.5859920000000 1.0
C      1  0.4262460000000  0.5647670000000  0.5294160000000 1.0
C      1  0.5168150000000  0.4857250000000  0.5396060000000 1.0
C      1  0.5035140000000  0.4613900000000  0.4227890000000 1.0
C      1  0.5115190000000  0.4071570000000  0.5279270000000 1.0
C      1  0.4965390000000  0.3967540000000  0.5068640000000 1.0
C      1  0.4035690000000  0.4379190000000  0.5225940000000 1.0
C      1  0.4898320000000  0.3940480000000  0.4793570000000 1.0
C      1  0.5344870000000  0.4996450000000  0.4159840000000 1.0
C      1  0.4761450000000  0.5496610000000  0.5839990000000 1.0
C      1  0.4722140000000  0.4148090000000  0.4794470000000 1.0
C      1  0.4898080000000  0.5589220000000  0.4230680000000 1.0
C      1  0.4760510000000  0.4320430000000  0.5373670000000 1.0
C      1  0.4746100000000  0.4796110000000  0.4567330000000 1.0
C      1  0.5740650000000  0.4465830000000  0.4992450000000 1.0
C      1  0.4297330000000  0.5301340000000  0.5733810000000 1.0
C      1  0.5194480000000  0.5942890000000  0.5194990000000 1.0
C      1  0.5648410000000  0.5266370000000  0.5827190000000 1.0
C      1  0.4925840000000  0.5588860000000  0.5142370000000 1.0
C      1  0.5418360000000  0.4354460000000  0.4655680000000 1.0
C      1  0.4959470000000  0.4209190000000  0.5526410000000 1.0
C      1  0.5272960000000  0.5257520000000  0.4198690000000 1.0
C      1  0.3925590000000  0.4504940000000  0.5001510000000 1.0
C      1  0.4962250000000  0.4421950000000  0.5711460000000 1.0
C      1  0.4489490000000  0.5530110000000  0.5754560000000 1.0
C      1  0.4278170000000  0.4769390000000  0.4450730000000 1.0
C      1  0.4918080000000  0.5866540000000  0.5246170000000 1.0
C      1  0.4869090000000  0.4497110000000  0.4442660000000 1.0
C      1  0.4867820000000  0.5812820000000  0.4425450000000 1.0
C      1  0.4888020000000  0.4819110000000  0.4847240000000 1.0
C      1  0.5509920000000  0.4941560000000  0.4404650000000 1.0
C      1  0.5175340000000  0.5414650000000  0.5090360000000 1.0
C      1  0.5238030000000  0.5607760000000  0.4543480000000 1.0
C      1  0.4820240000000  0.5214100000000  0.5757360000000 1.0
C      1  0.5718780000000  0.4419930000000  0.4707130000000 1.0
C      1  0.5565930000000  0.5010350000000  0.5653040000000 1.0
C      1  0.4626150000000  0.4395980000000  0.4292400000000 1.0
C      1  0.5201140000000  0.5712210000000  0.5657320000000 1.0
C      1  0.4978900000000  0.4216420000000  0.4665670000000 1.0
C      1  0.4827210000000  0.5075590000000  0.4075540000000 1.0
C      1  0.4574260000000  0.4895960000000  0.4075520000000 1.0
C      1  0.5599190000000  0.5338930000000  0.5373770000000 1.0
C      1  0.4396340000000  0.4326350000000  0.5057160000000 1.0
C      1  0.5214680000000  0.5979850000000  0.4893130000000 1.0
C      1  0.4727870000000  0.5482720000000  0.5328750000000 1.0
C      1  0.4619500000000  0.4618130000000  0.4117820000000 1.0
END
