TITL C-4164240-4114-142 28.1886893161344 125000 -18458.2047742218 0 0 122 (C1) n - 1
REM
REM in /home/nfs/bkarasulu/CARBON/AIRSS/Generating-Clusters/ReaxFF-fromJPCA2015/Units_Real/with-SteepDescent/Only-C1/SD-CG/Try1-3A/FIRE-CG
REM
REM
REM
REM
REM
REM ./C.cell (11c1c37f851c82e70ff6c80c92926a4b)
REM
REM compiler GCC version 9.2.1 20190827 (Red Hat 9.2.1-1)
REM options -cpp -mtune=generic -march=x86-64 -g -O0 -fpre-include=/usr/include/finclude/math-vector-fortran.h
REM seed 454812050 -1611404521 -844751516 -1182383558 273722945 1527575027 746403064 -1830129 -601392337 -202255019 1577439921 -2109801817 2008457899 -1861418723 2093390182 1713620504 -718338815 1971818291 -202695211 1952644835 -444150356 503663489 107771981 -541414098 -543249738 1906790551 1371883480 914023515 1186108050 -602602659 56971609 -739731793 -1812291565
REM
CELL 1.54180   50.00000   50.00000   50.00000   90.00000   90.00000   90.00000
LATT -1
SFAC C  
C      1  0.5557430000000  0.4202480000000  0.4983130000000 1.0
C      1  0.5229120000000  0.4465230000000  0.5659890000000 1.0
C      1  0.5203080000000  0.4917990000000  0.4475960000000 1.0
C      1  0.4555400000000  0.5248220000000  0.4183730000000 1.0
C      1  0.5188080000000  0.4829070000000  0.4051780000000 1.0
C      1  0.5186190000000  0.4953530000000  0.5340670000000 1.0
C      1  0.4427520000000  0.4932530000000  0.5819320000000 1.0
C      1  0.5842280000000  0.4501650000000  0.4901490000000 1.0
C      1  0.4743420000000  0.5040210000000  0.4132010000000 1.0
C      1  0.4742990000000  0.5765660000000  0.4636760000000 1.0
C      1  0.4572890000000  0.4550540000000  0.5518520000000 1.0
C      1  0.4018000000000  0.5224300000000  0.4879980000000 1.0
C      1  0.4980760000000  0.4125900000000  0.5456880000000 1.0
C      1  0.4704670000000  0.5500550000000  0.4239140000000 1.0
C      1  0.4452340000000  0.5290670000000  0.5393790000000 1.0
C      1  0.5310390000000  0.5892990000000  0.4908370000000 1.0
C      1  0.4962980000000  0.5568180000000  0.5765600000000 1.0
C      1  0.4235500000000  0.4318450000000  0.5116200000000 1.0
C      1  0.5009710000000  0.5710320000000  0.4515880000000 1.0
C      1  0.5354200000000  0.5839980000000  0.5540750000000 1.0
C      1  0.4857000000000  0.4939820000000  0.5264240000000 1.0
C      1  0.4733690000000  0.4243660000000  0.5066460000000 1.0
C      1  0.4752280000000  0.5976230000000  0.5171760000000 1.0
C      1  0.5798690000000  0.5002840000000  0.5557200000000 1.0
C      1  0.5025630000000  0.4670510000000  0.4898900000000 1.0
C      1  0.5403880000000  0.4335370000000  0.5472390000000 1.0
C      1  0.5012520000000  0.4708840000000  0.4442370000000 1.0
C      1  0.4104600000000  0.4955530000000  0.4750980000000 1.0
C      1  0.5547130000000  0.5883410000000  0.5333970000000 1.0
C      1  0.5703460000000  0.4953530000000  0.5075090000000 1.0
C      1  0.4682210000000  0.5498140000000  0.5767210000000 1.0
C      1  0.5683710000000  0.4302010000000  0.4736040000000 1.0
C      1  0.5847650000000  0.5371340000000  0.5265260000000 1.0
C      1  0.4260570000000  0.4922340000000  0.4506180000000 1.0
C      1  0.4366060000000  0.4640080000000  0.4448100000000 1.0
C      1  0.5625990000000  0.5446520000000  0.5446280000000 1.0
C      1  0.4393830000000  0.5380530000000  0.4807390000000 1.0
C      1  0.4790580000000  0.5532620000000  0.5267920000000 1.0
C      1  0.5566160000000  0.5145550000000  0.4644200000000 1.0
C      1  0.5413080000000  0.4987270000000  0.4090930000000 1.0
C      1  0.4805240000000  0.4529100000000  0.5054930000000 1.0
C      1  0.4146160000000  0.4840030000000  0.5232730000000 1.0
C      1  0.5870540000000  0.5085580000000  0.5290940000000 1.0
C      1  0.5388570000000  0.4867650000000  0.5149370000000 1.0
C      1  0.5907520000000  0.5159760000000  0.4436800000000 1.0
C      1  0.4717800000000  0.4115930000000  0.5330950000000 1.0
C      1  0.5075060000000  0.5806910000000  0.5599230000000 1.0
C      1  0.4351450000000  0.5432360000000  0.4519260000000 1.0
C      1  0.4389330000000  0.4425240000000  0.4642780000000 1.0
C      1  0.4786460000000  0.4227790000000  0.4389910000000 1.0
C      1  0.5642310000000  0.5318460000000  0.4414820000000 1.0
C      1  0.4992060000000  0.5524500000000  0.4285220000000 1.0
C      1  0.5644960000000  0.5243930000000  0.5662920000000 1.0
C      1  0.5018220000000  0.5074380000000  0.4042890000000 1.0
C      1  0.5101930000000  0.4548280000000  0.4200480000000 1.0
C      1  0.5440450000000  0.4879150000000  0.5751280000000 1.0
C      1  0.5504510000000  0.4432330000000  0.4535000000000 1.0
C      1  0.4799450000000  0.4437450000000  0.4201340000000 1.0
C      1  0.5000970000000  0.5910150000000  0.5336890000000 1.0
C      1  0.5358790000000  0.5487530000000  0.5333100000000 1.0
C      1  0.5468640000000  0.4892470000000  0.4552800000000 1.0
C      1  0.4987200000000  0.4312500000000  0.5687950000000 1.0
C      1  0.5178950000000  0.4766240000000  0.5644680000000 1.0
C      1  0.5279470000000  0.4371230000000  0.4366530000000 1.0
C      1  0.5447490000000  0.5248980000000  0.4185940000000 1.0
C      1  0.4413460000000  0.5745070000000  0.5052870000000 1.0
C      1  0.5409060000000  0.5167560000000  0.5804450000000 1.0
C      1  0.5066290000000  0.4259320000000  0.4551610000000 1.0
C      1  0.4474740000000  0.5969620000000  0.5271310000000 1.0
C      1  0.4174410000000  0.4903540000000  0.5502610000000 1.0
C      1  0.4969100000000  0.4531270000000  0.4672030000000 1.0
C      1  0.5152770000000  0.5323690000000  0.5869890000000 1.0
C      1  0.4355400000000  0.4730040000000  0.5651740000000 1.0
C      1  0.4422310000000  0.5377180000000  0.5670290000000 1.0
C      1  0.5712170000000  0.4400060000000  0.5146890000000 1.0
C      1  0.5317980000000  0.4698600000000  0.4955700000000 1.0
C      1  0.4721120000000  0.4859170000000  0.4375000000000 1.0
C      1  0.5686740000000  0.5178350000000  0.4894820000000 1.0
C      1  0.5570140000000  0.5870260000000  0.5025560000000 1.0
C      1  0.5800490000000  0.5424020000000  0.4980770000000 1.0
C      1  0.5228220000000  0.5338510000000  0.4749270000000 1.0
C      1  0.4603530000000  0.4216800000000  0.4608760000000 1.0
C      1  0.4231360000000  0.4476690000000  0.4882910000000 1.0
C      1  0.4250030000000  0.4196340000000  0.5312930000000 1.0
C      1  0.5628160000000  0.4508480000000  0.5409000000000 1.0
C      1  0.5649280000000  0.5643020000000  0.4860020000000 1.0
C      1  0.4909980000000  0.5332600000000  0.5425370000000 1.0
C      1  0.4486950000000  0.4249470000000  0.5453890000000 1.0
C      1  0.5648850000000  0.4754500000000  0.5580890000000 1.0
C      1  0.5868500000000  0.4787440000000  0.4863090000000 1.0
C      1  0.5201940000000  0.5752520000000  0.5167410000000 1.0
C      1  0.4908750000000  0.4964190000000  0.4792660000000 1.0
C      1  0.4789580000000  0.4520800000000  0.5734570000000 1.0
C      1  0.5105450000000  0.5111790000000  0.4635140000000 1.0
C      1  0.4130420000000  0.4755230000000  0.4963700000000 1.0
C      1  0.4564580000000  0.5148900000000  0.4842390000000 1.0
C      1  0.4340630000000  0.5181920000000  0.4374210000000 1.0
C      1  0.4270410000000  0.5130350000000  0.5722700000000 1.0
C      1  0.5188110000000  0.5258770000000  0.5385840000000 1.0
C      1  0.5228310000000  0.4154650000000  0.5308680000000 1.0
C      1  0.5272940000000  0.4118780000000  0.5020860000000 1.0
C      1  0.4513900000000  0.5493620000000  0.5191590000000 1.0
C      1  0.5449940000000  0.5537070000000  0.4657050000000 1.0
C      1  0.4917040000000  0.4766100000000  0.5801190000000 1.0
C      1  0.4646840000000  0.5847660000000  0.4901390000000 1.0
C      1  0.5950840000000  0.4936280000000  0.4624720000000 1.0
C      1  0.4920230000000  0.5181940000000  0.5906430000000 1.0
C      1  0.4557460000000  0.5631210000000  0.4449940000000 1.0
C      1  0.4784990000000  0.4097860000000  0.4819900000000 1.0
C      1  0.4169830000000  0.5445440000000  0.4982490000000 1.0
C      1  0.4980020000000  0.5603350000000  0.5070610000000 1.0
C      1  0.4821740000000  0.5138800000000  0.4992520000000 1.0
C      1  0.4706310000000  0.5123320000000  0.5459330000000 1.0
C      1  0.5075280000000  0.4085570000000  0.4807300000000 1.0
C      1  0.4644580000000  0.4949630000000  0.4660910000000 1.0
C      1  0.5490420000000  0.4663650000000  0.4720730000000 1.0
C      1  0.5161820000000  0.5313840000000  0.4164480000000 1.0
C      1  0.4720270000000  0.4997040000000  0.5786830000000 1.0
C      1  0.5018070000000  0.5370220000000  0.4932220000000 1.0
C      1  0.4578040000000  0.4616530000000  0.4251990000000 1.0
C      1  0.4725590000000  0.4679340000000  0.5271270000000 1.0
C      1  0.5265430000000  0.5769520000000  0.4645790000000 1.0
END
