TITL C-4164243-3780-767 15.4228205032577 125000 -21053.059455828 0 0 141 (C1) n - 1
REM
REM in /home/nfs/bkarasulu/CARBON/AIRSS/Generating-Clusters/ReaxFF-fromJPCA2015/Units_Real/with-SteepDescent/Only-C1/SD-CG/Try1-3A/FIRE-CG
REM
REM
REM
REM
REM
REM ./C.cell (11c1c37f851c82e70ff6c80c92926a4b)
REM
REM compiler GCC version 9.2.1 20190827 (Red Hat 9.2.1-1)
REM options -cpp -mtune=generic -march=x86-64 -g -O0 -fpre-include=/usr/include/finclude/math-vector-fortran.h
REM seed 1761238299 1715459381 1809606922 -69164266 -109518362 482653056 869121975 -1348524490 -861306795 -1794184128 -1050842928 111072522 -203970259 119119293 999975465 1267694302 -1240703373 -2033941254 -136773281 1447690548 -1708049047 1488761048 1500119370 -1262485310 -927808312 -1102890730 651448370 710112733 -141558495 -1022073283 -994088473 -1075435253 -1360500374
REM
CELL 1.54180   50.00000   50.00000   50.00000   90.00000   90.00000   90.00000
LATT -1
SFAC C  
C      1  0.5846150000000  0.4746520000000  0.4838620000000 1.0
C      1  0.5375200000000  0.5077330000000  0.5722700000000 1.0
C      1  0.5335800000000  0.6012480000000  0.5183580000000 1.0
C      1  0.4696790000000  0.4654190000000  0.5004780000000 1.0
C      1  0.4391700000000  0.5210120000000  0.4565840000000 1.0
C      1  0.5265710000000  0.4801350000000  0.5740700000000 1.0
C      1  0.4579770000000  0.4851480000000  0.4833090000000 1.0
C      1  0.4391690000000  0.4079070000000  0.4907000000000 1.0
C      1  0.4042320000000  0.5273560000000  0.5205010000000 1.0
C      1  0.4675640000000  0.5466520000000  0.4144020000000 1.0
C      1  0.5273850000000  0.4169120000000  0.4675850000000 1.0
C      1  0.5322940000000  0.4242490000000  0.5445740000000 1.0
C      1  0.5593820000000  0.5280310000000  0.5090080000000 1.0
C      1  0.5206930000000  0.4809050000000  0.4030780000000 1.0
C      1  0.5306240000000  0.5618890000000  0.4726410000000 1.0
C      1  0.4770490000000  0.5837760000000  0.4881780000000 1.0
C      1  0.4878810000000  0.5010680000000  0.5986790000000 1.0
C      1  0.5892750000000  0.4528130000000  0.4644550000000 1.0
C      1  0.5454810000000  0.4805250000000  0.5193210000000 1.0
C      1  0.5593800000000  0.5130970000000  0.4285850000000 1.0
C      1  0.5397740000000  0.5974430000000  0.4894580000000 1.0
C      1  0.4113610000000  0.4789480000000  0.4753390000000 1.0
C      1  0.5783980000000  0.5212000000000  0.5647740000000 1.0
C      1  0.4801840000000  0.5186520000000  0.4236810000000 1.0
C      1  0.4424350000000  0.5038390000000  0.4995190000000 1.0
C      1  0.5344330000000  0.5228730000000  0.5223690000000 1.0
C      1  0.5102470000000  0.4929890000000  0.4854260000000 1.0
C      1  0.5262280000000  0.5657250000000  0.5667050000000 1.0
C      1  0.4504810000000  0.5504650000000  0.5654740000000 1.0
C      1  0.4394830000000  0.4384440000000  0.5553250000000 1.0
C      1  0.5124030000000  0.4464680000000  0.5039680000000 1.0
C      1  0.5540180000000  0.5643130000000  0.5484050000000 1.0
C      1  0.4176600000000  0.5532280000000  0.5202310000000 1.0
C      1  0.4913730000000  0.4552780000000  0.4565250000000 1.0
C      1  0.4266240000000  0.4794390000000  0.5687660000000 1.0
C      1  0.4897310000000  0.4128480000000  0.4276660000000 1.0
C      1  0.4583110000000  0.5301030000000  0.4996320000000 1.0
C      1  0.4950080000000  0.4236050000000  0.5082200000000 1.0
C      1  0.5369530000000  0.4911130000000  0.4945740000000 1.0
C      1  0.5738030000000  0.4783300000000  0.5261690000000 1.0
C      1  0.5187440000000  0.4486280000000  0.4744120000000 1.0
C      1  0.5041540000000  0.4023790000000  0.4509020000000 1.0
C      1  0.4532950000000  0.4744690000000  0.5787470000000 1.0
C      1  0.4919440000000  0.5852570000000  0.4626170000000 1.0
C      1  0.4264950000000  0.5060200000000  0.5567600000000 1.0
C      1  0.5809090000000  0.4979110000000  0.4418040000000 1.0
C      1  0.4628930000000  0.5443360000000  0.5251160000000 1.0
C      1  0.5924170000000  0.4998310000000  0.5168770000000 1.0
C      1  0.4693410000000  0.4363560000000  0.4627400000000 1.0
C      1  0.5115880000000  0.5210510000000  0.4257990000000 1.0
C      1  0.4120050000000  0.4718970000000  0.5244880000000 1.0
C      1  0.5330270000000  0.5037320000000  0.4167800000000 1.0
C      1  0.5753150000000  0.5631770000000  0.4758310000000 1.0
C      1  0.5646070000000  0.5078580000000  0.5802910000000 1.0
C      1  0.5611870000000  0.5195990000000  0.4817110000000 1.0
C      1  0.4936210000000  0.5359850000000  0.4637990000000 1.0
C      1  0.4185220000000  0.4585640000000  0.5494540000000 1.0
C      1  0.4953070000000  0.5808820000000  0.5674970000000 1.0
C      1  0.4215910000000  0.4953230000000  0.4255410000000 1.0
C      1  0.4190370000000  0.5523900000000  0.4906100000000 1.0
C      1  0.4410810000000  0.4388540000000  0.4576220000000 1.0
C      1  0.4123350000000  0.4765740000000  0.4466290000000 1.0
C      1  0.4703120000000  0.4999860000000  0.5741720000000 1.0
C      1  0.4898570000000  0.5544250000000  0.5303450000000 1.0
C      1  0.4479820000000  0.4790320000000  0.4235170000000 1.0
C      1  0.4975140000000  0.4555630000000  0.5906590000000 1.0
C      1  0.4315790000000  0.4568590000000  0.4370110000000 1.0
C      1  0.6023320000000  0.4968500000000  0.4890840000000 1.0
C      1  0.5202470000000  0.5869150000000  0.4697060000000 1.0
C      1  0.5847880000000  0.5348190000000  0.4763930000000 1.0
C      1  0.5264810000000  0.5226310000000  0.5500630000000 1.0
C      1  0.5027130000000  0.4515030000000  0.4299500000000 1.0
C      1  0.5505740000000  0.4593460000000  0.4380340000000 1.0
C      1  0.4423690000000  0.5632890000000  0.5387090000000 1.0
C      1  0.5323120000000  0.4033160000000  0.4959320000000 1.0
C      1  0.4245820000000  0.4315120000000  0.4818710000000 1.0
C      1  0.5067910000000  0.4793010000000  0.5999460000000 1.0
C      1  0.4377700000000  0.5451240000000  0.4159520000000 1.0
C      1  0.4886200000000  0.5108810000000  0.5204900000000 1.0
C      1  0.5705010000000  0.4837780000000  0.5764640000000 1.0
C      1  0.5574420000000  0.4873760000000  0.4763090000000 1.0
C      1  0.4919190000000  0.4824100000000  0.3950570000000 1.0
C      1  0.5782340000000  0.4689560000000  0.4411020000000 1.0
C      1  0.4780630000000  0.5092210000000  0.3941950000000 1.0
C      1  0.4680320000000  0.4122110000000  0.4796220000000 1.0
C      1  0.5277710000000  0.5512860000000  0.5915130000000 1.0
C      1  0.4922300000000  0.4855230000000  0.5067640000000 1.0
C      1  0.4960660000000  0.5258640000000  0.6131880000000 1.0
C      1  0.4846620000000  0.5971620000000  0.5464410000000 1.0
C      1  0.5052680000000  0.5992250000000  0.5246550000000 1.0
C      1  0.4835130000000  0.4230320000000  0.5335500000000 1.0
C      1  0.4594600000000  0.4464400000000  0.5755160000000 1.0
C      1  0.5632980000000  0.5807480000000  0.4961250000000 1.0
C      1  0.5127820000000  0.5418790000000  0.4840390000000 1.0
C      1  0.4617440000000  0.5009790000000  0.4406540000000 1.0
C      1  0.5035900000000  0.4245480000000  0.5529160000000 1.0
C      1  0.4172100000000  0.4598110000000  0.4974770000000 1.0
C      1  0.4964000000000  0.5751110000000  0.5103020000000 1.0
C      1  0.4881430000000  0.4344040000000  0.5766590000000 1.0
C      1  0.5740480000000  0.4495510000000  0.5325560000000 1.0
C      1  0.5545640000000  0.4416650000000  0.5534960000000 1.0
C      1  0.5797710000000  0.4349020000000  0.4846240000000 1.0
C      1  0.5708020000000  0.4294530000000  0.5109790000000 1.0
C      1  0.4436000000000  0.5418570000000  0.4773040000000 1.0
C      1  0.5539530000000  0.5577200000000  0.4573030000000 1.0
C      1  0.4989720000000  0.5074000000000  0.4626140000000 1.0
C      1  0.5522960000000  0.4631470000000  0.5735680000000 1.0
C      1  0.5045540000000  0.3970110000000  0.4989830000000 1.0
C      1  0.4197120000000  0.5009560000000  0.5277550000000 1.0
C      1  0.5447050000000  0.4156690000000  0.5192350000000 1.0
C      1  0.5974470000000  0.5117220000000  0.4634130000000 1.0
C      1  0.5227020000000  0.5372720000000  0.6110480000000 1.0
C      1  0.4232260000000  0.5241570000000  0.4312950000000 1.0
C      1  0.4019210000000  0.5281630000000  0.4915100000000 1.0
C      1  0.4896480000000  0.3925880000000  0.4744950000000 1.0
C      1  0.4191330000000  0.5063150000000  0.4799310000000 1.0
C      1  0.5109990000000  0.5267950000000  0.5086050000000 1.0
C      1  0.4571900000000  0.5913650000000  0.5347190000000 1.0
C      1  0.4738990000000  0.5645430000000  0.5801000000000 1.0
C      1  0.4609120000000  0.5947740000000  0.5073200000000 1.0
C      1  0.5404210000000  0.4659270000000  0.4638310000000 1.0
C      1  0.5544880000000  0.5807980000000  0.5255620000000 1.0
C      1  0.4862970000000  0.5495300000000  0.6004360000000 1.0
C      1  0.4767430000000  0.4866170000000  0.4600850000000 1.0
C      1  0.5088430000000  0.5452650000000  0.5515930000000 1.0
C      1  0.4843420000000  0.4377070000000  0.4113490000000 1.0
C      1  0.5263690000000  0.5460470000000  0.4214120000000 1.0
C      1  0.5750830000000  0.5437650000000  0.5488680000000 1.0
C      1  0.5533590000000  0.5411370000000  0.4332190000000 1.0
C      1  0.5281360000000  0.4585530000000  0.4191110000000 1.0
C      1  0.5223260000000  0.4635600000000  0.5252970000000 1.0
C      1  0.5087120000000  0.4760720000000  0.5483590000000 1.0
C      1  0.4476750000000  0.5221350000000  0.5683040000000 1.0
C      1  0.4884930000000  0.4957830000000  0.5461150000000 1.0
C      1  0.4553880000000  0.4319750000000  0.5318880000000 1.0
C      1  0.4477610000000  0.4503600000000  0.5107110000000 1.0
C      1  0.4870260000000  0.5606020000000  0.4459640000000 1.0
C      1  0.4724580000000  0.4641360000000  0.4058450000000 1.0
C      1  0.5840770000000  0.5272380000000  0.5247410000000 1.0
C      1  0.4782340000000  0.5373660000000  0.3862930000000 1.0
C      1  0.5087230000000  0.5701850000000  0.4268900000000 1.0
END
