TITL C-4164241-3639-635 -4.36387591920828 125000 -12344.717132131 0 0 84 (C1) n - 1
REM
REM in /home/nfs/bkarasulu/CARBON/AIRSS/Generating-Clusters/ReaxFF-fromJPCA2015/Units_Real/with-SteepDescent/Only-C1/SD-CG/Try1-3A/FIRE-CG
REM
REM
REM
REM
REM
REM ./C.cell (11c1c37f851c82e70ff6c80c92926a4b)
REM
REM compiler GCC version 9.2.1 20190827 (Red Hat 9.2.1-1)
REM options -cpp -mtune=generic -march=x86-64 -g -O0 -fpre-include=/usr/include/finclude/math-vector-fortran.h
REM seed 920467234 1855024546 423197788 531435212 1686599637 2112816524 1530122469 1681878863 -109525638 958627686 710614109 882025979 1094306826 -1537171737 791635570 2092430367 -1698224122 2068837643 1704806351 529578159 1134538323 -1361457779 -645644162 1533294173 -838677907 606516440 2015539033 -1333430730 821087839 1718989645 -672730244 278394385 -659225281
REM
CELL 1.54180   50.00000   50.00000   50.00000   90.00000   90.00000   90.00000
LATT -1
SFAC C  
C      1  0.5198810000000  0.5209250000000  0.5876550000000 1.0
C      1  0.5382680000000  0.5612600000000  0.5094390000000 1.0
C      1  0.4740650000000  0.4652440000000  0.4962500000000 1.0
C      1  0.4342920000000  0.4823510000000  0.5025680000000 1.0
C      1  0.5438180000000  0.4460600000000  0.4412960000000 1.0
C      1  0.5011800000000  0.4665570000000  0.4366170000000 1.0
C      1  0.4765030000000  0.4802510000000  0.4725320000000 1.0
C      1  0.5192120000000  0.5169240000000  0.5419040000000 1.0
C      1  0.4727190000000  0.5781570000000  0.5500500000000 1.0
C      1  0.5047810000000  0.5073290000000  0.4138580000000 1.0
C      1  0.5674000000000  0.4483060000000  0.4591200000000 1.0
C      1  0.4531520000000  0.4599320000000  0.5454960000000 1.0
C      1  0.5321700000000  0.4919080000000  0.5880760000000 1.0
C      1  0.4759690000000  0.4517310000000  0.4379890000000 1.0
C      1  0.4966490000000  0.5231500000000  0.4981050000000 1.0
C      1  0.4326410000000  0.4584960000000  0.4860920000000 1.0
C      1  0.4446130000000  0.5235220000000  0.4455450000000 1.0
C      1  0.4728630000000  0.5611750000000  0.4580870000000 1.0
C      1  0.5705940000000  0.4445860000000  0.5059390000000 1.0
C      1  0.5294090000000  0.5438680000000  0.5725900000000 1.0
C      1  0.5188480000000  0.4394510000000  0.5285500000000 1.0
C      1  0.4989000000000  0.4551930000000  0.5690740000000 1.0
C      1  0.4538870000000  0.4697930000000  0.4306890000000 1.0
C      1  0.4528630000000  0.4793810000000  0.4564070000000 1.0
C      1  0.5582100000000  0.4907680000000  0.4850900000000 1.0
C      1  0.4518640000000  0.4355890000000  0.4810510000000 1.0
C      1  0.5675190000000  0.5031660000000  0.5495500000000 1.0
C      1  0.5149030000000  0.5209820000000  0.4743900000000 1.0
C      1  0.5647970000000  0.5210730000000  0.4895240000000 1.0
C      1  0.5415750000000  0.4714090000000  0.4258870000000 1.0
C      1  0.4483150000000  0.5404580000000  0.5678440000000 1.0
C      1  0.4673570000000  0.5794400000000  0.5221460000000 1.0
C      1  0.5245090000000  0.4670120000000  0.5733770000000 1.0
C      1  0.5282970000000  0.5606870000000  0.4338370000000 1.0
C      1  0.4920970000000  0.4835690000000  0.5354850000000 1.0
C      1  0.4857630000000  0.4807500000000  0.5122530000000 1.0
C      1  0.4691600000000  0.4368920000000  0.5044060000000 1.0
C      1  0.4690780000000  0.5375620000000  0.4406490000000 1.0
C      1  0.5641690000000  0.5147890000000  0.4468080000000 1.0
C      1  0.5048620000000  0.4801930000000  0.4625360000000 1.0
C      1  0.4218970000000  0.5279640000000  0.4967760000000 1.0
C      1  0.5167630000000  0.5602140000000  0.5259270000000 1.0
C      1  0.4754900000000  0.4358040000000  0.4627120000000 1.0
C      1  0.5207730000000  0.5647120000000  0.4858010000000 1.0
C      1  0.4415710000000  0.4953430000000  0.4373440000000 1.0
C      1  0.4450650000000  0.5141860000000  0.5666750000000 1.0
C      1  0.4708330000000  0.5596630000000  0.5005270000000 1.0
C      1  0.4727550000000  0.5038990000000  0.5712770000000 1.0
C      1  0.4516820000000  0.5674730000000  0.5687170000000 1.0
C      1  0.5538540000000  0.5022580000000  0.5742410000000 1.0
C      1  0.5310240000000  0.5465930000000  0.4643690000000 1.0
C      1  0.5670670000000  0.4730320000000  0.5091470000000 1.0
C      1  0.5480790000000  0.4257790000000  0.5018060000000 1.0
C      1  0.5324080000000  0.5591370000000  0.5500360000000 1.0
C      1  0.4456720000000  0.5114980000000  0.4932440000000 1.0
C      1  0.5606930000000  0.5358080000000  0.4646930000000 1.0
C      1  0.4884020000000  0.5298470000000  0.4171970000000 1.0
C      1  0.4425570000000  0.5629330000000  0.4640120000000 1.0
C      1  0.4479240000000  0.5817000000000  0.5424720000000 1.0
C      1  0.4334270000000  0.4774630000000  0.5326460000000 1.0
C      1  0.5501810000000  0.5244910000000  0.5381780000000 1.0
C      1  0.4973860000000  0.5184430000000  0.5692690000000 1.0
C      1  0.5029600000000  0.4287110000000  0.4738660000000 1.0
C      1  0.5061440000000  0.5337360000000  0.5234550000000 1.0
C      1  0.5554160000000  0.5364400000000  0.5121810000000 1.0
C      1  0.4681450000000  0.5296320000000  0.4996100000000 1.0
C      1  0.4676890000000  0.4383790000000  0.5336710000000 1.0
C      1  0.5232540000000  0.4361500000000  0.4582120000000 1.0
C      1  0.5111210000000  0.5465440000000  0.4186400000000 1.0
C      1  0.5719780000000  0.4766410000000  0.4613510000000 1.0
C      1  0.5177450000000  0.4898390000000  0.5350710000000 1.0
C      1  0.5345850000000  0.4651660000000  0.5443500000000 1.0
C      1  0.4914930000000  0.5669740000000  0.4810820000000 1.0
C      1  0.5269870000000  0.4951940000000  0.4744270000000 1.0
C      1  0.5617880000000  0.4767770000000  0.5369110000000 1.0
C      1  0.5156440000000  0.4812130000000  0.4147110000000 1.0
C      1  0.5681640000000  0.4318180000000  0.4818030000000 1.0
C      1  0.4275330000000  0.5375980000000  0.4664580000000 1.0
C      1  0.4761800000000  0.4746240000000  0.5598910000000 1.0
C      1  0.4253460000000  0.5025310000000  0.5447170000000 1.0
C      1  0.4955110000000  0.4377950000000  0.5458080000000 1.0
C      1  0.5195160000000  0.4315030000000  0.5010960000000 1.0
C      1  0.4159990000000  0.5157440000000  0.5213620000000 1.0
C      1  0.5641460000000  0.4888590000000  0.4355020000000 1.0
END
