TITL C-4164237-1827-739 13.9419050388377 125000 -13472.960382271 0 0 91 (C1) n - 1
REM
REM in /home/nfs/bkarasulu/CARBON/AIRSS/Generating-Clusters/ReaxFF-fromJPCA2015/Units_Real/with-SteepDescent/Only-C1/SD-CG/Try1-3A/FIRE-CG
REM
REM
REM
REM
REM
REM ./C.cell (11c1c37f851c82e70ff6c80c92926a4b)
REM
REM compiler GCC version 9.2.1 20190827 (Red Hat 9.2.1-1)
REM options -cpp -mtune=generic -march=x86-64 -g -O0 -fpre-include=/usr/include/finclude/math-vector-fortran.h
REM seed -1072484033 -1754828847 554748100 -323229577 -628211125 268695476 -538904033 -1661469374 2013312824 -320665020 -30871771 2078181632 481527262 1861721119 114509785 -1616442814 -1367563776 1992086910 -42322886 1287773304 -44873506 1826271055 -1109287337 -2122642109 892042897 1325970549 -1609708787 -1481811414 -1122908681 1706059827 419558470 1561155168 1027170713
REM
CELL 1.54180   50.00000   50.00000   50.00000   90.00000   90.00000   90.00000
LATT -1
SFAC C  
C      1  0.5628230000000  0.5300430000000  0.5394850000000 1.0
C      1  0.5833090000000  0.4848110000000  0.4774260000000 1.0
C      1  0.4379660000000  0.4865020000000  0.5084950000000 1.0
C      1  0.5630440000000  0.5175760000000  0.4613570000000 1.0
C      1  0.4788000000000  0.5081760000000  0.5199510000000 1.0
C      1  0.4994720000000  0.4296310000000  0.4320760000000 1.0
C      1  0.5259750000000  0.4425480000000  0.4240620000000 1.0
C      1  0.5440770000000  0.4191550000000  0.4937690000000 1.0
C      1  0.4494050000000  0.4515350000000  0.5402810000000 1.0
C      1  0.4501220000000  0.5347110000000  0.4684460000000 1.0
C      1  0.4903530000000  0.4979150000000  0.5435170000000 1.0
C      1  0.5365110000000  0.5725790000000  0.4792250000000 1.0
C      1  0.5410470000000  0.4900160000000  0.5633190000000 1.0
C      1  0.5202720000000  0.5266380000000  0.5187930000000 1.0
C      1  0.5728410000000  0.4549720000000  0.5258940000000 1.0
C      1  0.5693180000000  0.4893550000000  0.4538190000000 1.0
C      1  0.5280140000000  0.4660980000000  0.4073670000000 1.0
C      1  0.5030950000000  0.4759730000000  0.4566940000000 1.0
C      1  0.5451710000000  0.4512680000000  0.5371290000000 1.0
C      1  0.5795580000000  0.4849120000000  0.5270130000000 1.0
C      1  0.5107270000000  0.5841820000000  0.4884170000000 1.0
C      1  0.4381750000000  0.4564070000000  0.4665450000000 1.0
C      1  0.5821720000000  0.4985260000000  0.5015470000000 1.0
C      1  0.5525770000000  0.4648430000000  0.4605730000000 1.0
C      1  0.5437760000000  0.5327280000000  0.4453820000000 1.0
C      1  0.5316180000000  0.4959760000000  0.4101300000000 1.0
C      1  0.5443770000000  0.4400950000000  0.4466350000000 1.0
C      1  0.4542690000000  0.5794900000000  0.5004740000000 1.0
C      1  0.5384420000000  0.5364780000000  0.5617160000000 1.0
C      1  0.5362010000000  0.5116580000000  0.5838830000000 1.0
C      1  0.4818310000000  0.4607350000000  0.4689160000000 1.0
C      1  0.4223450000000  0.5307420000000  0.5458750000000 1.0
C      1  0.4824450000000  0.4311800000000  0.4754090000000 1.0
C      1  0.4671890000000  0.4893920000000  0.5585230000000 1.0
C      1  0.4542360000000  0.5124920000000  0.5703690000000 1.0
C      1  0.5010870000000  0.5577650000000  0.4547670000000 1.0
C      1  0.5611090000000  0.5203340000000  0.4915300000000 1.0
C      1  0.4853890000000  0.4539470000000  0.5816970000000 1.0
C      1  0.4513670000000  0.4889250000000  0.4426670000000 1.0
C      1  0.5260430000000  0.4702200000000  0.5244560000000 1.0
C      1  0.4334180000000  0.4967670000000  0.4626440000000 1.0
C      1  0.4349660000000  0.5602850000000  0.5062090000000 1.0
C      1  0.5219740000000  0.5799720000000  0.5344640000000 1.0
C      1  0.5286790000000  0.5176700000000  0.4951730000000 1.0
C      1  0.5111690000000  0.4446230000000  0.5683130000000 1.0
C      1  0.5678530000000  0.4360360000000  0.5048930000000 1.0
C      1  0.4256550000000  0.5204550000000  0.4743390000000 1.0
C      1  0.4417510000000  0.4805440000000  0.5420030000000 1.0
C      1  0.4692640000000  0.5404940000000  0.4893080000000 1.0
C      1  0.5370640000000  0.4582460000000  0.5640250000000 1.0
C      1  0.5080400000000  0.5225980000000  0.4756620000000 1.0
C      1  0.4352370000000  0.4586210000000  0.4945010000000 1.0
C      1  0.4726350000000  0.5082970000000  0.4376790000000 1.0
C      1  0.4709150000000  0.5340790000000  0.5176480000000 1.0
C      1  0.4947300000000  0.5467760000000  0.4806300000000 1.0
C      1  0.5309160000000  0.5575020000000  0.4548430000000 1.0
C      1  0.4474850000000  0.5806350000000  0.4741130000000 1.0
C      1  0.4663330000000  0.4907760000000  0.5039720000000 1.0
C      1  0.4939410000000  0.4283060000000  0.5494060000000 1.0
C      1  0.5261220000000  0.4708300000000  0.4727660000000 1.0
C      1  0.4509920000000  0.4571750000000  0.4408210000000 1.0
C      1  0.5397320000000  0.5515670000000  0.5857090000000 1.0
C      1  0.4741800000000  0.4424950000000  0.4330280000000 1.0
C      1  0.4836000000000  0.5473890000000  0.5419340000000 1.0
C      1  0.4621760000000  0.5347670000000  0.4408100000000 1.0
C      1  0.4772760000000  0.5595940000000  0.4378560000000 1.0
C      1  0.5038830000000  0.4187980000000  0.4593010000000 1.0
C      1  0.4962350000000  0.4191420000000  0.5209410000000 1.0
C      1  0.4944210000000  0.5754490000000  0.5336040000000 1.0
C      1  0.5011980000000  0.5054200000000  0.4501310000000 1.0
C      1  0.5658980000000  0.5026140000000  0.5445910000000 1.0
C      1  0.5325610000000  0.4212090000000  0.4657190000000 1.0
C      1  0.4628730000000  0.5402910000000  0.5657580000000 1.0
C      1  0.5140280000000  0.4714770000000  0.4982830000000 1.0
C      1  0.4503090000000  0.4410950000000  0.5131320000000 1.0
C      1  0.5452590000000  0.5763600000000  0.5248030000000 1.0
C      1  0.5174670000000  0.4887070000000  0.5435390000000 1.0
C      1  0.4734800000000  0.4262620000000  0.5027550000000 1.0
C      1  0.4228050000000  0.5361840000000  0.5163820000000 1.0
C      1  0.5121260000000  0.5353260000000  0.5416760000000 1.0
C      1  0.4361680000000  0.5522620000000  0.5630770000000 1.0
C      1  0.4291240000000  0.5046760000000  0.5571900000000 1.0
C      1  0.5571270000000  0.5681580000000  0.5015930000000 1.0
C      1  0.5655200000000  0.5426170000000  0.5132730000000 1.0
C      1  0.4855180000000  0.4734290000000  0.4943870000000 1.0
C      1  0.5252680000000  0.5147760000000  0.4313420000000 1.0
C      1  0.4225660000000  0.5111800000000  0.5002190000000 1.0
C      1  0.4872660000000  0.5776860000000  0.5048390000000 1.0
C      1  0.5205440000000  0.4190720000000  0.5073010000000 1.0
C      1  0.4565830000000  0.5805940000000  0.4466240000000 1.0
C      1  0.4691240000000  0.4401900000000  0.5591600000000 1.0
END
