TITL C-4164239-2837-368 55.7740190489509 125000 -21615.3506931812 0 0 148 (C1) n - 1
REM
REM in /home/nfs/bkarasulu/CARBON/AIRSS/Generating-Clusters/ReaxFF-fromJPCA2015/Units_Real/with-SteepDescent/Only-C1/SD-CG/Try1-3A/FIRE-CG
REM
REM
REM
REM
REM
REM ./C.cell (11c1c37f851c82e70ff6c80c92926a4b)
REM
REM compiler GCC version 9.2.1 20190827 (Red Hat 9.2.1-1)
REM options -cpp -mtune=generic -march=x86-64 -g -O0 -fpre-include=/usr/include/finclude/math-vector-fortran.h
REM seed -1120475681 -1713915871 -1954959672 -831184260 -2015759878 159556966 445739943 2095893679 1614803323 -1210789617 -1284116075 -31189443 2048887348 -514637107 559089912 -799824182 1257866964 -617417470 431174770 910877671 1113614253 1581320365 1494110781 467657471 1671260830 -826500389 -1128682209 39803006 290571734 1798695758 1576467914 -581336495 784072497
REM
CELL 1.54180   50.00000   50.00000   50.00000   90.00000   90.00000   90.00000
LATT -1
SFAC C  
C      1  0.4852260000000  0.4414220000000  0.5401930000000 1.0
C      1  0.4133990000000  0.4505300000000  0.4997340000000 1.0
C      1  0.4426140000000  0.4877730000000  0.5729640000000 1.0
C      1  0.4811730000000  0.5393400000000  0.4308570000000 1.0
C      1  0.4353240000000  0.4380950000000  0.5504530000000 1.0
C      1  0.4145750000000  0.5371770000000  0.4570770000000 1.0
C      1  0.4714690000000  0.4590890000000  0.5212440000000 1.0
C      1  0.4233100000000  0.5627400000000  0.5026830000000 1.0
C      1  0.4595930000000  0.5838550000000  0.5477530000000 1.0
C      1  0.4484420000000  0.4150380000000  0.5173380000000 1.0
C      1  0.5153930000000  0.5345690000000  0.5025610000000 1.0
C      1  0.4348940000000  0.5538370000000  0.4751490000000 1.0
C      1  0.5493060000000  0.5878340000000  0.5055910000000 1.0
C      1  0.5341680000000  0.4142990000000  0.4607720000000 1.0
C      1  0.5115270000000  0.4814990000000  0.5399850000000 1.0
C      1  0.4169180000000  0.4547740000000  0.4655090000000 1.0
C      1  0.5970130000000  0.5467760000000  0.4799480000000 1.0
C      1  0.4252710000000  0.5099260000000  0.5621360000000 1.0
C      1  0.4671880000000  0.4084840000000  0.4566080000000 1.0
C      1  0.5548700000000  0.4133420000000  0.5179690000000 1.0
C      1  0.4566290000000  0.6059050000000  0.4984160000000 1.0
C      1  0.5703410000000  0.5091580000000  0.4186830000000 1.0
C      1  0.4387850000000  0.5026000000000  0.5114420000000 1.0
C      1  0.4976850000000  0.4411480000000  0.4283190000000 1.0
C      1  0.4572770000000  0.4446820000000  0.4863110000000 1.0
C      1  0.4508010000000  0.5066970000000  0.4856590000000 1.0
C      1  0.5298340000000  0.5193060000000  0.5503340000000 1.0
C      1  0.5022810000000  0.5521940000000  0.4859350000000 1.0
C      1  0.5086470000000  0.5685510000000  0.5927400000000 1.0
C      1  0.5375260000000  0.5340220000000  0.5230540000000 1.0
C      1  0.5470440000000  0.5497120000000  0.4636040000000 1.0
C      1  0.5260410000000  0.4945880000000  0.4062050000000 1.0
C      1  0.5653550000000  0.4287880000000  0.4961480000000 1.0
C      1  0.4842390000000  0.4524970000000  0.4773440000000 1.0
C      1  0.4969770000000  0.4627620000000  0.5563200000000 1.0
C      1  0.5954730000000  0.5397280000000  0.5088120000000 1.0
C      1  0.5783840000000  0.4580730000000  0.5565570000000 1.0
C      1  0.5032770000000  0.5079380000000  0.4665820000000 1.0
C      1  0.4908030000000  0.5236550000000  0.5403870000000 1.0
C      1  0.4808950000000  0.5208600000000  0.4040200000000 1.0
C      1  0.4665960000000  0.6029430000000  0.5265550000000 1.0
C      1  0.4451270000000  0.4238110000000  0.4686860000000 1.0
C      1  0.4631550000000  0.4871500000000  0.4327000000000 1.0
C      1  0.5421190000000  0.5188170000000  0.4084520000000 1.0
C      1  0.4385270000000  0.4867880000000  0.4011280000000 1.0
C      1  0.5260050000000  0.4421430000000  0.4210400000000 1.0
C      1  0.5781600000000  0.4534960000000  0.5051960000000 1.0
C      1  0.5102390000000  0.4676650000000  0.5849310000000 1.0
C      1  0.6039310000000  0.4946150000000  0.4672990000000 1.0
C      1  0.5147170000000  0.5156600000000  0.6013750000000 1.0
C      1  0.5093920000000  0.4360080000000  0.5851380000000 1.0
C      1  0.5963350000000  0.4900070000000  0.4957820000000 1.0
C      1  0.4991570000000  0.5782790000000  0.4984970000000 1.0
C      1  0.5379830000000  0.4761660000000  0.5792640000000 1.0
C      1  0.5416310000000  0.5231300000000  0.5908810000000 1.0
C      1  0.4379730000000  0.4670420000000  0.5531200000000 1.0
C      1  0.5695040000000  0.4810120000000  0.4266810000000 1.0
C      1  0.5009420000000  0.5025310000000  0.4019020000000 1.0
C      1  0.4503330000000  0.5226360000000  0.5539910000000 1.0
C      1  0.5095710000000  0.5080300000000  0.4959450000000 1.0
C      1  0.5504290000000  0.5174330000000  0.4748900000000 1.0
C      1  0.5433550000000  0.5643060000000  0.5577010000000 1.0
C      1  0.5781670000000  0.5336670000000  0.5539080000000 1.0
C      1  0.5510020000000  0.4901990000000  0.5159660000000 1.0
C      1  0.4914510000000  0.4587680000000  0.4505810000000 1.0
C      1  0.4472250000000  0.5269300000000  0.5254210000000 1.0
C      1  0.4891260000000  0.4132880000000  0.5315490000000 1.0
C      1  0.5981670000000  0.5116690000000  0.5155760000000 1.0
C      1  0.5842600000000  0.4781840000000  0.4508060000000 1.0
C      1  0.4861010000000  0.4799730000000  0.5098440000000 1.0
C      1  0.4349040000000  0.4971880000000  0.4316120000000 1.0
C      1  0.5514160000000  0.5154520000000  0.5043810000000 1.0
C      1  0.4817550000000  0.4254800000000  0.5806310000000 1.0
C      1  0.4769430000000  0.6051410000000  0.4762010000000 1.0
C      1  0.4559880000000  0.4660960000000  0.4134010000000 1.0
C      1  0.5392820000000  0.4695970000000  0.4234910000000 1.0
C      1  0.5096940000000  0.4107040000000  0.4756430000000 1.0
C      1  0.4618730000000  0.5336570000000  0.4824220000000 1.0
C      1  0.5898210000000  0.5085560000000  0.5432630000000 1.0
C      1  0.5040480000000  0.5575610000000  0.4237850000000 1.0
C      1  0.5400840000000  0.4696330000000  0.4539660000000 1.0
C      1  0.5522490000000  0.4670610000000  0.4988860000000 1.0
C      1  0.5288410000000  0.5439120000000  0.4143760000000 1.0
C      1  0.4510910000000  0.4399410000000  0.4254670000000 1.0
C      1  0.5041700000000  0.4684560000000  0.4914050000000 1.0
C      1  0.5382030000000  0.4774840000000  0.5384790000000 1.0
C      1  0.5717950000000  0.5538320000000  0.4698480000000 1.0
C      1  0.6023450000000  0.5263800000000  0.4588580000000 1.0
C      1  0.3988240000000  0.4994030000000  0.4633980000000 1.0
C      1  0.4977430000000  0.5002560000000  0.5220280000000 1.0
C      1  0.4828980000000  0.4014150000000  0.4798010000000 1.0
C      1  0.4982700000000  0.5377420000000  0.5911630000000 1.0
C      1  0.5563700000000  0.5425380000000  0.5728090000000 1.0
C      1  0.5527080000000  0.5636690000000  0.5290550000000 1.0
C      1  0.5497900000000  0.4580310000000  0.5610860000000 1.0
C      1  0.4302950000000  0.4370290000000  0.4472210000000 1.0
C      1  0.3932310000000  0.5216380000000  0.4679350000000 1.0
C      1  0.4934030000000  0.5907630000000  0.5232750000000 1.0
C      1  0.5035310000000  0.5759890000000  0.4460390000000 1.0
C      1  0.5445570000000  0.4291110000000  0.4390130000000 1.0
C      1  0.5156850000000  0.4004910000000  0.5355950000000 1.0
C      1  0.5904900000000  0.4574810000000  0.5320180000000 1.0
C      1  0.5326690000000  0.5945530000000  0.4803600000000 1.0
C      1  0.4740520000000  0.4233020000000  0.4316270000000 1.0
C      1  0.5163120000000  0.5731300000000  0.5657830000000 1.0
C      1  0.3986550000000  0.4745580000000  0.5123180000000 1.0
C      1  0.5800580000000  0.5514630000000  0.5309430000000 1.0
C      1  0.4679060000000  0.4995660000000  0.5885790000000 1.0
C      1  0.4150600000000  0.4800260000000  0.4525140000000 1.0
C      1  0.4814420000000  0.4850600000000  0.4528370000000 1.0
C      1  0.4539180000000  0.5475300000000  0.5686270000000 1.0
C      1  0.5331220000000  0.4968590000000  0.4618830000000 1.0
C      1  0.5309200000000  0.3999810000000  0.5098260000000 1.0
C      1  0.4896200000000  0.5722190000000  0.5456240000000 1.0
C      1  0.4654080000000  0.5426010000000  0.5099980000000 1.0
C      1  0.5493070000000  0.4389870000000  0.4664590000000 1.0
C      1  0.4606500000000  0.5032280000000  0.3953140000000 1.0
C      1  0.4558420000000  0.4247900000000  0.5681520000000 1.0
C      1  0.5619050000000  0.6094030000000  0.5042760000000 1.0
C      1  0.4382010000000  0.5650610000000  0.5518730000000 1.0
C      1  0.5759840000000  0.4901670000000  0.4754650000000 1.0
C      1  0.4726760000000  0.4038400000000  0.5085990000000 1.0
C      1  0.5288940000000  0.5734680000000  0.4608620000000 1.0
C      1  0.4887060000000  0.5348290000000  0.4652400000000 1.0
C      1  0.4264870000000  0.4301040000000  0.5230010000000 1.0
C      1  0.4515000000000  0.5684190000000  0.4541600000000 1.0
C      1  0.5448380000000  0.5030350000000  0.5704220000000 1.0
C      1  0.5048120000000  0.6044810000000  0.4863890000000 1.0
C      1  0.4761220000000  0.5844810000000  0.4562550000000 1.0
C      1  0.5069270000000  0.5286390000000  0.5625310000000 1.0
C      1  0.4215940000000  0.5484750000000  0.5305850000000 1.0
C      1  0.4070120000000  0.5014000000000  0.5174490000000 1.0
C      1  0.4322110000000  0.5267370000000  0.4364730000000 1.0
C      1  0.4453500000000  0.4739540000000  0.5236770000000 1.0
C      1  0.5330780000000  0.4314700000000  0.5686540000000 1.0
C      1  0.5863360000000  0.5218090000000  0.4372090000000 1.0
C      1  0.5270260000000  0.4526450000000  0.4993040000000 1.0
C      1  0.4385400000000  0.4597740000000  0.5002310000000 1.0
C      1  0.4525830000000  0.5475690000000  0.4341280000000 1.0
C      1  0.4637960000000  0.4869130000000  0.4726500000000 1.0
C      1  0.4103600000000  0.5213180000000  0.5393990000000 1.0
C      1  0.5386890000000  0.4131260000000  0.5480680000000 1.0
C      1  0.4370700000000  0.5863030000000  0.5019430000000 1.0
C      1  0.4657860000000  0.5307940000000  0.5937770000000 1.0
C      1  0.5209470000000  0.4246690000000  0.4980650000000 1.0
C      1  0.4956720000000  0.4937380000000  0.5949850000000 1.0
C      1  0.4856660000000  0.5480490000000  0.5287850000000 1.0
C      1  0.5933470000000  0.4801890000000  0.5499480000000 1.0
END
