TITL C-4164232-771-728 7.7886156229516 125000 -11209.3508525407 0 0 77 (C1) n - 1
REM
REM in /home/nfs/bkarasulu/CARBON/AIRSS/Generating-Clusters/ReaxFF-fromJPCA2015/Units_Real/with-SteepDescent/Only-C1/SD-CG/Try1-3A/FIRE-CG
REM
REM
REM
REM
REM
REM ./C.cell (11c1c37f851c82e70ff6c80c92926a4b)
REM
REM compiler GCC version 9.2.1 20190827 (Red Hat 9.2.1-1)
REM options -cpp -mtune=generic -march=x86-64 -g -O0 -fpre-include=/usr/include/finclude/math-vector-fortran.h
REM seed 326074490 912519531 2005057099 1624789298 -1751604690 452647854 1824110787 -124827964 1701018457 1369945562 -800090443 596353718 -138080719 1394348993 -573722384 -1573758483 -1058579272 -1074903691 1655292572 -1696742886 -2025999181 1857843754 1077904354 1707393063 1294000557 -402540293 -1411514037 705159005 -428581358 1275617422 -428675217 -582854111 611627561
REM
CELL 1.54180   50.00000   50.00000   50.00000   90.00000   90.00000   90.00000
LATT -1
SFAC C  
C      1  0.5498010000000  0.4679080000000  0.5561150000000 1.0
C      1  0.5525680000000  0.5315500000000  0.4468890000000 1.0
C      1  0.4991240000000  0.5955380000000  0.5000040000000 1.0
C      1  0.5094400000000  0.4925690000000  0.5262610000000 1.0
C      1  0.5040150000000  0.5338490000000  0.4415150000000 1.0
C      1  0.5484000000000  0.4507910000000  0.5340160000000 1.0
C      1  0.4674030000000  0.4354660000000  0.4736070000000 1.0
C      1  0.4950130000000  0.4688790000000  0.5178100000000 1.0
C      1  0.5693240000000  0.4616280000000  0.4244860000000 1.0
C      1  0.4436310000000  0.4443640000000  0.4859990000000 1.0
C      1  0.5148540000000  0.4658590000000  0.4967180000000 1.0
C      1  0.4370260000000  0.4661770000000  0.5271000000000 1.0
C      1  0.5609860000000  0.5521560000000  0.4817700000000 1.0
C      1  0.4793380000000  0.4644560000000  0.5859520000000 1.0
C      1  0.4741500000000  0.4901150000000  0.4897880000000 1.0
C      1  0.4988500000000  0.5360090000000  0.4913180000000 1.0
C      1  0.5125400000000  0.4739510000000  0.4548380000000 1.0
C      1  0.5016880000000  0.5384050000000  0.5428120000000 1.0
C      1  0.5310070000000  0.5304040000000  0.4291010000000 1.0
C      1  0.4541360000000  0.5446850000000  0.4613130000000 1.0
C      1  0.4702110000000  0.4418530000000  0.5687830000000 1.0
C      1  0.4662100000000  0.5041660000000  0.4302090000000 1.0
C      1  0.4566160000000  0.5680280000000  0.4763320000000 1.0
C      1  0.4609480000000  0.4681700000000  0.5650390000000 1.0
C      1  0.5339890000000  0.5366290000000  0.5426970000000 1.0
C      1  0.5479080000000  0.4778010000000  0.4209710000000 1.0
C      1  0.5860740000000  0.4829300000000  0.4936260000000 1.0
C      1  0.4407350000000  0.5125030000000  0.5554210000000 1.0
C      1  0.4971480000000  0.4924970000000  0.4715750000000 1.0
C      1  0.5725910000000  0.5309540000000  0.4667930000000 1.0
C      1  0.4357110000000  0.5676230000000  0.4985820000000 1.0
C      1  0.4572210000000  0.4788910000000  0.4434240000000 1.0
C      1  0.5017470000000  0.4733800000000  0.5473230000000 1.0
C      1  0.4658010000000  0.4542030000000  0.4534520000000 1.0
C      1  0.5237960000000  0.5809530000000  0.4891730000000 1.0
C      1  0.5221910000000  0.4688320000000  0.5671210000000 1.0
C      1  0.4876890000000  0.5294000000000  0.5687850000000 1.0
C      1  0.4191800000000  0.5449510000000  0.5077010000000 1.0
C      1  0.4362070000000  0.5625800000000  0.5265850000000 1.0
C      1  0.5474450000000  0.4401010000000  0.4398250000000 1.0
C      1  0.5437170000000  0.4174790000000  0.4289730000000 1.0
C      1  0.4567850000000  0.5589520000000  0.5467850000000 1.0
C      1  0.5468610000000  0.5575650000000  0.5286020000000 1.0
C      1  0.4507760000000  0.4418570000000  0.5257900000000 1.0
C      1  0.4914770000000  0.5161900000000  0.4218950000000 1.0
C      1  0.4717630000000  0.5037580000000  0.5155360000000 1.0
C      1  0.4963170000000  0.5061740000000  0.5795070000000 1.0
C      1  0.5491710000000  0.5698700000000  0.4998980000000 1.0
C      1  0.5831930000000  0.4774120000000  0.5223930000000 1.0
C      1  0.5490630000000  0.5096910000000  0.5039240000000 1.0
C      1  0.5264590000000  0.4912440000000  0.5037800000000 1.0
C      1  0.5279440000000  0.4512710000000  0.4615920000000 1.0
C      1  0.4920170000000  0.5829070000000  0.5234780000000 1.0
C      1  0.5514530000000  0.4413500000000  0.5082900000000 1.0
C      1  0.4199410000000  0.5173490000000  0.4983610000000 1.0
C      1  0.4937210000000  0.4238740000000  0.4920090000000 1.0
C      1  0.5256900000000  0.4391560000000  0.4885620000000 1.0
C      1  0.4674890000000  0.4270830000000  0.5417790000000 1.0
C      1  0.4272960000000  0.4643790000000  0.4992000000000 1.0
C      1  0.4505260000000  0.5206060000000  0.4490410000000 1.0
C      1  0.5527360000000  0.5152160000000  0.5331020000000 1.0
C      1  0.5184390000000  0.5058760000000  0.4147030000000 1.0
C      1  0.4851680000000  0.4173290000000  0.5202300000000 1.0
C      1  0.4857720000000  0.5662780000000  0.5437920000000 1.0
C      1  0.4888120000000  0.5264230000000  0.5167750000000 1.0
C      1  0.5052140000000  0.4814340000000  0.5884820000000 1.0
C      1  0.5768130000000  0.4557290000000  0.5036050000000 1.0
C      1  0.5052870000000  0.5612720000000  0.4777270000000 1.0
C      1  0.4534160000000  0.4900100000000  0.5395330000000 1.0
C      1  0.4834630000000  0.5805630000000  0.4784840000000 1.0
C      1  0.4493240000000  0.4945820000000  0.4693530000000 1.0
C      1  0.5218470000000  0.4822260000000  0.4284300000000 1.0
C      1  0.5011440000000  0.5210660000000  0.4683180000000 1.0
C      1  0.5711270000000  0.5057730000000  0.4855250000000 1.0
C      1  0.4245680000000  0.4917810000000  0.4859590000000 1.0
C      1  0.5649990000000  0.4898140000000  0.5421480000000 1.0
C      1  0.4575030000000  0.5352560000000  0.5636090000000 1.0
END
