TITL C-4164233-775-132 88.9957899912879 125000 -28081.276462789 0 0 191 (C1) n - 1
REM
REM in /home/nfs/bkarasulu/CARBON/AIRSS/Generating-Clusters/ReaxFF-fromJPCA2015/Units_Real/with-SteepDescent/Only-C1/SD-CG/Try1-3A/FIRE-CG
REM
REM
REM
REM
REM
REM ./C.cell (11c1c37f851c82e70ff6c80c92926a4b)
REM
REM compiler GCC version 9.2.1 20190827 (Red Hat 9.2.1-1)
REM options -cpp -mtune=generic -march=x86-64 -g -O0 -fpre-include=/usr/include/finclude/math-vector-fortran.h
REM seed 1432602859 939941465 1766867329 -736516181 -560619325 -1212312012 1334320994 1953686648 441972096 -1060840732 1949272302 -1058821610 1711304988 -1344144148 -908877726 2047945252 2085168740 -451035468 -150240024 1650623107 2079793507 -446585575 -370866225 75234397 -1438520999 1105698429 -1129983282 374277716 -1481168050 -326476850 1694473266 17145786 -990076949
REM
CELL 1.54180   50.00000   50.00000   50.00000   90.00000   90.00000   90.00000
LATT -1
SFAC C  
C      1  0.4657560000000  0.4884170000000  0.6123550000000 1.0
C      1  0.5701930000000  0.4824780000000  0.5769610000000 1.0
C      1  0.5171510000000  0.4818700000000  0.5678690000000 1.0
C      1  0.5563500000000  0.4962680000000  0.6017920000000 1.0
C      1  0.5645300000000  0.5083430000000  0.5638850000000 1.0
C      1  0.4497860000000  0.5942910000000  0.5263630000000 1.0
C      1  0.4757880000000  0.3936110000000  0.5143040000000 1.0
C      1  0.5047140000000  0.5367900000000  0.4620540000000 1.0
C      1  0.4734650000000  0.4625010000000  0.5356470000000 1.0
C      1  0.4718170000000  0.4533640000000  0.4022870000000 1.0
C      1  0.4965120000000  0.5500050000000  0.5491530000000 1.0
C      1  0.5307730000000  0.3878960000000  0.5176270000000 1.0
C      1  0.4351650000000  0.4381740000000  0.4420650000000 1.0
C      1  0.4310750000000  0.5979140000000  0.4812920000000 1.0
C      1  0.5665590000000  0.5779870000000  0.5434390000000 1.0
C      1  0.4971180000000  0.5007010000000  0.5714360000000 1.0
C      1  0.4343460000000  0.4563720000000  0.5779850000000 1.0
C      1  0.4543600000000  0.4953870000000  0.5659480000000 1.0
C      1  0.6119220000000  0.5120020000000  0.5227630000000 1.0
C      1  0.4716820000000  0.5612640000000  0.4732070000000 1.0
C      1  0.5032160000000  0.5610150000000  0.5224500000000 1.0
C      1  0.5401050000000  0.3985470000000  0.4923010000000 1.0
C      1  0.4080860000000  0.4910460000000  0.4207120000000 1.0
C      1  0.4606410000000  0.5343100000000  0.5937810000000 1.0
C      1  0.4231060000000  0.5055190000000  0.5416230000000 1.0
C      1  0.4444710000000  0.4906520000000  0.4405610000000 1.0
C      1  0.4725820000000  0.4896860000000  0.4785840000000 1.0
C      1  0.5073310000000  0.4294990000000  0.5297270000000 1.0
C      1  0.4716840000000  0.5171440000000  0.4821880000000 1.0
C      1  0.5735220000000  0.4794990000000  0.4171500000000 1.0
C      1  0.5247430000000  0.5774940000000  0.5665470000000 1.0
C      1  0.5395140000000  0.5070270000000  0.4786600000000 1.0
C      1  0.5535290000000  0.4886650000000  0.4623100000000 1.0
C      1  0.4590740000000  0.4874510000000  0.5381040000000 1.0
C      1  0.4082740000000  0.5829600000000  0.4914900000000 1.0
C      1  0.4386910000000  0.5586790000000  0.4200290000000 1.0
C      1  0.6122650000000  0.5249720000000  0.4549150000000 1.0
C      1  0.4489670000000  0.4126730000000  0.4721170000000 1.0
C      1  0.5833400000000  0.5553160000000  0.4301960000000 1.0
C      1  0.4770400000000  0.5751080000000  0.5642650000000 1.0
C      1  0.5211200000000  0.4654300000000  0.5916330000000 1.0
C      1  0.5023580000000  0.4576800000000  0.5030770000000 1.0
C      1  0.5896110000000  0.4637710000000  0.5468010000000 1.0
C      1  0.4817210000000  0.4525920000000  0.4523070000000 1.0
C      1  0.4859840000000  0.5216500000000  0.5533030000000 1.0
C      1  0.4608780000000  0.5233460000000  0.5666670000000 1.0
C      1  0.4277340000000  0.4062340000000  0.5161440000000 1.0
C      1  0.3880430000000  0.4925970000000  0.4679770000000 1.0
C      1  0.5784260000000  0.4179270000000  0.5279470000000 1.0
C      1  0.5301370000000  0.4754670000000  0.5423810000000 1.0
C      1  0.5061810000000  0.4915770000000  0.4481050000000 1.0
C      1  0.5582150000000  0.5569230000000  0.4673160000000 1.0
C      1  0.4503280000000  0.5607350000000  0.4920340000000 1.0
C      1  0.5709260000000  0.4999660000000  0.5127310000000 1.0
C      1  0.4272530000000  0.5075340000000  0.4910340000000 1.0
C      1  0.5443800000000  0.5487800000000  0.4040530000000 1.0
C      1  0.5027210000000  0.4306510000000  0.5005110000000 1.0
C      1  0.4261470000000  0.4184490000000  0.4893420000000 1.0
C      1  0.4554720000000  0.6019350000000  0.4970130000000 1.0
C      1  0.5031510000000  0.4584110000000  0.5322580000000 1.0
C      1  0.4044190000000  0.5169880000000  0.5616800000000 1.0
C      1  0.4015520000000  0.4771940000000  0.4468820000000 1.0
C      1  0.4138980000000  0.4521520000000  0.4552120000000 1.0
C      1  0.5298360000000  0.5425050000000  0.5884570000000 1.0
C      1  0.4761520000000  0.4821010000000  0.4016790000000 1.0
C      1  0.5972540000000  0.5397550000000  0.5507690000000 1.0
C      1  0.5145060000000  0.5176490000000  0.6052340000000 1.0
C      1  0.4130560000000  0.5438130000000  0.5537650000000 1.0
C      1  0.5000340000000  0.4482720000000  0.3956550000000 1.0
C      1  0.5533250000000  0.4352310000000  0.5685660000000 1.0
C      1  0.3958040000000  0.5408230000000  0.5083320000000 1.0
C      1  0.5062850000000  0.5586020000000  0.6013380000000 1.0
C      1  0.5917710000000  0.4542860000000  0.4651950000000 1.0
C      1  0.4973790000000  0.5916620000000  0.5176890000000 1.0
C      1  0.4278230000000  0.5455390000000  0.4454290000000 1.0
C      1  0.5693990000000  0.5355770000000  0.4130060000000 1.0
C      1  0.5543760000000  0.4313450000000  0.5191300000000 1.0
C      1  0.6063860000000  0.5520690000000  0.4502520000000 1.0
C      1  0.4523230000000  0.3999640000000  0.5309940000000 1.0
C      1  0.5592080000000  0.4609840000000  0.5555920000000 1.0
C      1  0.5336860000000  0.4234030000000  0.5347460000000 1.0
C      1  0.3840760000000  0.5136850000000  0.5146690000000 1.0
C      1  0.4007740000000  0.5341370000000  0.4390320000000 1.0
C      1  0.5588780000000  0.5213900000000  0.4957550000000 1.0
C      1  0.5661730000000  0.5210200000000  0.5893440000000 1.0
C      1  0.5632420000000  0.5170360000000  0.5366090000000 1.0
C      1  0.5017100000000  0.3900870000000  0.5280670000000 1.0
C      1  0.5216370000000  0.4254370000000  0.4569940000000 1.0
C      1  0.4221260000000  0.4444750000000  0.5522150000000 1.0
C      1  0.5459200000000  0.4675280000000  0.4792710000000 1.0
C      1  0.4709020000000  0.4246570000000  0.4552160000000 1.0
C      1  0.4793790000000  0.5066820000000  0.5273430000000 1.0
C      1  0.4340540000000  0.4850000000000  0.5851670000000 1.0
C      1  0.4787290000000  0.4856920000000  0.5876370000000 1.0
C      1  0.5266160000000  0.5499810000000  0.5120440000000 1.0
C      1  0.5282160000000  0.4911160000000  0.6066800000000 1.0
C      1  0.4119810000000  0.4443980000000  0.4849930000000 1.0
C      1  0.5954270000000  0.4336010000000  0.5096000000000 1.0
C      1  0.5588860000000  0.5479120000000  0.5842890000000 1.0
C      1  0.5363090000000  0.5608540000000  0.4867540000000 1.0
C      1  0.5749640000000  0.5561860000000  0.5616450000000 1.0
C      1  0.4694210000000  0.3948120000000  0.4846940000000 1.0
C      1  0.5112130000000  0.4127630000000  0.4339020000000 1.0
C      1  0.4261080000000  0.5786700000000  0.5359380000000 1.0
C      1  0.4496730000000  0.5438390000000  0.5147710000000 1.0
C      1  0.4779660000000  0.5296420000000  0.3905850000000 1.0
C      1  0.6073980000000  0.4986270000000  0.4576080000000 1.0
C      1  0.3907150000000  0.5209110000000  0.4626190000000 1.0
C      1  0.4527680000000  0.4965030000000  0.3918390000000 1.0
C      1  0.5526620000000  0.6131190000000  0.4816040000000 1.0
C      1  0.4378810000000  0.4585270000000  0.4985690000000 1.0
C      1  0.5010400000000  0.5802270000000  0.5826400000000 1.0
C      1  0.5361790000000  0.5290330000000  0.5338100000000 1.0
C      1  0.5257980000000  0.5005590000000  0.5281300000000 1.0
C      1  0.6035090000000  0.5647760000000  0.4770920000000 1.0
C      1  0.4522780000000  0.4426050000000  0.4213330000000 1.0
C      1  0.5491810000000  0.4779810000000  0.4034210000000 1.0
C      1  0.6079900000000  0.5099430000000  0.5514810000000 1.0
C      1  0.4638020000000  0.5703770000000  0.4247830000000 1.0
C      1  0.4973880000000  0.5239530000000  0.4019820000000 1.0
C      1  0.5170190000000  0.5575320000000  0.4650990000000 1.0
C      1  0.5040790000000  0.4199800000000  0.5756790000000 1.0
C      1  0.4449450000000  0.5197510000000  0.4445940000000 1.0
C      1  0.4889030000000  0.5010980000000  0.4246430000000 1.0
C      1  0.4070500000000  0.4559890000000  0.5313390000000 1.0
C      1  0.5268100000000  0.6016970000000  0.5230700000000 1.0
C      1  0.5614310000000  0.5705850000000  0.4407080000000 1.0
C      1  0.4877440000000  0.5804650000000  0.4326550000000 1.0
C      1  0.4098510000000  0.5291180000000  0.4848860000000 1.0
C      1  0.5086810000000  0.4625960000000  0.4479960000000 1.0
C      1  0.5625860000000  0.4113660000000  0.4779020000000 1.0
C      1  0.4886840000000  0.4025870000000  0.4646550000000 1.0
C      1  0.4714730000000  0.5220290000000  0.4373940000000 1.0
C      1  0.5236680000000  0.5482330000000  0.5603520000000 1.0
C      1  0.3955760000000  0.4627660000000  0.5072160000000 1.0
C      1  0.4746070000000  0.5920750000000  0.5391320000000 1.0
C      1  0.4304390000000  0.5361770000000  0.4030370000000 1.0
C      1  0.6056750000000  0.4775750000000  0.4771150000000 1.0
C      1  0.5785150000000  0.4573730000000  0.4388240000000 1.0
C      1  0.4553290000000  0.4524970000000  0.5174750000000 1.0
C      1  0.4313620000000  0.4178050000000  0.5426460000000 1.0
C      1  0.3861450000000  0.4887280000000  0.4976580000000 1.0
C      1  0.4580240000000  0.4418470000000  0.5809010000000 1.0
C      1  0.4052800000000  0.5680890000000  0.5163910000000 1.0
C      1  0.5427800000000  0.3969970000000  0.5431270000000 1.0
C      1  0.4907950000000  0.5343720000000  0.6053510000000 1.0
C      1  0.5709330000000  0.5314400000000  0.4718940000000 1.0
C      1  0.4514250000000  0.5246330000000  0.3875130000000 1.0
C      1  0.5502940000000  0.4176000000000  0.4516780000000 1.0
C      1  0.4830190000000  0.5969480000000  0.4895330000000 1.0
C      1  0.4434770000000  0.4874120000000  0.4967660000000 1.0
C      1  0.4304080000000  0.5324380000000  0.5335750000000 1.0
C      1  0.4652290000000  0.4763360000000  0.4541110000000 1.0
C      1  0.3932270000000  0.5013330000000  0.5393280000000 1.0
C      1  0.6016210000000  0.4600900000000  0.5206910000000 1.0
C      1  0.5397620000000  0.5930850000000  0.5468750000000 1.0
C      1  0.4532900000000  0.5611850000000  0.5783980000000 1.0
C      1  0.4351050000000  0.4840810000000  0.4128610000000 1.0
C      1  0.6032210000000  0.4862470000000  0.5060550000000 1.0
C      1  0.5003260000000  0.4818360000000  0.4879490000000 1.0
C      1  0.4782620000000  0.4300640000000  0.5810500000000 1.0
C      1  0.4285300000000  0.5688920000000  0.4734960000000 1.0
C      1  0.4087080000000  0.5204240000000  0.4147940000000 1.0
C      1  0.4694040000000  0.5250300000000  0.5079920000000 1.0
C      1  0.5108870000000  0.5712060000000  0.4171650000000 1.0
C      1  0.4953660000000  0.4077040000000  0.5503300000000 1.0
C      1  0.5983670000000  0.4851340000000  0.5635390000000 1.0
C      1  0.4453170000000  0.5051630000000  0.6032570000000 1.0
C      1  0.5569720000000  0.4530120000000  0.5016020000000 1.0
C      1  0.5517350000000  0.4790790000000  0.5047780000000 1.0
C      1  0.5404050000000  0.5728990000000  0.4197820000000 1.0
C      1  0.5134900000000  0.4259170000000  0.4094730000000 1.0
C      1  0.4922970000000  0.5810080000000  0.4655090000000 1.0
C      1  0.4775560000000  0.5350090000000  0.4624280000000 1.0
C      1  0.5036750000000  0.4987510000000  0.5109450000000 1.0
C      1  0.5234710000000  0.4676470000000  0.3998180000000 1.0
C      1  0.5279090000000  0.4381090000000  0.5828560000000 1.0
C      1  0.6048400000000  0.5407870000000  0.5231030000000 1.0
C      1  0.5206940000000  0.5172020000000  0.4588820000000 1.0
C      1  0.5514910000000  0.6012180000000  0.5052490000000 1.0
C      1  0.5712120000000  0.5080240000000  0.4227970000000 1.0
C      1  0.4292540000000  0.5667860000000  0.5630800000000 1.0
C      1  0.5568800000000  0.4400300000000  0.4340840000000 1.0
C      1  0.5956180000000  0.5649990000000  0.5048860000000 1.0
C      1  0.5143250000000  0.5464120000000  0.4008290000000 1.0
C      1  0.5749520000000  0.5071180000000  0.4535720000000 1.0
C      1  0.5658730000000  0.4117220000000  0.5539840000000 1.0
C      1  0.5854190000000  0.4309330000000  0.4823230000000 1.0
C      1  0.5288250000000  0.4501490000000  0.4245030000000 1.0
C      1  0.5127060000000  0.4115590000000  0.4809810000000 1.0
C      1  0.5753030000000  0.5818110000000  0.5173490000000 1.0
END
