TITL C-4164237-1827-655 33.3072522464231 125000 -19110.5082949657 0 0 129 (C1) n - 1
REM
REM in /home/nfs/bkarasulu/CARBON/AIRSS/Generating-Clusters/ReaxFF-fromJPCA2015/Units_Real/with-SteepDescent/Only-C1/SD-CG/Try1-3A/FIRE-CG
REM
REM
REM
REM
REM
REM ./C.cell (11c1c37f851c82e70ff6c80c92926a4b)
REM
REM compiler GCC version 9.2.1 20190827 (Red Hat 9.2.1-1)
REM options -cpp -mtune=generic -march=x86-64 -g -O0 -fpre-include=/usr/include/finclude/math-vector-fortran.h
REM seed 734898073 1437977381 1635378048 804645848 -1065082718 995401952 -289764865 -602717933 -1042286736 -1692556944 -1105394621 1138983258 642823899 2095939818 175914766 -1481770215 -617683612 -1511062727 256704970 -1927183377 1051965897 1799446181 -1902574135 397919750 1005838304 -1796177885 -1640916591 -813970211 971732188 -1435489453 -170247796 430446701 461543326
REM
CELL 1.54180   50.00000   50.00000   50.00000   90.00000   90.00000   90.00000
LATT -1
SFAC C  
C      1  0.5250420000000  0.5896820000000  0.5365180000000 1.0
C      1  0.5912140000000  0.4622400000000  0.4868200000000 1.0
C      1  0.5412930000000  0.4974700000000  0.5286370000000 1.0
C      1  0.5618810000000  0.5038230000000  0.5131960000000 1.0
C      1  0.4687150000000  0.4701230000000  0.5359120000000 1.0
C      1  0.5152740000000  0.5797540000000  0.4834900000000 1.0
C      1  0.5601950000000  0.4207670000000  0.4844890000000 1.0
C      1  0.4278170000000  0.5482380000000  0.5602650000000 1.0
C      1  0.5221600000000  0.5508010000000  0.5780920000000 1.0
C      1  0.4970280000000  0.5059250000000  0.5555980000000 1.0
C      1  0.5004030000000  0.5018250000000  0.5867630000000 1.0
C      1  0.4554990000000  0.5589940000000  0.5653020000000 1.0
C      1  0.4717830000000  0.4992760000000  0.5409370000000 1.0
C      1  0.5082050000000  0.5531530000000  0.4926220000000 1.0
C      1  0.5821680000000  0.4942670000000  0.5627030000000 1.0
C      1  0.5791370000000  0.5051870000000  0.4653950000000 1.0
C      1  0.4466290000000  0.5053860000000  0.4767380000000 1.0
C      1  0.4549840000000  0.5840970000000  0.4979380000000 1.0
C      1  0.4714210000000  0.5707050000000  0.5429050000000 1.0
C      1  0.5753410000000  0.5505920000000  0.4879310000000 1.0
C      1  0.4436620000000  0.5720800000000  0.4738860000000 1.0
C      1  0.4900270000000  0.5094800000000  0.4142860000000 1.0
C      1  0.4275760000000  0.4953740000000  0.5801340000000 1.0
C      1  0.5120550000000  0.5158760000000  0.4527280000000 1.0
C      1  0.4848170000000  0.5872860000000  0.4490350000000 1.0
C      1  0.5722490000000  0.4868770000000  0.4441080000000 1.0
C      1  0.5012570000000  0.4009330000000  0.5394250000000 1.0
C      1  0.5026280000000  0.5049600000000  0.4947530000000 1.0
C      1  0.4171340000000  0.5379940000000  0.5343820000000 1.0
C      1  0.5659010000000  0.4586860000000  0.5029400000000 1.0
C      1  0.4253870000000  0.5223100000000  0.4893640000000 1.0
C      1  0.5854670000000  0.5385700000000  0.5131820000000 1.0
C      1  0.5387500000000  0.5814440000000  0.4700230000000 1.0
C      1  0.3964810000000  0.4950490000000  0.4625980000000 1.0
C      1  0.6146370000000  0.4580980000000  0.5018250000000 1.0
C      1  0.4418440000000  0.4959400000000  0.4436410000000 1.0
C      1  0.5172230000000  0.4900920000000  0.5373120000000 1.0
C      1  0.4744690000000  0.5179660000000  0.4934170000000 1.0
C      1  0.5916440000000  0.5099080000000  0.5167110000000 1.0
C      1  0.5574700000000  0.5735820000000  0.4911730000000 1.0
C      1  0.5124240000000  0.3989380000000  0.4665020000000 1.0
C      1  0.5238560000000  0.5168270000000  0.4795290000000 1.0
C      1  0.5123320000000  0.4720320000000  0.4192110000000 1.0
C      1  0.4371730000000  0.4395850000000  0.5457130000000 1.0
C      1  0.4910330000000  0.4506530000000  0.4171600000000 1.0
C      1  0.4688430000000  0.4612950000000  0.5822900000000 1.0
C      1  0.5768340000000  0.5340660000000  0.4634600000000 1.0
C      1  0.4634650000000  0.5194210000000  0.5215990000000 1.0
C      1  0.4349210000000  0.4407530000000  0.5173130000000 1.0
C      1  0.4863870000000  0.4157220000000  0.4611270000000 1.0
C      1  0.5424140000000  0.4284370000000  0.5474300000000 1.0
C      1  0.5477340000000  0.5791830000000  0.5184200000000 1.0
C      1  0.4892410000000  0.5332930000000  0.4567110000000 1.0
C      1  0.4655600000000  0.4957240000000  0.4205560000000 1.0
C      1  0.5805810000000  0.4618230000000  0.4579100000000 1.0
C      1  0.4777040000000  0.5357160000000  0.4148230000000 1.0
C      1  0.5517340000000  0.5047710000000  0.4292530000000 1.0
C      1  0.4135050000000  0.5146700000000  0.5156070000000 1.0
C      1  0.4102970000000  0.4716880000000  0.4729290000000 1.0
C      1  0.4170480000000  0.5361870000000  0.4521040000000 1.0
C      1  0.5312080000000  0.4006290000000  0.5464600000000 1.0
C      1  0.4962360000000  0.4718840000000  0.5869300000000 1.0
C      1  0.4744620000000  0.5183080000000  0.5953920000000 1.0
C      1  0.4950920000000  0.5964200000000  0.4749350000000 1.0
C      1  0.5644550000000  0.4730470000000  0.5670420000000 1.0
C      1  0.4968910000000  0.5393530000000  0.5633730000000 1.0
C      1  0.5002560000000  0.5547540000000  0.4120230000000 1.0
C      1  0.4739130000000  0.5442100000000  0.5823150000000 1.0
C      1  0.5489030000000  0.4747260000000  0.4859230000000 1.0
C      1  0.5289610000000  0.4625150000000  0.4694270000000 1.0
C      1  0.4528670000000  0.5695500000000  0.5220070000000 1.0
C      1  0.4676890000000  0.4678150000000  0.4090860000000 1.0
C      1  0.5397170000000  0.4450790000000  0.4474470000000 1.0
C      1  0.4978680000000  0.5956390000000  0.5246670000000 1.0
C      1  0.4757260000000  0.4050980000000  0.5308030000000 1.0
C      1  0.4644070000000  0.4619430000000  0.4750070000000 1.0
C      1  0.5524540000000  0.5038830000000  0.4845520000000 1.0
C      1  0.5076160000000  0.4808460000000  0.5101780000000 1.0
C      1  0.5180590000000  0.4558230000000  0.5761320000000 1.0
C      1  0.5277480000000  0.5741540000000  0.5622330000000 1.0
C      1  0.4353040000000  0.4412640000000  0.4415870000000 1.0
C      1  0.5242600000000  0.4364430000000  0.5084940000000 1.0
C      1  0.5534590000000  0.4332710000000  0.5124860000000 1.0
C      1  0.5656350000000  0.4365930000000  0.4595730000000 1.0
C      1  0.5146260000000  0.4368130000000  0.5542270000000 1.0
C      1  0.5375980000000  0.4081490000000  0.4749860000000 1.0
C      1  0.5352680000000  0.5449090000000  0.4375610000000 1.0
C      1  0.5684760000000  0.5396650000000  0.5364930000000 1.0
C      1  0.4683050000000  0.5430330000000  0.4427270000000 1.0
C      1  0.4264480000000  0.4692680000000  0.4475790000000 1.0
C      1  0.4443080000000  0.5416980000000  0.5229940000000 1.0
C      1  0.5715050000000  0.5223710000000  0.5612720000000 1.0
C      1  0.5128760000000  0.4568540000000  0.4924670000000 1.0
C      1  0.4504460000000  0.4484960000000  0.4193830000000 1.0
C      1  0.4809060000000  0.5987110000000  0.5003970000000 1.0
C      1  0.4235840000000  0.4661130000000  0.5042860000000 1.0
C      1  0.4235300000000  0.5496540000000  0.4750390000000 1.0
C      1  0.4222950000000  0.4565380000000  0.5648770000000 1.0
C      1  0.4148080000000  0.4876830000000  0.5254820000000 1.0
C      1  0.4156730000000  0.5102420000000  0.4417310000000 1.0
C      1  0.4791390000000  0.4502680000000  0.5175930000000 1.0
C      1  0.5476740000000  0.4529450000000  0.5711510000000 1.0
C      1  0.5144460000000  0.5476670000000  0.5207390000000 1.0
C      1  0.6114110000000  0.4731240000000  0.5224710000000 1.0
C      1  0.5316390000000  0.5725460000000  0.4433030000000 1.0
C      1  0.5380450000000  0.4555840000000  0.4197500000000 1.0
C      1  0.5594810000000  0.5311140000000  0.4397820000000 1.0
C      1  0.4399560000000  0.4687460000000  0.5859750000000 1.0
C      1  0.5497920000000  0.5181460000000  0.5764790000000 1.0
C      1  0.5054020000000  0.5763460000000  0.4313070000000 1.0
C      1  0.4641950000000  0.4489410000000  0.5560780000000 1.0
C      1  0.5232670000000  0.5368920000000  0.4122030000000 1.0
C      1  0.4884750000000  0.4664590000000  0.4586650000000 1.0
C      1  0.4935940000000  0.5534870000000  0.5396120000000 1.0
C      1  0.4904110000000  0.4405560000000  0.4450070000000 1.0
C      1  0.4648960000000  0.4158310000000  0.4802090000000 1.0
C      1  0.4833760000000  0.5427120000000  0.4804140000000 1.0
C      1  0.4497020000000  0.5103200000000  0.5874500000000 1.0
C      1  0.4153130000000  0.4824920000000  0.5538030000000 1.0
C      1  0.5044830000000  0.4873420000000  0.4452330000000 1.0
C      1  0.4608290000000  0.5709920000000  0.4507180000000 1.0
C      1  0.5268880000000  0.5083380000000  0.4140220000000 1.0
C      1  0.5430070000000  0.5524300000000  0.5285260000000 1.0
C      1  0.6015770000000  0.4936800000000  0.5389310000000 1.0
C      1  0.4479080000000  0.4794800000000  0.4907800000000 1.0
C      1  0.5042560000000  0.4398010000000  0.5278670000000 1.0
C      1  0.5261840000000  0.5224350000000  0.5870630000000 1.0
C      1  0.4495330000000  0.4364700000000  0.4680140000000 1.0
C      1  0.4613320000000  0.4258170000000  0.5104580000000 1.0
END
