TITL C-4164239-2837-57 -6.7719407336315 125000 -6613.67434619463 0 0 45 (C1) n - 1
REM
REM in /home/nfs/bkarasulu/CARBON/AIRSS/Generating-Clusters/ReaxFF-fromJPCA2015/Units_Real/with-SteepDescent/Only-C1/SD-CG/Try1-3A/FIRE-CG
REM
REM
REM
REM
REM
REM ./C.cell (11c1c37f851c82e70ff6c80c92926a4b)
REM
REM compiler GCC version 9.2.1 20190827 (Red Hat 9.2.1-1)
REM options -cpp -mtune=generic -march=x86-64 -g -O0 -fpre-include=/usr/include/finclude/math-vector-fortran.h
REM seed -1611547797 1069290977 1628426354 -1483230518 -776147417 -286319748 -103640272 34300164 1582078602 -1794957705 389701168 -1018898443 -119509016 1652883232 -1525772529 2137198054 1960825048 1890280982 1556136177 -97922165 356258154 -1016870783 -1765063299 -698640798 -520291557 -962892389 2090832935 1017274142 -2083977866 -52339016 1931626340 -1166865627 -1502837738
REM
CELL 1.54180   50.00000   50.00000   50.00000   90.00000   90.00000   90.00000
LATT -1
SFAC C  
C      1  0.5420260000000  0.4378000000000  0.5113070000000 1.0
C      1  0.4759080000000  0.5109860000000  0.5425300000000 1.0
C      1  0.4585970000000  0.5355500000000  0.4624840000000 1.0
C      1  0.5136790000000  0.5049800000000  0.5728150000000 1.0
C      1  0.5500550000000  0.4819530000000  0.4483520000000 1.0
C      1  0.5063170000000  0.4504120000000  0.5300810000000 1.0
C      1  0.5052400000000  0.5512910000000  0.5130420000000 1.0
C      1  0.4638850000000  0.5102680000000  0.4474950000000 1.0
C      1  0.5330890000000  0.4517760000000  0.5367400000000 1.0
C      1  0.5358370000000  0.4462530000000  0.4834000000000 1.0
C      1  0.4747290000000  0.4827480000000  0.4477670000000 1.0
C      1  0.4764150000000  0.5570460000000  0.5073930000000 1.0
C      1  0.5594620000000  0.4926700000000  0.5234770000000 1.0
C      1  0.5222400000000  0.5474700000000  0.4891830000000 1.0
C      1  0.4920680000000  0.4978790000000  0.4933110000000 1.0
C      1  0.4385280000000  0.5009000000000  0.5247890000000 1.0
C      1  0.5406780000000  0.5257280000000  0.5394710000000 1.0
C      1  0.5016790000000  0.4768540000000  0.4370770000000 1.0
C      1  0.4683740000000  0.4638180000000  0.4697730000000 1.0
C      1  0.4890660000000  0.5714090000000  0.4618910000000 1.0
C      1  0.5219910000000  0.4991210000000  0.4781450000000 1.0
C      1  0.4647850000000  0.4851310000000  0.4893540000000 1.0
C      1  0.5155790000000  0.5593360000000  0.4628900000000 1.0
C      1  0.5535720000000  0.5183280000000  0.5132120000000 1.0
C      1  0.4566560000000  0.5428600000000  0.5211220000000 1.0
C      1  0.4722930000000  0.4808250000000  0.5529510000000 1.0
C      1  0.5095930000000  0.4383450000000  0.4696560000000 1.0
C      1  0.5397280000000  0.5028390000000  0.5580860000000 1.0
C      1  0.4980210000000  0.5250020000000  0.5574680000000 1.0
C      1  0.5227390000000  0.4953390000000  0.4475550000000 1.0
C      1  0.4935510000000  0.4854470000000  0.5697370000000 1.0
C      1  0.4739060000000  0.5356360000000  0.4372050000000 1.0
C      1  0.5146870000000  0.5397700000000  0.5380460000000 1.0
C      1  0.4690550000000  0.5577210000000  0.4784190000000 1.0
C      1  0.4403440000000  0.5259510000000  0.5314560000000 1.0
C      1  0.5432800000000  0.4741550000000  0.4765460000000 1.0
C      1  0.5487060000000  0.4780340000000  0.5444420000000 1.0
C      1  0.4877220000000  0.5060720000000  0.5167680000000 1.0
C      1  0.4973360000000  0.5530800000000  0.4405240000000 1.0
C      1  0.5078500000000  0.4478960000000  0.4413860000000 1.0
C      1  0.4843460000000  0.4458450000000  0.5145240000000 1.0
C      1  0.5372900000000  0.5225480000000  0.4889210000000 1.0
C      1  0.4482100000000  0.4771020000000  0.5137890000000 1.0
C      1  0.4657210000000  0.4612430000000  0.5315610000000 1.0
C      1  0.4851690000000  0.4445830000000  0.4838580000000 1.0
END
