TITL C-4164235-1454-84 20.3113065388407 125000 -27993.7299332172 0 0 188 (C1) n - 1
REM
REM in /home/nfs/bkarasulu/CARBON/AIRSS/Generating-Clusters/ReaxFF-fromJPCA2015/Units_Real/with-SteepDescent/Only-C1/SD-CG/Try1-3A/FIRE-CG
REM
REM
REM
REM
REM
REM ./C.cell (11c1c37f851c82e70ff6c80c92926a4b)
REM
REM compiler GCC version 9.2.1 20190827 (Red Hat 9.2.1-1)
REM options -cpp -mtune=generic -march=x86-64 -g -O0 -fpre-include=/usr/include/finclude/math-vector-fortran.h
REM seed -1087901015 1455056779 -58993208 -847866837 1138044566 848811575 1399390663 -796222113 -1789653934 -422463114 -1566572358 1543872986 1180723306 -1942234534 1211715397 1706631292 -1650753782 -212582617 848960454 276692151 -764246381 1825425874 -1617228464 396181894 932723856 -1277265673 -887632995 2082642468 1146642552 -595034127 1903350595 2008690246 -1273732511
REM
CELL 1.54180   50.00000   50.00000   50.00000   90.00000   90.00000   90.00000
LATT -1
SFAC C  
C      1  0.6129490000000  0.4953010000000  0.5000750000000 1.0
C      1  0.5245130000000  0.4829290000000  0.5775660000000 1.0
C      1  0.5965460000000  0.5216360000000  0.4577210000000 1.0
C      1  0.5400890000000  0.5198360000000  0.5465030000000 1.0
C      1  0.4729300000000  0.5797670000000  0.5921470000000 1.0
C      1  0.4065630000000  0.5589210000000  0.5058050000000 1.0
C      1  0.5578950000000  0.4611780000000  0.5000430000000 1.0
C      1  0.5812810000000  0.4511620000000  0.4321150000000 1.0
C      1  0.4401900000000  0.5134410000000  0.5904020000000 1.0
C      1  0.5436030000000  0.5696250000000  0.4221730000000 1.0
C      1  0.6075700000000  0.5176540000000  0.4842440000000 1.0
C      1  0.4722170000000  0.4524210000000  0.4844770000000 1.0
C      1  0.5646060000000  0.4554090000000  0.4082700000000 1.0
C      1  0.4436770000000  0.4982850000000  0.3999620000000 1.0
C      1  0.5023840000000  0.5948660000000  0.5333230000000 1.0
C      1  0.4912390000000  0.3722130000000  0.5188210000000 1.0
C      1  0.5024380000000  0.3760660000000  0.5388600000000 1.0
C      1  0.4797330000000  0.4784910000000  0.5957650000000 1.0
C      1  0.4602900000000  0.4410890000000  0.5904850000000 1.0
C      1  0.4475430000000  0.5390090000000  0.5823540000000 1.0
C      1  0.5880000000000  0.4548630000000  0.4895340000000 1.0
C      1  0.5983830000000  0.5189470000000  0.5351060000000 1.0
C      1  0.4531120000000  0.3988010000000  0.5132580000000 1.0
C      1  0.5115420000000  0.4783110000000  0.4945440000000 1.0
C      1  0.4375990000000  0.4580450000000  0.4106830000000 1.0
C      1  0.4191280000000  0.4712490000000  0.5685840000000 1.0
C      1  0.5918290000000  0.4725930000000  0.5563090000000 1.0
C      1  0.4579730000000  0.4727010000000  0.5408780000000 1.0
C      1  0.4799350000000  0.4211290000000  0.4197000000000 1.0
C      1  0.4709260000000  0.3799570000000  0.5003260000000 1.0
C      1  0.3970100000000  0.5476250000000  0.5580830000000 1.0
C      1  0.4205190000000  0.5298560000000  0.4353450000000 1.0
C      1  0.4118700000000  0.4534820000000  0.4438960000000 1.0
C      1  0.4009810000000  0.5184640000000  0.5588300000000 1.0
C      1  0.5055640000000  0.4659430000000  0.5625920000000 1.0
C      1  0.5384960000000  0.4410850000000  0.4554240000000 1.0
C      1  0.5080730000000  0.5381110000000  0.4097970000000 1.0
C      1  0.4954180000000  0.5668860000000  0.6039550000000 1.0
C      1  0.4415810000000  0.4525300000000  0.5272710000000 1.0
C      1  0.4709810000000  0.6103170000000  0.4954490000000 1.0
C      1  0.4868280000000  0.5679400000000  0.5265010000000 1.0
C      1  0.4193180000000  0.4989870000000  0.5744910000000 1.0
C      1  0.4917830000000  0.6096630000000  0.4733680000000 1.0
C      1  0.3975800000000  0.5128600000000  0.4824950000000 1.0
C      1  0.4671470000000  0.5168590000000  0.3990980000000 1.0
C      1  0.5865530000000  0.5509510000000  0.5788000000000 1.0
C      1  0.5741880000000  0.5032370000000  0.4524560000000 1.0
C      1  0.5256720000000  0.6006900000000  0.5094350000000 1.0
C      1  0.5830380000000  0.5438410000000  0.4445510000000 1.0
C      1  0.4575230000000  0.5703550000000  0.5435730000000 1.0
C      1  0.6073430000000  0.4691840000000  0.5062290000000 1.0
C      1  0.4793740000000  0.5108850000000  0.4740700000000 1.0
C      1  0.5206180000000  0.5001900000000  0.5380940000000 1.0
C      1  0.4964910000000  0.4615060000000  0.5169510000000 1.0
C      1  0.5403510000000  0.5717790000000  0.5631330000000 1.0
C      1  0.5045070000000  0.4376140000000  0.5721810000000 1.0
C      1  0.4730030000000  0.5099050000000  0.4274140000000 1.0
C      1  0.5032630000000  0.4113380000000  0.4331760000000 1.0
C      1  0.5303090000000  0.4655650000000  0.5979210000000 1.0
C      1  0.5295640000000  0.4121400000000  0.4210880000000 1.0
C      1  0.5564600000000  0.5299320000000  0.5187270000000 1.0
C      1  0.5357960000000  0.4636770000000  0.4066960000000 1.0
C      1  0.5920630000000  0.4529310000000  0.4568300000000 1.0
C      1  0.5431770000000  0.5034820000000  0.5717810000000 1.0
C      1  0.5391040000000  0.4872490000000  0.4307180000000 1.0
C      1  0.4883030000000  0.4370560000000  0.5972010000000 1.0
C      1  0.4292030000000  0.4717410000000  0.4878910000000 1.0
C      1  0.4549570000000  0.5643890000000  0.5744380000000 1.0
C      1  0.4786270000000  0.4791390000000  0.5637880000000 1.0
C      1  0.5123700000000  0.4173830000000  0.5523790000000 1.0
C      1  0.4026470000000  0.4664810000000  0.5451730000000 1.0
C      1  0.4373000000000  0.4451510000000  0.5749840000000 1.0
C      1  0.5595960000000  0.5904280000000  0.5455190000000 1.0
C      1  0.4018280000000  0.4400930000000  0.4711990000000 1.0
C      1  0.4261530000000  0.5762980000000  0.4558600000000 1.0
C      1  0.5827770000000  0.5734220000000  0.4887160000000 1.0
C      1  0.4954160000000  0.5061770000000  0.5549370000000 1.0
C      1  0.5065960000000  0.5474920000000  0.5305040000000 1.0
C      1  0.5929360000000  0.5026220000000  0.5586070000000 1.0
C      1  0.4731520000000  0.4507610000000  0.4558250000000 1.0
C      1  0.4319780000000  0.6032550000000  0.4457820000000 1.0
C      1  0.4784130000000  0.5129360000000  0.5317140000000 1.0
C      1  0.5319500000000  0.5713680000000  0.4966900000000 1.0
C      1  0.4985380000000  0.5372090000000  0.5982910000000 1.0
C      1  0.4443970000000  0.4237360000000  0.5564960000000 1.0
C      1  0.3972430000000  0.5312750000000  0.5047820000000 1.0
C      1  0.4030770000000  0.4815570000000  0.4956890000000 1.0
C      1  0.4520770000000  0.5974060000000  0.5303360000000 1.0
C      1  0.5124740000000  0.4274610000000  0.4566700000000 1.0
C      1  0.6057640000000  0.5471040000000  0.5327030000000 1.0
C      1  0.4593810000000  0.5941860000000  0.4340360000000 1.0
C      1  0.4794120000000  0.5187600000000  0.6079930000000 1.0
C      1  0.4197050000000  0.4818040000000  0.4427980000000 1.0
C      1  0.3933780000000  0.5146100000000  0.5302900000000 1.0
C      1  0.5453900000000  0.4017740000000  0.4439910000000 1.0
C      1  0.5851750000000  0.5690720000000  0.4592320000000 1.0
C      1  0.4884110000000  0.5313550000000  0.4914500000000 1.0
C      1  0.5270630000000  0.5078690000000  0.4507470000000 1.0
C      1  0.4541520000000  0.4710000000000  0.3927130000000 1.0
C      1  0.5497130000000  0.4007260000000  0.4943610000000 1.0
C      1  0.4613360000000  0.4982630000000  0.6081580000000 1.0
C      1  0.5902620000000  0.5106490000000  0.5069160000000 1.0
C      1  0.4120890000000  0.4481440000000  0.5243890000000 1.0
C      1  0.4454030000000  0.5965050000000  0.5017830000000 1.0
C      1  0.5443920000000  0.5512020000000  0.5078350000000 1.0
C      1  0.4452450000000  0.4503410000000  0.4972670000000 1.0
C      1  0.4814740000000  0.5596790000000  0.4951620000000 1.0
C      1  0.5218440000000  0.5436890000000  0.5537650000000 1.0
C      1  0.5414130000000  0.6002610000000  0.4616840000000 1.0
C      1  0.5633950000000  0.5052560000000  0.4257790000000 1.0
C      1  0.4102150000000  0.4146020000000  0.4816920000000 1.0
C      1  0.5718630000000  0.4266060000000  0.5520930000000 1.0
C      1  0.5037350000000  0.5297510000000  0.5708800000000 1.0
C      1  0.5007500000000  0.5893430000000  0.5855960000000 1.0
C      1  0.4491990000000  0.5500620000000  0.4888310000000 1.0
C      1  0.4932420000000  0.4394150000000  0.4014320000000 1.0
C      1  0.4078600000000  0.5213430000000  0.4590910000000 1.0
C      1  0.4845760000000  0.6015050000000  0.4466460000000 1.0
C      1  0.5406180000000  0.5467170000000  0.4097910000000 1.0
C      1  0.5025120000000  0.4621460000000  0.6061470000000 1.0
C      1  0.4285880000000  0.5736580000000  0.4882290000000 1.0
C      1  0.4087030000000  0.5634560000000  0.5345370000000 1.0
C      1  0.3966100000000  0.4513430000000  0.4985500000000 1.0
C      1  0.4721190000000  0.5272010000000  0.4501330000000 1.0
C      1  0.5001390000000  0.4352590000000  0.5272650000000 1.0
C      1  0.5501640000000  0.6097260000000  0.5261580000000 1.0
C      1  0.4893540000000  0.5617620000000  0.4151050000000 1.0
C      1  0.5892460000000  0.4269250000000  0.5011820000000 1.0
C      1  0.5337230000000  0.5916620000000  0.4346730000000 1.0
C      1  0.4610650000000  0.5669950000000  0.4215610000000 1.0
C      1  0.4571860000000  0.4082550000000  0.4659990000000 1.0
C      1  0.5383560000000  0.4711720000000  0.4832110000000 1.0
C      1  0.5561910000000  0.5240560000000  0.5885700000000 1.0
C      1  0.5626520000000  0.4230780000000  0.4549900000000 1.0
C      1  0.5486910000000  0.4515690000000  0.5782800000000 1.0
C      1  0.5728250000000  0.4127350000000  0.4824150000000 1.0
C      1  0.5225660000000  0.4378650000000  0.4070800000000 1.0
C      1  0.5073010000000  0.5648660000000  0.4801390000000 1.0
C      1  0.4253900000000  0.5028300000000  0.4227200000000 1.0
C      1  0.5684560000000  0.5912040000000  0.4695770000000 1.0
C      1  0.4931320000000  0.4362310000000  0.4998040000000 1.0
C      1  0.5497870000000  0.5090120000000  0.4695250000000 1.0
C      1  0.5575400000000  0.5531490000000  0.5818570000000 1.0
C      1  0.5846000000000  0.5210120000000  0.5807500000000 1.0
C      1  0.4363180000000  0.5535570000000  0.5340870000000 1.0
C      1  0.4412690000000  0.4154230000000  0.4902380000000 1.0
C      1  0.5883530000000  0.5845820000000  0.5397810000000 1.0
C      1  0.4493100000000  0.5095350000000  0.5241670000000 1.0
C      1  0.4413920000000  0.5346730000000  0.5129540000000 1.0
C      1  0.5332630000000  0.3941910000000  0.4705510000000 1.0
C      1  0.4364450000000  0.4844530000000  0.4661080000000 1.0
C      1  0.4955060000000  0.5148130000000  0.3933820000000 1.0
C      1  0.5203880000000  0.6091810000000  0.4804920000000 1.0
C      1  0.4313830000000  0.4387750000000  0.4288090000000 1.0
C      1  0.6017470000000  0.4588410000000  0.5327410000000 1.0
C      1  0.4601700000000  0.4057650000000  0.5408520000000 1.0
C      1  0.5087140000000  0.5559170000000  0.4526140000000 1.0
C      1  0.5034390000000  0.5821610000000  0.4325340000000 1.0
C      1  0.5436990000000  0.4168830000000  0.5189060000000 1.0
C      1  0.5134110000000  0.5311100000000  0.4405930000000 1.0
C      1  0.5421980000000  0.4694390000000  0.4548000000000 1.0
C      1  0.5465790000000  0.4479920000000  0.5237650000000 1.0
C      1  0.5217990000000  0.5023620000000  0.5091550000000 1.0
C      1  0.4596230000000  0.4274550000000  0.4415370000000 1.0
C      1  0.4676440000000  0.4884920000000  0.5211980000000 1.0
C      1  0.4915580000000  0.4881540000000  0.4255980000000 1.0
C      1  0.4490410000000  0.5071890000000  0.4770270000000 1.0
C      1  0.5503630000000  0.5091310000000  0.4984730000000 1.0
C      1  0.4835090000000  0.4647400000000  0.3916600000000 1.0
C      1  0.5414930000000  0.4591560000000  0.5509750000000 1.0
C      1  0.4907930000000  0.4828490000000  0.4738940000000 1.0
C      1  0.4777530000000  0.6103930000000  0.5245060000000 1.0
C      1  0.4912740000000  0.4702510000000  0.4479110000000 1.0
C      1  0.5642890000000  0.5340820000000  0.4217550000000 1.0
C      1  0.3955410000000  0.4870320000000  0.5250730000000 1.0
C      1  0.6013170000000  0.5639170000000  0.5563730000000 1.0
C      1  0.4475280000000  0.5325730000000  0.4642490000000 1.0
C      1  0.5065610000000  0.4061130000000  0.4759600000000 1.0
C      1  0.5460590000000  0.4129330000000  0.5469930000000 1.0
C      1  0.5953540000000  0.5699100000000  0.5150370000000 1.0
C      1  0.5030140000000  0.4860980000000  0.3983880000000 1.0
C      1  0.5157300000000  0.5886170000000  0.5609570000000 1.0
C      1  0.4892710000000  0.3972640000000  0.5509100000000 1.0
C      1  0.5905390000000  0.4315370000000  0.5300760000000 1.0
C      1  0.5773510000000  0.4500100000000  0.5698570000000 1.0
C      1  0.4363450000000  0.5577720000000  0.4349530000000 1.0
C      1  0.4792400000000  0.3927970000000  0.4747220000000 1.0
C      1  0.4998330000000  0.5253270000000  0.5139030000000 1.0
END
