TITL C-4164244-2836-155 50.1866985275777 125000 -19319.5555428363 0 0 131 (C1) n - 1
REM
REM in /home/nfs/bkarasulu/CARBON/AIRSS/Generating-Clusters/ReaxFF-fromJPCA2015/Units_Real/with-SteepDescent/Only-C1/SD-CG/Try1-3A/FIRE-CG
REM
REM
REM
REM
REM
REM ./C.cell (11c1c37f851c82e70ff6c80c92926a4b)
REM
REM compiler GCC version 9.2.1 20190827 (Red Hat 9.2.1-1)
REM options -cpp -mtune=generic -march=x86-64 -g -O0 -fpre-include=/usr/include/finclude/math-vector-fortran.h
REM seed 268713460 -1885682130 -1445334928 11048103 -1681442649 -847784046 -51753046 -490621093 -1100034362 -124286473 654766531 2000975772 743862664 1139971542 1255815369 1001589289 517855863 -1346380471 -1369945448 1290216249 774166264 1289808323 -1648100958 -1621945718 798245582 -1752045847 -2036501677 -1984313364 -233216650 -512976495 1667243499 615062894 -1644744443
REM
CELL 1.54180   50.00000   50.00000   50.00000   90.00000   90.00000   90.00000
LATT -1
SFAC C  
C      1  0.4432930000000  0.4627520000000  0.5572070000000 1.0
C      1  0.5861660000000  0.4665720000000  0.5428760000000 1.0
C      1  0.5374920000000  0.4471150000000  0.5654850000000 1.0
C      1  0.5352360000000  0.4033080000000  0.4775270000000 1.0
C      1  0.5801710000000  0.4691930000000  0.4387540000000 1.0
C      1  0.4943180000000  0.5262600000000  0.4589070000000 1.0
C      1  0.4748070000000  0.5395720000000  0.5025660000000 1.0
C      1  0.4660680000000  0.5306900000000  0.5813670000000 1.0
C      1  0.5776920000000  0.4576470000000  0.5178760000000 1.0
C      1  0.4735740000000  0.5065220000000  0.4520560000000 1.0
C      1  0.5348040000000  0.4933480000000  0.4696230000000 1.0
C      1  0.4971860000000  0.5793460000000  0.4478110000000 1.0
C      1  0.5574730000000  0.4158710000000  0.4920920000000 1.0
C      1  0.6077720000000  0.5248720000000  0.5133610000000 1.0
C      1  0.5405350000000  0.4654200000000  0.4664280000000 1.0
C      1  0.5053130000000  0.4616860000000  0.4296750000000 1.0
C      1  0.5300270000000  0.5122190000000  0.5353800000000 1.0
C      1  0.4433160000000  0.5084760000000  0.5816000000000 1.0
C      1  0.4809180000000  0.4937850000000  0.5762540000000 1.0
C      1  0.4205840000000  0.5333880000000  0.4774700000000 1.0
C      1  0.4353170000000  0.5586110000000  0.5513620000000 1.0
C      1  0.4036440000000  0.4998350000000  0.5155050000000 1.0
C      1  0.4390160000000  0.4338930000000  0.5225780000000 1.0
C      1  0.5675800000000  0.4923280000000  0.4791610000000 1.0
C      1  0.4444020000000  0.5726940000000  0.4998440000000 1.0
C      1  0.5126740000000  0.4559260000000  0.5792380000000 1.0
C      1  0.5229000000000  0.5178720000000  0.4607810000000 1.0
C      1  0.5176820000000  0.5145740000000  0.5852090000000 1.0
C      1  0.4504410000000  0.4079130000000  0.4777670000000 1.0
C      1  0.5852440000000  0.4926520000000  0.5537810000000 1.0
C      1  0.5452240000000  0.4747990000000  0.5572450000000 1.0
C      1  0.5471110000000  0.5225330000000  0.4050920000000 1.0
C      1  0.4844520000000  0.5529950000000  0.4388050000000 1.0
C      1  0.5355370000000  0.5338840000000  0.4807700000000 1.0
C      1  0.4670840000000  0.5886920000000  0.5101780000000 1.0
C      1  0.4540150000000  0.5535990000000  0.4491600000000 1.0
C      1  0.5096670000000  0.4874900000000  0.4846840000000 1.0
C      1  0.5179870000000  0.6012890000000  0.5153260000000 1.0
C      1  0.4826710000000  0.5761120000000  0.5325470000000 1.0
C      1  0.4956740000000  0.5338280000000  0.5830820000000 1.0
C      1  0.5143980000000  0.6039310000000  0.4873460000000 1.0
C      1  0.4971950000000  0.5366520000000  0.4167110000000 1.0
C      1  0.5449790000000  0.4290660000000  0.5430880000000 1.0
C      1  0.4280570000000  0.5662350000000  0.5237040000000 1.0
C      1  0.5786410000000  0.4838510000000  0.5046580000000 1.0
C      1  0.4934320000000  0.4033640000000  0.4546540000000 1.0
C      1  0.5606420000000  0.4962820000000  0.5701700000000 1.0
C      1  0.5453680000000  0.5568390000000  0.4289680000000 1.0
C      1  0.4797830000000  0.5739200000000  0.5617870000000 1.0
C      1  0.4672680000000  0.4650590000000  0.4123390000000 1.0
C      1  0.5499270000000  0.4073570000000  0.4521760000000 1.0
C      1  0.5685520000000  0.5472740000000  0.5457560000000 1.0
C      1  0.5530700000000  0.4379200000000  0.5124760000000 1.0
C      1  0.4755400000000  0.4222550000000  0.5657250000000 1.0
C      1  0.5602600000000  0.5330250000000  0.4969840000000 1.0
C      1  0.4048940000000  0.4678320000000  0.5425010000000 1.0
C      1  0.5214260000000  0.5884750000000  0.4615020000000 1.0
C      1  0.4815730000000  0.4449890000000  0.4295620000000 1.0
C      1  0.5850770000000  0.5056090000000  0.5260050000000 1.0
C      1  0.6005540000000  0.5384720000000  0.4901010000000 1.0
C      1  0.4254350000000  0.4219100000000  0.4708410000000 1.0
C      1  0.4913790000000  0.5506780000000  0.5225700000000 1.0
C      1  0.4454320000000  0.4813550000000  0.4224970000000 1.0
C      1  0.5380880000000  0.5671120000000  0.5081100000000 1.0
C      1  0.4352090000000  0.4739610000000  0.4482220000000 1.0
C      1  0.4326220000000  0.4144360000000  0.4986900000000 1.0
C      1  0.4265900000000  0.4482300000000  0.4570120000000 1.0
C      1  0.4195960000000  0.5098020000000  0.5663360000000 1.0
C      1  0.5093490000000  0.4865030000000  0.5749630000000 1.0
C      1  0.4702980000000  0.4700780000000  0.5895780000000 1.0
C      1  0.5065370000000  0.4007770000000  0.4780820000000 1.0
C      1  0.5034870000000  0.5057560000000  0.5050110000000 1.0
C      1  0.5828900000000  0.4954650000000  0.4545480000000 1.0
C      1  0.4029730000000  0.5264170000000  0.5021170000000 1.0
C      1  0.4933450000000  0.4629530000000  0.5313370000000 1.0
C      1  0.5714600000000  0.4210110000000  0.4667210000000 1.0
C      1  0.5823590000000  0.5236900000000  0.4453900000000 1.0
C      1  0.4214000000000  0.4456300000000  0.5461580000000 1.0
C      1  0.5073550000000  0.4588670000000  0.4890650000000 1.0
C      1  0.5190560000000  0.5531840000000  0.4917260000000 1.0
C      1  0.4697380000000  0.5001620000000  0.5492450000000 1.0
C      1  0.4571610000000  0.5190840000000  0.5071060000000 1.0
C      1  0.5281010000000  0.5675950000000  0.5591930000000 1.0
C      1  0.4126860000000  0.5292380000000  0.4470460000000 1.0
C      1  0.5493360000000  0.4922680000000  0.3982140000000 1.0
C      1  0.5692890000000  0.5682630000000  0.4685200000000 1.0
C      1  0.5034940000000  0.5608540000000  0.5725540000000 1.0
C      1  0.5458350000000  0.5749040000000  0.4520630000000 1.0
C      1  0.5655460000000  0.5352030000000  0.4243000000000 1.0
C      1  0.5584540000000  0.5243760000000  0.5258300000000 1.0
C      1  0.5470440000000  0.4310890000000  0.4347150000000 1.0
C      1  0.4743220000000  0.4219340000000  0.4463580000000 1.0
C      1  0.5706640000000  0.4423430000000  0.4467380000000 1.0
C      1  0.4578750000000  0.5091630000000  0.4262630000000 1.0
C      1  0.5260390000000  0.4099760000000  0.5506160000000 1.0
C      1  0.5449910000000  0.5196860000000  0.5789130000000 1.0
C      1  0.4822900000000  0.4565510000000  0.5023360000000 1.0
C      1  0.4381290000000  0.5347270000000  0.4345610000000 1.0
C      1  0.4429170000000  0.4790200000000  0.5828170000000 1.0
C      1  0.5002740000000  0.4347020000000  0.5320970000000 1.0
C      1  0.5661140000000  0.5620360000000  0.4969750000000 1.0
C      1  0.4912000000000  0.5506220000000  0.4814820000000 1.0
C      1  0.4555710000000  0.4904520000000  0.4680200000000 1.0
C      1  0.4617420000000  0.4699070000000  0.4888660000000 1.0
C      1  0.4663050000000  0.4724340000000  0.5418310000000 1.0
C      1  0.4810830000000  0.5803750000000  0.4715320000000 1.0
C      1  0.4575190000000  0.4243470000000  0.5444420000000 1.0
C      1  0.5493590000000  0.5481740000000  0.5669940000000 1.0
C      1  0.4418270000000  0.4635230000000  0.5067310000000 1.0
C      1  0.5880530000000  0.5456160000000  0.4646140000000 1.0
C      1  0.4813030000000  0.4183300000000  0.4756500000000 1.0
C      1  0.4027300000000  0.4953410000000  0.5458320000000 1.0
C      1  0.5312610000000  0.4541720000000  0.4411890000000 1.0
C      1  0.4577060000000  0.5565220000000  0.5695000000000 1.0
C      1  0.4286220000000  0.5310880000000  0.5456000000000 1.0
C      1  0.4404620000000  0.5569830000000  0.4748840000000 1.0
C      1  0.5043220000000  0.5237650000000  0.5262430000000 1.0
C      1  0.4861720000000  0.4460920000000  0.5824430000000 1.0
C      1  0.4084240000000  0.5451960000000  0.5225880000000 1.0
C      1  0.4852660000000  0.5106850000000  0.4113970000000 1.0
C      1  0.4247540000000  0.4855130000000  0.5018480000000 1.0
C      1  0.4399330000000  0.5069300000000  0.4874720000000 1.0
C      1  0.4918090000000  0.4819370000000  0.4113950000000 1.0
C      1  0.4975380000000  0.4101060000000  0.5467150000000 1.0
C      1  0.5218860000000  0.4854340000000  0.5434350000000 1.0
C      1  0.5256790000000  0.5418800000000  0.4118400000000 1.0
C      1  0.4529480000000  0.5182100000000  0.5351810000000 1.0
C      1  0.5306620000000  0.5826760000000  0.5327430000000 1.0
C      1  0.5347610000000  0.4528430000000  0.4923770000000 1.0
C      1  0.4848260000000  0.6024650000000  0.4905580000000 1.0
C      1  0.5654130000000  0.4794290000000  0.4185210000000 1.0
END
