TITL C-4164241-3639-721 9.58376636833852 125000 -15722.2010168281 0 0 106 (C1) n - 1
REM
REM in /home/nfs/bkarasulu/CARBON/AIRSS/Generating-Clusters/ReaxFF-fromJPCA2015/Units_Real/with-SteepDescent/Only-C1/SD-CG/Try1-3A/FIRE-CG
REM
REM
REM
REM
REM
REM ./C.cell (11c1c37f851c82e70ff6c80c92926a4b)
REM
REM compiler GCC version 9.2.1 20190827 (Red Hat 9.2.1-1)
REM options -cpp -mtune=generic -march=x86-64 -g -O0 -fpre-include=/usr/include/finclude/math-vector-fortran.h
REM seed -1560602061 11727456 -735825628 -387121099 286488078 -1180080900 -2051815859 1849125840 1079155849 2124846372 1020340644 -700057084 -1013682537 1912511561 1485574162 -1718351121 -867740291 -510566388 -1498508571 -1975741443 -944148412 712300336 427527366 -1619591044 2023395053 1977093842 93554001 -1539691071 2013770030 166725814 -1346091713 1968509278 675455175
REM
CELL 1.54180   50.00000   50.00000   50.00000   90.00000   90.00000   90.00000
LATT -1
SFAC C  
C      1  0.4912130000000  0.5297300000000  0.5786640000000 1.0
C      1  0.4475020000000  0.5091970000000  0.4084840000000 1.0
C      1  0.4189620000000  0.4662440000000  0.4868750000000 1.0
C      1  0.4526740000000  0.4772910000000  0.5846790000000 1.0
C      1  0.4771730000000  0.5811450000000  0.5419130000000 1.0
C      1  0.5536790000000  0.5161950000000  0.5773260000000 1.0
C      1  0.4563500000000  0.4094660000000  0.5261220000000 1.0
C      1  0.5137290000000  0.4432510000000  0.4171750000000 1.0
C      1  0.5419390000000  0.4481700000000  0.5513970000000 1.0
C      1  0.4771330000000  0.4646340000000  0.5104250000000 1.0
C      1  0.5466320000000  0.4889020000000  0.5768820000000 1.0
C      1  0.4932970000000  0.4385450000000  0.5532960000000 1.0
C      1  0.5134380000000  0.4088880000000  0.5117190000000 1.0
C      1  0.5378160000000  0.4931520000000  0.4510620000000 1.0
C      1  0.5317900000000  0.4639230000000  0.4139740000000 1.0
C      1  0.4910130000000  0.4404590000000  0.4655680000000 1.0
C      1  0.5024260000000  0.5571360000000  0.5758540000000 1.0
C      1  0.5352620000000  0.5788620000000  0.5025230000000 1.0
C      1  0.4660620000000  0.4330250000000  0.5634220000000 1.0
C      1  0.4306600000000  0.5719530000000  0.5134110000000 1.0
C      1  0.5472380000000  0.5400080000000  0.5578190000000 1.0
C      1  0.4388720000000  0.5021260000000  0.5864340000000 1.0
C      1  0.4843460000000  0.5315800000000  0.4897640000000 1.0
C      1  0.4308440000000  0.5265810000000  0.4547270000000 1.0
C      1  0.4525230000000  0.4823960000000  0.4143190000000 1.0
C      1  0.4998300000000  0.5444270000000  0.5304360000000 1.0
C      1  0.5678480000000  0.5408460000000  0.4506880000000 1.0
C      1  0.4500020000000  0.4398890000000  0.4471910000000 1.0
C      1  0.4212180000000  0.4984930000000  0.5266330000000 1.0
C      1  0.4322160000000  0.5174340000000  0.4836110000000 1.0
C      1  0.4645200000000  0.5394980000000  0.5710300000000 1.0
C      1  0.5664630000000  0.5460890000000  0.5346850000000 1.0
C      1  0.4205480000000  0.4948470000000  0.4973530000000 1.0
C      1  0.4248940000000  0.5238850000000  0.5408680000000 1.0
C      1  0.5735390000000  0.4901440000000  0.4304210000000 1.0
C      1  0.5872040000000  0.4957410000000  0.5206980000000 1.0
C      1  0.5202260000000  0.4879290000000  0.4010980000000 1.0
C      1  0.5083320000000  0.5773270000000  0.4569580000000 1.0
C      1  0.5309330000000  0.4935570000000  0.4790980000000 1.0
C      1  0.4356580000000  0.4756180000000  0.5379450000000 1.0
C      1  0.5760240000000  0.5228640000000  0.5212130000000 1.0
C      1  0.4509780000000  0.5462230000000  0.4410950000000 1.0
C      1  0.5399360000000  0.4198640000000  0.5045410000000 1.0
C      1  0.4748770000000  0.5293620000000  0.5161970000000 1.0
C      1  0.4650580000000  0.5337770000000  0.4181240000000 1.0
C      1  0.5601710000000  0.4690950000000  0.5581520000000 1.0
C      1  0.4754350000000  0.4233990000000  0.4462450000000 1.0
C      1  0.4394480000000  0.5254800000000  0.5660130000000 1.0
C      1  0.4953370000000  0.4282500000000  0.4263070000000 1.0
C      1  0.4760570000000  0.4872100000000  0.4661940000000 1.0
C      1  0.4618340000000  0.4595060000000  0.4275150000000 1.0
C      1  0.5170160000000  0.4791740000000  0.5796650000000 1.0
C      1  0.5791730000000  0.4722850000000  0.5361920000000 1.0
C      1  0.4888760000000  0.5885940000000  0.4732140000000 1.0
C      1  0.5338340000000  0.5775820000000  0.4735300000000 1.0
C      1  0.5696500000000  0.5554300000000  0.4897030000000 1.0
C      1  0.4711900000000  0.5997170000000  0.4926620000000 1.0
C      1  0.5107000000000  0.5398290000000  0.4914330000000 1.0
C      1  0.4727190000000  0.4023220000000  0.5111780000000 1.0
C      1  0.4253510000000  0.5453700000000  0.5200760000000 1.0
C      1  0.4908270000000  0.4200830000000  0.4996600000000 1.0
C      1  0.5350120000000  0.5828940000000  0.5430330000000 1.0
C      1  0.4760390000000  0.5677150000000  0.5667960000000 1.0
C      1  0.4945070000000  0.5389210000000  0.4143390000000 1.0
C      1  0.5198430000000  0.4466450000000  0.4698390000000 1.0
C      1  0.5288290000000  0.5664040000000  0.5645020000000 1.0
C      1  0.5796970000000  0.5151170000000  0.4470520000000 1.0
C      1  0.5740470000000  0.4514400000000  0.5162990000000 1.0
C      1  0.4843040000000  0.5145810000000  0.4678760000000 1.0
C      1  0.4839040000000  0.4649380000000  0.4484420000000 1.0
C      1  0.4800850000000  0.5025020000000  0.5256950000000 1.0
C      1  0.5595220000000  0.5649000000000  0.4638270000000 1.0
C      1  0.4852570000000  0.5881300000000  0.5169020000000 1.0
C      1  0.4463420000000  0.5364730000000  0.5012140000000 1.0
C      1  0.4112020000000  0.4472750000000  0.5087400000000 1.0
C      1  0.5518700000000  0.4354170000000  0.5256060000000 1.0
C      1  0.5048330000000  0.5266950000000  0.4513570000000 1.0
C      1  0.4303450000000  0.5112740000000  0.4311150000000 1.0
C      1  0.4465980000000  0.5900360000000  0.5033030000000 1.0
C      1  0.5090670000000  0.5639620000000  0.5098690000000 1.0
C      1  0.5027070000000  0.5526320000000  0.4386580000000 1.0
C      1  0.5282250000000  0.5169950000000  0.4964690000000 1.0
C      1  0.4608460000000  0.4711610000000  0.4860030000000 1.0
C      1  0.5808890000000  0.5098200000000  0.4764210000000 1.0
C      1  0.4634670000000  0.4558280000000  0.5773660000000 1.0
C      1  0.5162670000000  0.4536070000000  0.5642950000000 1.0
C      1  0.4433940000000  0.4252270000000  0.5447820000000 1.0
C      1  0.5053950000000  0.4717870000000  0.5091210000000 1.0
C      1  0.5610390000000  0.4505840000000  0.4664180000000 1.0
C      1  0.5210610000000  0.5308500000000  0.5428520000000 1.0
C      1  0.4991580000000  0.4304190000000  0.5256590000000 1.0
C      1  0.5021010000000  0.5026470000000  0.5706900000000 1.0
C      1  0.5603970000000  0.5676160000000  0.5149140000000 1.0
C      1  0.5181850000000  0.5026860000000  0.5461480000000 1.0
C      1  0.5530420000000  0.4697640000000  0.4390750000000 1.0
C      1  0.5211390000000  0.4691190000000  0.4873020000000 1.0
C      1  0.4422040000000  0.4533290000000  0.4721510000000 1.0
C      1  0.5084710000000  0.4978910000000  0.5191820000000 1.0
C      1  0.5888200000000  0.4872510000000  0.4924340000000 1.0
C      1  0.4261760000000  0.4478850000000  0.5344790000000 1.0
C      1  0.5146870000000  0.5155960000000  0.4102260000000 1.0
C      1  0.4641440000000  0.4796260000000  0.5321620000000 1.0
C      1  0.5431980000000  0.4301990000000  0.4766630000000 1.0
C      1  0.5232070000000  0.5121020000000  0.4371490000000 1.0
C      1  0.5778990000000  0.4598450000000  0.4879300000000 1.0
C      1  0.5620820000000  0.5262170000000  0.4941850000000 1.0
END
