TITL C-4164240-4114-472 12.6804486776199 125000 -12367.5644095193 0 0 84 (C1) n - 1
REM
REM in /home/nfs/bkarasulu/CARBON/AIRSS/Generating-Clusters/ReaxFF-fromJPCA2015/Units_Real/with-SteepDescent/Only-C1/SD-CG/Try1-3A/FIRE-CG
REM
REM
REM
REM
REM
REM ./C.cell (11c1c37f851c82e70ff6c80c92926a4b)
REM
REM compiler GCC version 9.2.1 20190827 (Red Hat 9.2.1-1)
REM options -cpp -mtune=generic -march=x86-64 -g -O0 -fpre-include=/usr/include/finclude/math-vector-fortran.h
REM seed 423659463 -2055974913 325220777 1560182943 -1338345201 67604532 2015293331 1158728401 -1629897153 -1236952411 -805566333 -1154360520 -1186368815 -725906146 1359688979 -1223905095 -799526492 89137476 1474219269 1002646155 -2142294476 1129877841 -911765120 -1891427482 -1119696624 1253527488 1099143580 491904126 -1284082570 -1193939469 341860043 456755069 264720825
REM
CELL 1.54180   50.00000   50.00000   50.00000   90.00000   90.00000   90.00000
LATT -1
SFAC C  
C      1  0.4333140000000  0.4874430000000  0.5561700000000 1.0
C      1  0.5603690000000  0.4331850000000  0.4724210000000 1.0
C      1  0.5187960000000  0.4722920000000  0.4817920000000 1.0
C      1  0.5383950000000  0.5196860000000  0.4888220000000 1.0
C      1  0.5623710000000  0.4604330000000  0.4829370000000 1.0
C      1  0.4717920000000  0.5154120000000  0.4195150000000 1.0
C      1  0.4305090000000  0.4460510000000  0.5236000000000 1.0
C      1  0.4376180000000  0.4735990000000  0.5302650000000 1.0
C      1  0.4653780000000  0.4886500000000  0.4249740000000 1.0
C      1  0.4443860000000  0.5354440000000  0.4584780000000 1.0
C      1  0.4456450000000  0.4511990000000  0.4587870000000 1.0
C      1  0.5630390000000  0.4838620000000  0.5725140000000 1.0
C      1  0.5745380000000  0.5523360000000  0.4889520000000 1.0
C      1  0.5279450000000  0.4332960000000  0.5271220000000 1.0
C      1  0.5220150000000  0.5255750000000  0.4149830000000 1.0
C      1  0.5275290000000  0.4880990000000  0.5519610000000 1.0
C      1  0.4590750000000  0.4818850000000  0.5694810000000 1.0
C      1  0.5651150000000  0.5111190000000  0.5643920000000 1.0
C      1  0.5783100000000  0.5401890000000  0.5137420000000 1.0
C      1  0.4658180000000  0.4541800000000  0.5607940000000 1.0
C      1  0.5267770000000  0.5785870000000  0.5132160000000 1.0
C      1  0.5455660000000  0.5120230000000  0.4263520000000 1.0
C      1  0.5558620000000  0.5400010000000  0.5637490000000 1.0
C      1  0.4757400000000  0.5550880000000  0.5482930000000 1.0
C      1  0.4844260000000  0.4401110000000  0.4737510000000 1.0
C      1  0.4661460000000  0.5369630000000  0.4393540000000 1.0
C      1  0.5296280000000  0.5545930000000  0.5604320000000 1.0
C      1  0.4995400000000  0.5070150000000  0.4106390000000 1.0
C      1  0.5268320000000  0.4932780000000  0.4424700000000 1.0
C      1  0.5032730000000  0.4361510000000  0.5418850000000 1.0
C      1  0.4802870000000  0.5318400000000  0.5664920000000 1.0
C      1  0.5484310000000  0.4641890000000  0.5584480000000 1.0
C      1  0.4158910000000  0.4565920000000  0.5003520000000 1.0
C      1  0.5173740000000  0.5430930000000  0.4394510000000 1.0
C      1  0.4256090000000  0.5342550000000  0.4941880000000 1.0
C      1  0.4820000000000  0.5707030000000  0.4699320000000 1.0
C      1  0.4653250000000  0.5080530000000  0.5091770000000 1.0
C      1  0.5767670000000  0.5129360000000  0.5019660000000 1.0
C      1  0.4693690000000  0.4430480000000  0.4481180000000 1.0
C      1  0.5068710000000  0.4923150000000  0.5276260000000 1.0
C      1  0.4682490000000  0.4842330000000  0.4901340000000 1.0
C      1  0.5656680000000  0.5528520000000  0.5393340000000 1.0
C      1  0.4807830000000  0.4284460000000  0.5248060000000 1.0
C      1  0.5511150000000  0.4505590000000  0.5326830000000 1.0
C      1  0.5661660000000  0.4936270000000  0.5193500000000 1.0
C      1  0.5057680000000  0.5345530000000  0.5069580000000 1.0
C      1  0.5380860000000  0.4143690000000  0.4799960000000 1.0
C      1  0.4430060000000  0.5522200000000  0.4824760000000 1.0
C      1  0.4875290000000  0.5555530000000  0.4462290000000 1.0
C      1  0.5610210000000  0.5084490000000  0.4751460000000 1.0
C      1  0.5587440000000  0.5670680000000  0.4692740000000 1.0
C      1  0.4772170000000  0.5657090000000  0.5216500000000 1.0
C      1  0.5022790000000  0.5616000000000  0.5098470000000 1.0
C      1  0.4944150000000  0.4545790000000  0.5635810000000 1.0
C      1  0.4648220000000  0.5677980000000  0.4949490000000 1.0
C      1  0.5409260000000  0.4233530000000  0.4512780000000 1.0
C      1  0.4223150000000  0.4603740000000  0.4706780000000 1.0
C      1  0.4882730000000  0.4693400000000  0.4753600000000 1.0
C      1  0.5125850000000  0.5171490000000  0.4551820000000 1.0
C      1  0.5613700000000  0.5246720000000  0.4470960000000 1.0
C      1  0.4804530000000  0.4670200000000  0.4294890000000 1.0
C      1  0.5503950000000  0.5038530000000  0.5400150000000 1.0
C      1  0.4252750000000  0.5166240000000  0.4712890000000 1.0
C      1  0.4341600000000  0.5234470000000  0.5190330000000 1.0
C      1  0.4903510000000  0.4232490000000  0.4974260000000 1.0
C      1  0.4086250000000  0.5066960000000  0.5201990000000 1.0
C      1  0.4047910000000  0.4842480000000  0.5012100000000 1.0
C      1  0.4217340000000  0.5113120000000  0.5448590000000 1.0
C      1  0.5057570000000  0.4812480000000  0.4235760000000 1.0
C      1  0.5192130000000  0.4208430000000  0.5018090000000 1.0
C      1  0.4595380000000  0.4817650000000  0.5153230000000 1.0
C      1  0.4145220000000  0.4897320000000  0.4743540000000 1.0
C      1  0.5634830000000  0.4667000000000  0.5117880000000 1.0
C      1  0.4559310000000  0.4382990000000  0.5372570000000 1.0
C      1  0.5421630000000  0.5771710000000  0.4899610000000 1.0
C      1  0.5417080000000  0.5698860000000  0.5383750000000 1.0
C      1  0.5456110000000  0.4795220000000  0.4684570000000 1.0
C      1  0.5156510000000  0.5240640000000  0.4827510000000 1.0
C      1  0.5020720000000  0.4824260000000  0.5695590000000 1.0
C      1  0.5151490000000  0.4811830000000  0.5053840000000 1.0
C      1  0.4810730000000  0.5017350000000  0.5706230000000 1.0
C      1  0.5000830000000  0.5526470000000  0.5654420000000 1.0
C      1  0.4905550000000  0.5157570000000  0.5213730000000 1.0
C      1  0.5476940000000  0.5492990000000  0.4468480000000 1.0
END
