TITL C-4164242-3624-585 25.3965450225855 125000 -16444.6387603798 0 0 111 (C1) n - 1
REM
REM in /home/nfs/bkarasulu/CARBON/AIRSS/Generating-Clusters/ReaxFF-fromJPCA2015/Units_Real/with-SteepDescent/Only-C1/SD-CG/Try1-3A/FIRE-CG
REM
REM
REM
REM
REM
REM ./C.cell (11c1c37f851c82e70ff6c80c92926a4b)
REM
REM compiler GCC version 9.2.1 20190827 (Red Hat 9.2.1-1)
REM options -cpp -mtune=generic -march=x86-64 -g -O0 -fpre-include=/usr/include/finclude/math-vector-fortran.h
REM seed 1800507713 -1231473137 1060336714 -251791089 -1251522990 188754817 2077188536 221890463 190568025 1769173200 -482469423 804939489 -1630874722 -2057874718 -1353370407 -485980223 1120334529 350540075 -549270871 -478036305 -1184689999 -769804053 -1778437981 105172055 -1508486749 383967505 -415034866 1037715996 554906427 679375089 -1094618790 953614150 1784609567
REM
CELL 1.54180   50.00000   50.00000   50.00000   90.00000   90.00000   90.00000
LATT -1
SFAC C  
C      1  0.4998140000000  0.5352130000000  0.5959660000000 1.0
C      1  0.5729330000000  0.5214260000000  0.4515780000000 1.0
C      1  0.4342380000000  0.4362110000000  0.5017120000000 1.0
C      1  0.5235710000000  0.5067680000000  0.5403990000000 1.0
C      1  0.4834400000000  0.5580390000000  0.5492380000000 1.0
C      1  0.5624000000000  0.4437270000000  0.4652740000000 1.0
C      1  0.5447230000000  0.5211400000000  0.5727260000000 1.0
C      1  0.5290030000000  0.5192240000000  0.4886670000000 1.0
C      1  0.4122840000000  0.5010700000000  0.4856060000000 1.0
C      1  0.5718190000000  0.4853760000000  0.5401710000000 1.0
C      1  0.5845930000000  0.5098920000000  0.5319690000000 1.0
C      1  0.4323540000000  0.5014960000000  0.4370370000000 1.0
C      1  0.5109550000000  0.5627920000000  0.4931890000000 1.0
C      1  0.4290430000000  0.4925660000000  0.5536160000000 1.0
C      1  0.5240090000000  0.5333940000000  0.4241090000000 1.0
C      1  0.5058410000000  0.4700790000000  0.4715730000000 1.0
C      1  0.4303930000000  0.5087010000000  0.5075810000000 1.0
C      1  0.5006110000000  0.4957300000000  0.4086990000000 1.0
C      1  0.4174440000000  0.4704910000000  0.5373980000000 1.0
C      1  0.4544150000000  0.4161140000000  0.5061200000000 1.0
C      1  0.4974460000000  0.4764160000000  0.4981040000000 1.0
C      1  0.4446830000000  0.5274820000000  0.4310840000000 1.0
C      1  0.4210990000000  0.5606640000000  0.4953410000000 1.0
C      1  0.4694150000000  0.4160580000000  0.4792280000000 1.0
C      1  0.4960220000000  0.4288090000000  0.5084570000000 1.0
C      1  0.5351210000000  0.4263960000000  0.5409620000000 1.0
C      1  0.4140760000000  0.4564080000000  0.5113520000000 1.0
C      1  0.5098360000000  0.5271540000000  0.4500420000000 1.0
C      1  0.5465590000000  0.4954540000000  0.5563070000000 1.0
C      1  0.4914040000000  0.4864660000000  0.4541820000000 1.0
C      1  0.5498820000000  0.4401120000000  0.5154800000000 1.0
C      1  0.5575630000000  0.4575390000000  0.4387750000000 1.0
C      1  0.4726310000000  0.5244530000000  0.5893220000000 1.0
C      1  0.4611810000000  0.4286900000000  0.5325940000000 1.0
C      1  0.4970450000000  0.5826580000000  0.5142600000000 1.0
C      1  0.4539740000000  0.4537780000000  0.4892950000000 1.0
C      1  0.5847630000000  0.4763440000000  0.4988400000000 1.0
C      1  0.4805990000000  0.4528120000000  0.5005060000000 1.0
C      1  0.4584630000000  0.5059970000000  0.4991900000000 1.0
C      1  0.5073390000000  0.5317070000000  0.5012800000000 1.0
C      1  0.5257960000000  0.4675420000000  0.5510860000000 1.0
C      1  0.4596610000000  0.5735300000000  0.4801320000000 1.0
C      1  0.4728770000000  0.4317940000000  0.4530350000000 1.0
C      1  0.4625470000000  0.4553840000000  0.4386670000000 1.0
C      1  0.4813240000000  0.5588500000000  0.4328590000000 1.0
C      1  0.5287080000000  0.4894920000000  0.4115990000000 1.0
C      1  0.5101160000000  0.5294340000000  0.5294240000000 1.0
C      1  0.4570450000000  0.4618800000000  0.5688830000000 1.0
C      1  0.4777610000000  0.5049440000000  0.5693500000000 1.0
C      1  0.4966170000000  0.4696040000000  0.5530100000000 1.0
C      1  0.5077260000000  0.4190620000000  0.5346830000000 1.0
C      1  0.5756960000000  0.5366960000000  0.5388950000000 1.0
C      1  0.4782590000000  0.4794250000000  0.5344220000000 1.0
C      1  0.5826820000000  0.5358860000000  0.4893360000000 1.0
C      1  0.4166140000000  0.5137560000000  0.4590170000000 1.0
C      1  0.5182430000000  0.5703830000000  0.4430040000000 1.0
C      1  0.4125980000000  0.4719420000000  0.4863350000000 1.0
C      1  0.4829980000000  0.5505020000000  0.5780890000000 1.0
C      1  0.5220340000000  0.4673930000000  0.5972510000000 1.0
C      1  0.5338100000000  0.4418050000000  0.5659000000000 1.0
C      1  0.4835570000000  0.4238840000000  0.5500620000000 1.0
C      1  0.4212410000000  0.5544320000000  0.5196490000000 1.0
C      1  0.4253660000000  0.5161630000000  0.5359720000000 1.0
C      1  0.5445210000000  0.5116630000000  0.4235080000000 1.0
C      1  0.4313410000000  0.5639380000000  0.4703250000000 1.0
C      1  0.5164810000000  0.4387670000000  0.4711510000000 1.0
C      1  0.4782090000000  0.5771490000000  0.4538500000000 1.0
C      1  0.4346900000000  0.4627590000000  0.4688620000000 1.0
C      1  0.4670420000000  0.5504080000000  0.4983190000000 1.0
C      1  0.4876750000000  0.4728280000000  0.4262280000000 1.0
C      1  0.5251970000000  0.5190340000000  0.5943320000000 1.0
C      1  0.5242360000000  0.4906330000000  0.5993080000000 1.0
C      1  0.5080670000000  0.4503660000000  0.4245740000000 1.0
C      1  0.4626070000000  0.5514350000000  0.5285400000000 1.0
C      1  0.4284530000000  0.5404210000000  0.4523080000000 1.0
C      1  0.5307110000000  0.5117130000000  0.4619390000000 1.0
C      1  0.5343390000000  0.4622370000000  0.4213810000000 1.0
C      1  0.5366260000000  0.4851250000000  0.5084180000000 1.0
C      1  0.5825460000000  0.5080570000000  0.5018600000000 1.0
C      1  0.5524610000000  0.5653970000000  0.4661370000000 1.0
C      1  0.5760330000000  0.5507550000000  0.5135340000000 1.0
C      1  0.5522000000000  0.5436860000000  0.5559250000000 1.0
C      1  0.5433080000000  0.4360060000000  0.4849830000000 1.0
C      1  0.4845980000000  0.5148240000000  0.4591220000000 1.0
C      1  0.4366810000000  0.5434270000000  0.5402100000000 1.0
C      1  0.4971750000000  0.5243790000000  0.4104910000000 1.0
C      1  0.5359660000000  0.5633230000000  0.5410500000000 1.0
C      1  0.4401540000000  0.4725050000000  0.4420340000000 1.0
C      1  0.5016790000000  0.4310890000000  0.4450650000000 1.0
C      1  0.4979810000000  0.4145890000000  0.4831850000000 1.0
C      1  0.5518140000000  0.5669960000000  0.5165430000000 1.0
C      1  0.5431030000000  0.5584140000000  0.4398640000000 1.0
C      1  0.4563220000000  0.4581050000000  0.5400650000000 1.0
C      1  0.5563710000000  0.5044160000000  0.4484640000000 1.0
C      1  0.5043450000000  0.5767760000000  0.4661960000000 1.0
C      1  0.5822110000000  0.4653240000000  0.4720670000000 1.0
C      1  0.4841590000000  0.4991300000000  0.5121540000000 1.0
C      1  0.4714440000000  0.5916490000000  0.5049550000000 1.0
C      1  0.5721130000000  0.4636360000000  0.5208950000000 1.0
C      1  0.5497320000000  0.5046440000000  0.5007130000000 1.0
C      1  0.4712820000000  0.5376120000000  0.4189800000000 1.0
C      1  0.4981330000000  0.5121410000000  0.5493630000000 1.0
C      1  0.5295080000000  0.4619510000000  0.5207030000000 1.0
C      1  0.5731830000000  0.4803150000000  0.4482340000000 1.0
C      1  0.4680640000000  0.5265690000000  0.4808200000000 1.0
C      1  0.5732970000000  0.5454380000000  0.4637560000000 1.0
C      1  0.4855890000000  0.4467630000000  0.5706710000000 1.0
C      1  0.5076550000000  0.5715840000000  0.5400440000000 1.0
C      1  0.4527400000000  0.4901360000000  0.5732150000000 1.0
C      1  0.5386970000000  0.5694510000000  0.4916040000000 1.0
C      1  0.5130030000000  0.4438080000000  0.5861660000000 1.0
END
