TITL C-4164247-2821-506 73.9168466438006 125000 -16550.8757811201 0 0 113 (C1) n - 1
REM
REM in /home/nfs/bkarasulu/CARBON/AIRSS/Generating-Clusters/ReaxFF-fromJPCA2015/Units_Real/with-SteepDescent/Only-C1/SD-CG/Try1-3A/FIRE-CG
REM
REM
REM
REM
REM
REM ./C.cell (11c1c37f851c82e70ff6c80c92926a4b)
REM
REM compiler GCC version 9.2.1 20190827 (Red Hat 9.2.1-1)
REM options -cpp -mtune=generic -march=x86-64 -g -O0 -fpre-include=/usr/include/finclude/math-vector-fortran.h
REM seed 1712760951 1943456401 -1382434464 -490425398 1454063245 156448281 -1852785578 1149878840 969915076 2145631202 890961973 1792354973 -1038084489 -1189844591 1104887190 -1993448267 1649204907 -142468640 -1932026236 1994674115 841284267 -214474631 -1625736616 -1161817596 208592696 -1230657835 344585660 -754456192 -724729742 -1024519235 1526348408 -664433166 -790836441
REM
CELL 1.54180   50.00000   50.00000   50.00000   90.00000   90.00000   90.00000
LATT -1
SFAC C  
C      1  0.4840100000000  0.5487730000000  0.4156750000000 1.0
C      1  0.5374720000000  0.4705360000000  0.5708160000000 1.0
C      1  0.5767060000000  0.4834700000000  0.5379230000000 1.0
C      1  0.5071290000000  0.5741680000000  0.4443170000000 1.0
C      1  0.5499800000000  0.4875900000000  0.5079500000000 1.0
C      1  0.4274080000000  0.4973810000000  0.4330220000000 1.0
C      1  0.4257060000000  0.5078250000000  0.5724480000000 1.0
C      1  0.4660210000000  0.4914540000000  0.4872730000000 1.0
C      1  0.4907240000000  0.4504870000000  0.4328880000000 1.0
C      1  0.4437540000000  0.4566410000000  0.5574190000000 1.0
C      1  0.4778810000000  0.4301650000000  0.5342940000000 1.0
C      1  0.4854120000000  0.5883690000000  0.5208420000000 1.0
C      1  0.5552270000000  0.5341850000000  0.5744930000000 1.0
C      1  0.4476390000000  0.4403060000000  0.4437980000000 1.0
C      1  0.5379750000000  0.5803000000000  0.5138760000000 1.0
C      1  0.4937040000000  0.4238220000000  0.4476650000000 1.0
C      1  0.5333030000000  0.4406320000000  0.4500800000000 1.0
C      1  0.4869700000000  0.4196640000000  0.5068570000000 1.0
C      1  0.5351970000000  0.5187150000000  0.5845760000000 1.0
C      1  0.4374840000000  0.4241250000000  0.5246530000000 1.0
C      1  0.5399360000000  0.4197420000000  0.4989520000000 1.0
C      1  0.5499580000000  0.5532010000000  0.4440640000000 1.0
C      1  0.5664140000000  0.5866440000000  0.5089370000000 1.0
C      1  0.5727420000000  0.5136020000000  0.5347150000000 1.0
C      1  0.4738700000000  0.5857870000000  0.4946100000000 1.0
C      1  0.5162110000000  0.4532950000000  0.5822560000000 1.0
C      1  0.5168260000000  0.4264460000000  0.5707180000000 1.0
C      1  0.5851340000000  0.5398210000000  0.5167940000000 1.0
C      1  0.5282330000000  0.4826410000000  0.4234260000000 1.0
C      1  0.5055350000000  0.4934640000000  0.5459740000000 1.0
C      1  0.5538450000000  0.4439600000000  0.4916560000000 1.0
C      1  0.5247180000000  0.5543190000000  0.4309180000000 1.0
C      1  0.4431290000000  0.5062540000000  0.5322830000000 1.0
C      1  0.4537890000000  0.5668460000000  0.4840490000000 1.0
C      1  0.5564780000000  0.4365760000000  0.5428040000000 1.0
C      1  0.5511940000000  0.4960020000000  0.4151260000000 1.0
C      1  0.5385840000000  0.4193350000000  0.5543840000000 1.0
C      1  0.4728130000000  0.4959920000000  0.4179630000000 1.0
C      1  0.4698970000000  0.5184820000000  0.4761400000000 1.0
C      1  0.4992160000000  0.4691810000000  0.5319200000000 1.0
C      1  0.5757110000000  0.4737700000000  0.5102060000000 1.0
C      1  0.5820930000000  0.4759500000000  0.4813350000000 1.0
C      1  0.4862430000000  0.4696340000000  0.4567600000000 1.0
C      1  0.5660010000000  0.5175100000000  0.5580810000000 1.0
C      1  0.5046520000000  0.4979150000000  0.4975800000000 1.0
C      1  0.4793300000000  0.5666620000000  0.5697030000000 1.0
C      1  0.5717950000000  0.5347060000000  0.4402690000000 1.0
C      1  0.4407290000000  0.4842350000000  0.4551640000000 1.0
C      1  0.4669430000000  0.4231350000000  0.4584980000000 1.0
C      1  0.4883450000000  0.5289190000000  0.5576870000000 1.0
C      1  0.4464770000000  0.4734630000000  0.5309720000000 1.0
C      1  0.5129280000000  0.4165390000000  0.4952370000000 1.0
C      1  0.5469880000000  0.5118120000000  0.5190900000000 1.0
C      1  0.5296970000000  0.5463640000000  0.5807570000000 1.0
C      1  0.5471930000000  0.5707120000000  0.4687910000000 1.0
C      1  0.4466020000000  0.4822830000000  0.4141250000000 1.0
C      1  0.4365320000000  0.4268160000000  0.4976940000000 1.0
C      1  0.4883290000000  0.4283750000000  0.5637870000000 1.0
C      1  0.4861150000000  0.4531330000000  0.5793020000000 1.0
C      1  0.5009040000000  0.5114510000000  0.5230090000000 1.0
C      1  0.4590470000000  0.5464980000000  0.5808030000000 1.0
C      1  0.4525190000000  0.5299830000000  0.5180190000000 1.0
C      1  0.4393240000000  0.5442840000000  0.4960740000000 1.0
C      1  0.4216470000000  0.4702460000000  0.5115600000000 1.0
C      1  0.5866250000000  0.5267050000000  0.4655790000000 1.0
C      1  0.5399780000000  0.4164010000000  0.5264890000000 1.0
C      1  0.4198450000000  0.5272260000000  0.4799540000000 1.0
C      1  0.4169500000000  0.5091230000000  0.5441890000000 1.0
C      1  0.4989710000000  0.5966040000000  0.4834700000000 1.0
C      1  0.5174860000000  0.4219650000000  0.4652580000000 1.0
C      1  0.4758890000000  0.5410400000000  0.5333030000000 1.0
C      1  0.5134820000000  0.5426620000000  0.4970540000000 1.0
C      1  0.5110270000000  0.5063880000000  0.4711950000000 1.0
C      1  0.5103040000000  0.5357330000000  0.4136330000000 1.0
C      1  0.4794190000000  0.5676570000000  0.4378460000000 1.0
C      1  0.5642250000000  0.5139410000000  0.4226800000000 1.0
C      1  0.4528330000000  0.4973020000000  0.5806910000000 1.0
C      1  0.4689330000000  0.4901340000000  0.4467980000000 1.0
C      1  0.5240760000000  0.4961380000000  0.5679850000000 1.0
C      1  0.5208510000000  0.4544580000000  0.4282530000000 1.0
C      1  0.5860940000000  0.5465080000000  0.4882540000000 1.0
C      1  0.4721490000000  0.5195630000000  0.5810620000000 1.0
C      1  0.5607890000000  0.4546980000000  0.4649730000000 1.0
C      1  0.5738080000000  0.5730680000000  0.4840380000000 1.0
C      1  0.5766290000000  0.5649870000000  0.5243380000000 1.0
C      1  0.5358570000000  0.4686710000000  0.4932360000000 1.0
C      1  0.4572240000000  0.5612120000000  0.4557140000000 1.0
C      1  0.4046550000000  0.4925320000000  0.5202550000000 1.0
C      1  0.4529560000000  0.5319830000000  0.4542270000000 1.0
C      1  0.5045880000000  0.5512990000000  0.5677070000000 1.0
C      1  0.5586490000000  0.4640380000000  0.5510480000000 1.0
C      1  0.5303320000000  0.4964660000000  0.4505090000000 1.0
C      1  0.4782280000000  0.4637890000000  0.4847130000000 1.0
C      1  0.4666160000000  0.4291460000000  0.4877980000000 1.0
C      1  0.4226160000000  0.4514780000000  0.4891260000000 1.0
C      1  0.4609100000000  0.4690080000000  0.5773680000000 1.0
C      1  0.5844750000000  0.5006190000000  0.4731700000000 1.0
C      1  0.4971390000000  0.5308490000000  0.4760290000000 1.0
C      1  0.5366290000000  0.5581010000000  0.4947160000000 1.0
C      1  0.4730460000000  0.4594680000000  0.5281370000000 1.0
C      1  0.4104760000000  0.5078870000000  0.4975820000000 1.0
C      1  0.4752450000000  0.5699940000000  0.5409310000000 1.0
C      1  0.4345830000000  0.5345140000000  0.5729960000000 1.0
C      1  0.4311430000000  0.4571820000000  0.4617970000000 1.0
C      1  0.5179610000000  0.5864450000000  0.4671700000000 1.0
C      1  0.5053290000000  0.4693470000000  0.5029620000000 1.0
C      1  0.5125810000000  0.5949570000000  0.5077060000000 1.0
C      1  0.5236010000000  0.5291330000000  0.5204340000000 1.0
C      1  0.4854880000000  0.5208110000000  0.4077550000000 1.0
C      1  0.5420810000000  0.4767860000000  0.4664370000000 1.0
C      1  0.4261790000000  0.5219450000000  0.4489210000000 1.0
C      1  0.4483980000000  0.4287380000000  0.5491160000000 1.0
C      1  0.4582820000000  0.4567110000000  0.4223450000000 1.0
END
