TITL C-4164233-775-432 -7.83562081192884 125000 -6618.56084083783 0 0 46 (C1) n - 1
REM
REM in /home/nfs/bkarasulu/CARBON/AIRSS/Generating-Clusters/ReaxFF-fromJPCA2015/Units_Real/with-SteepDescent/Only-C1/SD-CG/Try1-3A/FIRE-CG
REM
REM
REM
REM
REM
REM ./C.cell (11c1c37f851c82e70ff6c80c92926a4b)
REM
REM compiler GCC version 9.2.1 20190827 (Red Hat 9.2.1-1)
REM options -cpp -mtune=generic -march=x86-64 -g -O0 -fpre-include=/usr/include/finclude/math-vector-fortran.h
REM seed 163779748 -127316607 -408024103 -1768458521 -1484313747 1487258590 -882059115 -1919802235 164984027 385344703 1336387134 -636410043 -1683023506 99877651 1254113078 1881702683 1474437671 -1847729804 -316675378 2145405052 -2108431855 2108024511 -728296906 -274126319 660444596 1650287231 1579370206 954784415 -486713545 821190593 -1267464674 915686761 -1338881291
REM
CELL 1.54180   50.00000   50.00000   50.00000   90.00000   90.00000   90.00000
LATT -1
SFAC C  
C      1  0.4498350000000  0.4633280000000  0.5219090000000 1.0
C      1  0.4383440000000  0.4643690000000  0.4968120000000 1.0
C      1  0.5098610000000  0.5772720000000  0.4803540000000 1.0
C      1  0.5636310000000  0.5287640000000  0.4912610000000 1.0
C      1  0.4840840000000  0.5547800000000  0.5304790000000 1.0
C      1  0.5218150000000  0.4241000000000  0.5232480000000 1.0
C      1  0.5214620000000  0.4993380000000  0.5610650000000 1.0
C      1  0.4823350000000  0.5160240000000  0.5009970000000 1.0
C      1  0.5414250000000  0.4112210000000  0.5305370000000 1.0
C      1  0.5299010000000  0.4512350000000  0.4607620000000 1.0
C      1  0.4614780000000  0.5526180000000  0.5096160000000 1.0
C      1  0.4935610000000  0.5452140000000  0.4462400000000 1.0
C      1  0.4892710000000  0.4960800000000  0.4357620000000 1.0
C      1  0.4955270000000  0.5197440000000  0.4750950000000 1.0
C      1  0.4947190000000  0.4496570000000  0.5435360000000 1.0
C      1  0.4825140000000  0.5392670000000  0.5554120000000 1.0
C      1  0.4390740000000  0.4869130000000  0.4758420000000 1.0
C      1  0.5086490000000  0.5262820000000  0.5647620000000 1.0
C      1  0.4384480000000  0.5156200000000  0.4845080000000 1.0
C      1  0.4898870000000  0.4500220000000  0.4879740000000 1.0
C      1  0.5477130000000  0.5474420000000  0.4939630000000 1.0
C      1  0.5437530000000  0.5120500000000  0.5446470000000 1.0
C      1  0.5726930000000  0.5024020000000  0.4986360000000 1.0
C      1  0.4566110000000  0.4702790000000  0.4589560000000 1.0
C      1  0.4611290000000  0.5616870000000  0.4816210000000 1.0
C      1  0.5136010000000  0.5547790000000  0.5263940000000 1.0
C      1  0.5521610000000  0.4695190000000  0.4600820000000 1.0
C      1  0.5010590000000  0.4521840000000  0.4605110000000 1.0
C      1  0.4543780000000  0.5243060000000  0.5087860000000 1.0
C      1  0.4608780000000  0.4517150000000  0.4808290000000 1.0
C      1  0.4873900000000  0.5663840000000  0.4653400000000 1.0
C      1  0.5406470000000  0.4609760000000  0.4879810000000 1.0
C      1  0.4831830000000  0.4702580000000  0.4445860000000 1.0
C      1  0.5111690000000  0.4986570000000  0.4772420000000 1.0
C      1  0.5656130000000  0.4766440000000  0.4838630000000 1.0
C      1  0.4954770000000  0.4945870000000  0.5157010000000 1.0
C      1  0.5273730000000  0.5386150000000  0.5463600000000 1.0
C      1  0.4829160000000  0.4889830000000  0.5417940000000 1.0
C      1  0.5591690000000  0.5041410000000  0.5231270000000 1.0
C      1  0.5110690000000  0.4775050000000  0.4961030000000 1.0
C      1  0.4664380000000  0.4631060000000  0.5434660000000 1.0
C      1  0.4935140000000  0.5215030000000  0.4349860000000 1.0
C      1  0.5046730000000  0.4758630000000  0.5562810000000 1.0
C      1  0.5272440000000  0.5650070000000  0.5018510000000 1.0
C      1  0.5001170000000  0.4387020000000  0.5173070000000 1.0
C      1  0.4442100000000  0.5408610000000  0.4734170000000 1.0
END
