TITL C-4164232-771-287 -2.21011299917159 125000 -7428.80719118321 0 0 51 (C1) n - 1
REM
REM in /home/nfs/bkarasulu/CARBON/AIRSS/Generating-Clusters/ReaxFF-fromJPCA2015/Units_Real/with-SteepDescent/Only-C1/SD-CG/Try1-3A/FIRE-CG
REM
REM
REM
REM
REM
REM ./C.cell (11c1c37f851c82e70ff6c80c92926a4b)
REM
REM compiler GCC version 9.2.1 20190827 (Red Hat 9.2.1-1)
REM options -cpp -mtune=generic -march=x86-64 -g -O0 -fpre-include=/usr/include/finclude/math-vector-fortran.h
REM seed 1331225615 1917986323 -2108718358 -510262470 -919958234 1503093285 9603913 -660799544 -1363626282 1807245592 -1285688542 743683544 -296198254 -63943686 1360147572 695260739 -708615328 -1514562227 -2053413431 1464764484 -1144649051 1747420357 47555862 2030740596 -400428199 -1448713398 1386339753 -1608435733 -1185259683 -1469174274 225077769 2138270163 1064017612
REM
CELL 1.54180   50.00000   50.00000   50.00000   90.00000   90.00000   90.00000
LATT -1
SFAC C  
C      1  0.5265900000000  0.5574100000000  0.4716980000000 1.0
C      1  0.4568150000000  0.4838880000000  0.4487440000000 1.0
C      1  0.5035130000000  0.4990410000000  0.5629440000000 1.0
C      1  0.4669200000000  0.5358040000000  0.5134790000000 1.0
C      1  0.5232170000000  0.5206740000000  0.5567820000000 1.0
C      1  0.5243960000000  0.4414020000000  0.4792290000000 1.0
C      1  0.4813590000000  0.5172640000000  0.5607820000000 1.0
C      1  0.5006270000000  0.4798260000000  0.5173040000000 1.0
C      1  0.4576280000000  0.5046460000000  0.5461850000000 1.0
C      1  0.4985310000000  0.4737790000000  0.4891530000000 1.0
C      1  0.5258340000000  0.4907490000000  0.5209740000000 1.0
C      1  0.5706120000000  0.4777290000000  0.5155690000000 1.0
C      1  0.4742230000000  0.5623390000000  0.5224560000000 1.0
C      1  0.5186230000000  0.5131300000000  0.4458270000000 1.0
C      1  0.4755930000000  0.4410000000000  0.5112410000000 1.0
C      1  0.5467780000000  0.5243140000000  0.5383120000000 1.0
C      1  0.4500470000000  0.5146130000000  0.4518520000000 1.0
C      1  0.4835860000000  0.4783220000000  0.4440950000000 1.0
C      1  0.5435420000000  0.5146000000000  0.4627000000000 1.0
C      1  0.4426340000000  0.4733060000000  0.4969790000000 1.0
C      1  0.5009010000000  0.4285430000000  0.4688840000000 1.0
C      1  0.4919200000000  0.5543970000000  0.4483530000000 1.0
C      1  0.4861410000000  0.4998350000000  0.4844130000000 1.0
C      1  0.4373220000000  0.5099850000000  0.4759490000000 1.0
C      1  0.5028480000000  0.4359390000000  0.5239930000000 1.0
C      1  0.4894350000000  0.5187620000000  0.5056730000000 1.0
C      1  0.4328930000000  0.5013130000000  0.5021370000000 1.0
C      1  0.4554660000000  0.4597320000000  0.5203680000000 1.0
C      1  0.5751580000000  0.4805670000000  0.4861310000000 1.0
C      1  0.5362770000000  0.5385530000000  0.5097890000000 1.0
C      1  0.4551690000000  0.4655740000000  0.4718920000000 1.0
C      1  0.4900430000000  0.5157160000000  0.4609510000000 1.0
C      1  0.5190030000000  0.5618240000000  0.5009010000000 1.0
C      1  0.5461130000000  0.5378050000000  0.4803430000000 1.0
C      1  0.4457100000000  0.5180420000000  0.5234060000000 1.0
C      1  0.5032370000000  0.4432010000000  0.5516850000000 1.0
C      1  0.5108390000000  0.4823520000000  0.4436680000000 1.0
C      1  0.4993500000000  0.5638570000000  0.5378260000000 1.0
C      1  0.5180910000000  0.5451050000000  0.4461020000000 1.0
C      1  0.4925680000000  0.4738700000000  0.5467350000000 1.0
C      1  0.4624350000000  0.4763510000000  0.5433240000000 1.0
C      1  0.5643750000000  0.5021670000000  0.5319540000000 1.0
C      1  0.5514180000000  0.4870630000000  0.4692210000000 1.0
C      1  0.4969360000000  0.5746750000000  0.5120220000000 1.0
C      1  0.5175980000000  0.5164030000000  0.5114250000000 1.0
C      1  0.4782700000000  0.4473230000000  0.4824510000000 1.0
C      1  0.5259660000000  0.4702660000000  0.4664730000000 1.0
C      1  0.5007450000000  0.5395870000000  0.5549190000000 1.0
C      1  0.5283690000000  0.4434350000000  0.5085360000000 1.0
C      1  0.4709100000000  0.5372850000000  0.4552420000000 1.0
C      1  0.5434250000000  0.4666400000000  0.5189280000000 1.0
END
