TITL C-4164246-3563-617 3.69001528735547 125000 -8741.92282101952 0 0 59 (C1) n - 1
REM
REM in /home/nfs/bkarasulu/CARBON/AIRSS/Generating-Clusters/ReaxFF-fromJPCA2015/Units_Real/with-SteepDescent/Only-C1/SD-CG/Try1-3A/FIRE-CG
REM
REM
REM
REM
REM
REM ./C.cell (11c1c37f851c82e70ff6c80c92926a4b)
REM
REM compiler GCC version 9.2.1 20190827 (Red Hat 9.2.1-1)
REM options -cpp -mtune=generic -march=x86-64 -g -O0 -fpre-include=/usr/include/finclude/math-vector-fortran.h
REM seed -1826676979 1063687861 1329874374 974900978 -925998785 -1989107289 -1745223402 950533548 -1055673957 873587183 -1612387678 -1054122830 1878153889 -446389768 -2086567121 513218472 -107231310 2108692918 171467459 381039786 -1517347912 1987313334 -691349312 1865261341 935965216 2015115502 -1355652443 -949124352 578508352 -1179386780 288625657 989451903 -2120829213
REM
CELL 1.54180   50.00000   50.00000   50.00000   90.00000   90.00000   90.00000
LATT -1
SFAC C  
C      1  0.4299810000000  0.5091290000000  0.5238540000000 1.0
C      1  0.5725550000000  0.5337290000000  0.4585130000000 1.0
C      1  0.4407500000000  0.5359450000000  0.5154780000000 1.0
C      1  0.4819720000000  0.5234260000000  0.4454810000000 1.0
C      1  0.4946130000000  0.4193330000000  0.4989350000000 1.0
C      1  0.5016410000000  0.4488960000000  0.5388720000000 1.0
C      1  0.5096220000000  0.5586320000000  0.5150590000000 1.0
C      1  0.5363670000000  0.5760860000000  0.4429140000000 1.0
C      1  0.4263310000000  0.4981920000000  0.4735980000000 1.0
C      1  0.5665500000000  0.5052700000000  0.4639980000000 1.0
C      1  0.5595060000000  0.4519720000000  0.5086850000000 1.0
C      1  0.5511520000000  0.4868130000000  0.4479940000000 1.0
C      1  0.5252410000000  0.4851140000000  0.4365420000000 1.0
C      1  0.4643340000000  0.4779750000000  0.5569150000000 1.0
C      1  0.4838850000000  0.4933340000000  0.5732500000000 1.0
C      1  0.4882940000000  0.5070470000000  0.5038420000000 1.0
C      1  0.4662950000000  0.4285510000000  0.4970090000000 1.0
C      1  0.5351130000000  0.4635370000000  0.4518940000000 1.0
C      1  0.4547900000000  0.5144560000000  0.4480130000000 1.0
C      1  0.4642660000000  0.4627610000000  0.4532460000000 1.0
C      1  0.5345490000000  0.5087830000000  0.5717670000000 1.0
C      1  0.5339260000000  0.5428360000000  0.5114730000000 1.0
C      1  0.4253400000000  0.4900260000000  0.5015350000000 1.0
C      1  0.5123040000000  0.4875690000000  0.5707260000000 1.0
C      1  0.5346970000000  0.4427330000000  0.4995470000000 1.0
C      1  0.5177620000000  0.4937070000000  0.5282050000000 1.0
C      1  0.5569550000000  0.5392750000000  0.5309130000000 1.0
C      1  0.4426630000000  0.4943860000000  0.5458540000000 1.0
C      1  0.4457200000000  0.4868450000000  0.4540800000000 1.0
C      1  0.4460030000000  0.5414360000000  0.4873210000000 1.0
C      1  0.5126660000000  0.4329530000000  0.5173130000000 1.0
C      1  0.4685720000000  0.5435560000000  0.5573480000000 1.0
C      1  0.4889670000000  0.5475710000000  0.4604070000000 1.0
C      1  0.5478270000000  0.5247830000000  0.5522370000000 1.0
C      1  0.5808250000000  0.4599120000000  0.5165380000000 1.0
C      1  0.5842340000000  0.5439310000000  0.4852470000000 1.0
C      1  0.4986310000000  0.5138300000000  0.5321260000000 1.0
C      1  0.4477750000000  0.4699680000000  0.5022490000000 1.0
C      1  0.5341790000000  0.5171970000000  0.4955160000000 1.0
C      1  0.5528840000000  0.5505950000000  0.4461430000000 1.0
C      1  0.5159260000000  0.4952050000000  0.4996000000000 1.0
C      1  0.5175420000000  0.4722340000000  0.5468310000000 1.0
C      1  0.4717590000000  0.4378550000000  0.4692680000000 1.0
C      1  0.5618600000000  0.5083420000000  0.4928590000000 1.0
C      1  0.4987750000000  0.4994290000000  0.4385750000000 1.0
C      1  0.5122390000000  0.5617030000000  0.4524240000000 1.0
C      1  0.4931530000000  0.5312570000000  0.5537120000000 1.0
C      1  0.4857440000000  0.4767780000000  0.4446160000000 1.0
C      1  0.4361790000000  0.5244870000000  0.4670870000000 1.0
C      1  0.4677810000000  0.4886000000000  0.5028720000000 1.0
C      1  0.4565220000000  0.4457780000000  0.5185310000000 1.0
C      1  0.4804600000000  0.5609090000000  0.5103880000000 1.0
C      1  0.4775350000000  0.5217870000000  0.5745030000000 1.0
C      1  0.5246350000000  0.4458010000000  0.4721680000000 1.0
C      1  0.4727650000000  0.4536740000000  0.5410700000000 1.0
C      1  0.4602760000000  0.5504400000000  0.5302870000000 1.0
C      1  0.4999540000000  0.4298340000000  0.4714770000000 1.0
C      1  0.4712430000000  0.5544270000000  0.4835690000000 1.0
C      1  0.5759160000000  0.5293700000000  0.5095280000000 1.0
END
