TITL C-4164246-3563-360 -0.31237982186708 125000 -13926.8683663059 0 0 95 (C1) n - 1
REM
REM in /home/nfs/bkarasulu/CARBON/AIRSS/Generating-Clusters/ReaxFF-fromJPCA2015/Units_Real/with-SteepDescent/Only-C1/SD-CG/Try1-3A/FIRE-CG
REM
REM
REM
REM
REM
REM ./C.cell (11c1c37f851c82e70ff6c80c92926a4b)
REM
REM compiler GCC version 9.2.1 20190827 (Red Hat 9.2.1-1)
REM options -cpp -mtune=generic -march=x86-64 -g -O0 -fpre-include=/usr/include/finclude/math-vector-fortran.h
REM seed 1623712589 -824442602 1521245284 1622184356 -496751154 -97769872 -1097108667 -1383729951 -449759902 -427553022 1200096200 774403032 1697517123 45451031 825054182 -345483232 1423269781 -753481771 1205173535 823179932 -1635357626 -417413185 1586595275 -1080053330 -121602128 1342396188 -2123689873 524054932 -1121637097 1261356137 1820851086 -978752197 -1349386373
REM
CELL 1.54180   50.00000   50.00000   50.00000   90.00000   90.00000   90.00000
LATT -1
SFAC C  
C      1  0.5223850000000  0.4830750000000  0.4191230000000 1.0
C      1  0.4547820000000  0.5469750000000  0.5560900000000 1.0
C      1  0.4217500000000  0.5134680000000  0.5030140000000 1.0
C      1  0.5782240000000  0.5248680000000  0.5375230000000 1.0
C      1  0.5881190000000  0.5090000000000  0.4983070000000 1.0
C      1  0.4887190000000  0.5141030000000  0.5732090000000 1.0
C      1  0.5629040000000  0.4780820000000  0.4774610000000 1.0
C      1  0.5185790000000  0.4161690000000  0.4875590000000 1.0
C      1  0.5151930000000  0.5397210000000  0.4403140000000 1.0
C      1  0.4807840000000  0.5028760000000  0.4202440000000 1.0
C      1  0.4380420000000  0.5260930000000  0.5569810000000 1.0
C      1  0.5763860000000  0.4617480000000  0.5001320000000 1.0
C      1  0.4988980000000  0.5809050000000  0.5462870000000 1.0
C      1  0.5299410000000  0.4170990000000  0.5400160000000 1.0
C      1  0.5866840000000  0.4845470000000  0.5141360000000 1.0
C      1  0.5523710000000  0.4760110000000  0.4214260000000 1.0
C      1  0.5250280000000  0.4829080000000  0.5713390000000 1.0
C      1  0.4635240000000  0.5430510000000  0.4308170000000 1.0
C      1  0.5024940000000  0.4665680000000  0.5279920000000 1.0
C      1  0.4756020000000  0.4278350000000  0.4976550000000 1.0
C      1  0.4910810000000  0.4681410000000  0.4827770000000 1.0
C      1  0.4570000000000  0.4375780000000  0.5457060000000 1.0
C      1  0.4965370000000  0.5203230000000  0.4928690000000 1.0
C      1  0.4031580000000  0.4933850000000  0.5143680000000 1.0
C      1  0.4817680000000  0.4382600000000  0.5587770000000 1.0
C      1  0.4421100000000  0.5240510000000  0.4382110000000 1.0
C      1  0.4496150000000  0.4698350000000  0.4341960000000 1.0
C      1  0.5620880000000  0.5392140000000  0.5537410000000 1.0
C      1  0.5714340000000  0.4967970000000  0.5390360000000 1.0
C      1  0.4625910000000  0.4667620000000  0.4828150000000 1.0
C      1  0.5748770000000  0.5517520000000  0.4628540000000 1.0
C      1  0.5137470000000  0.5897250000000  0.4589960000000 1.0
C      1  0.5386760000000  0.5790190000000  0.4641830000000 1.0
C      1  0.4906710000000  0.5033210000000  0.5164120000000 1.0
C      1  0.4374730000000  0.4555820000000  0.5424600000000 1.0
C      1  0.5604010000000  0.4656450000000  0.4482340000000 1.0
C      1  0.4767430000000  0.4674280000000  0.5659760000000 1.0
C      1  0.4265440000000  0.4616940000000  0.4500190000000 1.0
C      1  0.4289360000000  0.4479260000000  0.5156590000000 1.0
C      1  0.5470290000000  0.5561450000000  0.5358240000000 1.0
C      1  0.5576200000000  0.5220130000000  0.5767050000000 1.0
C      1  0.4934060000000  0.5728140000000  0.5008180000000 1.0
C      1  0.4810460000000  0.5073010000000  0.4705220000000 1.0
C      1  0.5598220000000  0.5545050000000  0.5097150000000 1.0
C      1  0.4795320000000  0.5786920000000  0.5260120000000 1.0
C      1  0.5579990000000  0.5665980000000  0.4828140000000 1.0
C      1  0.4251410000000  0.5405330000000  0.4898080000000 1.0
C      1  0.5633020000000  0.5248370000000  0.4568580000000 1.0
C      1  0.4477220000000  0.5042910000000  0.5049670000000 1.0
C      1  0.4094930000000  0.4625450000000  0.4741390000000 1.0
C      1  0.4642470000000  0.4979220000000  0.5260710000000 1.0
C      1  0.5255370000000  0.4780920000000  0.5424390000000 1.0
C      1  0.4514100000000  0.4430700000000  0.4959900000000 1.0
C      1  0.5241490000000  0.5687070000000  0.5479580000000 1.0
C      1  0.4987850000000  0.4392740000000  0.5180530000000 1.0
C      1  0.4571140000000  0.4952830000000  0.4805190000000 1.0
C      1  0.4339970000000  0.5419900000000  0.4606110000000 1.0
C      1  0.4510580000000  0.5636640000000  0.4498340000000 1.0
C      1  0.4957850000000  0.4844930000000  0.4604670000000 1.0
C      1  0.5649600000000  0.4948250000000  0.5697470000000 1.0
C      1  0.5476440000000  0.4148580000000  0.5159880000000 1.0
C      1  0.5428720000000  0.4990720000000  0.5851410000000 1.0
C      1  0.5373770000000  0.4930700000000  0.4966610000000 1.0
C      1  0.4644050000000  0.5870240000000  0.4630100000000 1.0
C      1  0.5050070000000  0.4809190000000  0.5049860000000 1.0
C      1  0.4090030000000  0.4655860000000  0.5033320000000 1.0
C      1  0.5677030000000  0.4364650000000  0.5121090000000 1.0
C      1  0.5804970000000  0.5341920000000  0.5120960000000 1.0
C      1  0.5207030000000  0.4774390000000  0.4476320000000 1.0
C      1  0.5332550000000  0.5244110000000  0.4578470000000 1.0
C      1  0.5225760000000  0.5677810000000  0.4436550000000 1.0
C      1  0.4534700000000  0.4981850000000  0.4292830000000 1.0
C      1  0.5433040000000  0.4919790000000  0.5250780000000 1.0
C      1  0.4102840000000  0.5012680000000  0.5406030000000 1.0
C      1  0.5471940000000  0.4382000000000  0.5314070000000 1.0
C      1  0.5031200000000  0.5616030000000  0.5657390000000 1.0
C      1  0.4823110000000  0.5405360000000  0.5690300000000 1.0
C      1  0.5772260000000  0.5035440000000  0.4720960000000 1.0
C      1  0.4936990000000  0.4766970000000  0.4168440000000 1.0
C      1  0.5025520000000  0.4240390000000  0.5427360000000 1.0
C      1  0.4548230000000  0.4815060000000  0.5499300000000 1.0
C      1  0.4840180000000  0.4369460000000  0.4511110000000 1.0
C      1  0.4544660000000  0.5643750000000  0.5305990000000 1.0
C      1  0.5252730000000  0.5176310000000  0.4848500000000 1.0
C      1  0.5219830000000  0.4421240000000  0.5005400000000 1.0
C      1  0.4902150000000  0.5908110000000  0.4762860000000 1.0
C      1  0.4898930000000  0.5302450000000  0.4281840000000 1.0
C      1  0.4301240000000  0.5000770000000  0.5606130000000 1.0
C      1  0.4902210000000  0.4205470000000  0.4741670000000 1.0
C      1  0.4397920000000  0.5540640000000  0.5091060000000 1.0
C      1  0.5368490000000  0.4351050000000  0.4759400000000 1.0
C      1  0.4952700000000  0.4870820000000  0.5774810000000 1.0
C      1  0.4764030000000  0.4559140000000  0.4315920000000 1.0
C      1  0.5354810000000  0.4512300000000  0.4516250000000 1.0
C      1  0.4959750000000  0.5463410000000  0.4959170000000 1.0
END
