TITL C-4164247-2821-539 23.2211040505421 125000 -25465.9142576223 0 0 171 (C1) n - 1
REM
REM in /home/nfs/bkarasulu/CARBON/AIRSS/Generating-Clusters/ReaxFF-fromJPCA2015/Units_Real/with-SteepDescent/Only-C1/SD-CG/Try1-3A/FIRE-CG
REM
REM
REM
REM
REM
REM ./C.cell (11c1c37f851c82e70ff6c80c92926a4b)
REM
REM compiler GCC version 9.2.1 20190827 (Red Hat 9.2.1-1)
REM options -cpp -mtune=generic -march=x86-64 -g -O0 -fpre-include=/usr/include/finclude/math-vector-fortran.h
REM seed 523762533 2039837012 -1277401639 400239288 -316618189 1126445324 -54201996 -934019267 -1777973830 -2016320102 752900848 622997388 412299263 -52094226 -2069321930 194402582 1140556460 1584812867 -411032485 181199479 -530530862 -1695022201 1564240025 -1943814527 -1778969819 -400062025 97011387 1911549418 -845384047 1283162179 -1992032680 1465867766 1757334453
REM
CELL 1.54180   50.00000   50.00000   50.00000   90.00000   90.00000   90.00000
LATT -1
SFAC C  
C      1  0.4831630000000  0.4924340000000  0.5968620000000 1.0
C      1  0.4894570000000  0.5322980000000  0.5629760000000 1.0
C      1  0.5184710000000  0.5850600000000  0.4654400000000 1.0
C      1  0.5566790000000  0.5856790000000  0.5050660000000 1.0
C      1  0.4489140000000  0.5934050000000  0.5074100000000 1.0
C      1  0.4484610000000  0.5433970000000  0.5885210000000 1.0
C      1  0.5462840000000  0.4705380000000  0.5789190000000 1.0
C      1  0.4426560000000  0.5706330000000  0.5802640000000 1.0
C      1  0.5647470000000  0.4993350000000  0.5821080000000 1.0
C      1  0.5967430000000  0.5034890000000  0.5382260000000 1.0
C      1  0.5467600000000  0.4574450000000  0.4679050000000 1.0
C      1  0.5490580000000  0.4127940000000  0.5134340000000 1.0
C      1  0.5544770000000  0.5244670000000  0.5864130000000 1.0
C      1  0.4564120000000  0.4463550000000  0.4352240000000 1.0
C      1  0.4586250000000  0.4581490000000  0.5404440000000 1.0
C      1  0.5497180000000  0.4867270000000  0.4708760000000 1.0
C      1  0.5222690000000  0.4150690000000  0.4642750000000 1.0
C      1  0.4995370000000  0.3909450000000  0.5267860000000 1.0
C      1  0.5260940000000  0.4286060000000  0.4196380000000 1.0
C      1  0.4110030000000  0.5427990000000  0.4810710000000 1.0
C      1  0.4891740000000  0.5261110000000  0.5241350000000 1.0
C      1  0.5076750000000  0.4416540000000  0.5136090000000 1.0
C      1  0.5043760000000  0.4154970000000  0.5768210000000 1.0
C      1  0.4133780000000  0.4546040000000  0.4647430000000 1.0
C      1  0.5756400000000  0.5522660000000  0.5401440000000 1.0
C      1  0.4675370000000  0.5828100000000  0.4655640000000 1.0
C      1  0.5292470000000  0.5930370000000  0.4912760000000 1.0
C      1  0.3902580000000  0.4958450000000  0.5208050000000 1.0
C      1  0.5870860000000  0.5573680000000  0.4725680000000 1.0
C      1  0.5152020000000  0.5128080000000  0.6120910000000 1.0
C      1  0.4789270000000  0.5414420000000  0.5884880000000 1.0
C      1  0.5953380000000  0.5540840000000  0.5190720000000 1.0
C      1  0.4495000000000  0.5286980000000  0.4313070000000 1.0
C      1  0.4333080000000  0.5646130000000  0.4398050000000 1.0
C      1  0.5660100000000  0.5140830000000  0.3890000000000 1.0
C      1  0.5411960000000  0.4530890000000  0.4155740000000 1.0
C      1  0.4304060000000  0.5853780000000  0.5283260000000 1.0
C      1  0.5507180000000  0.5898200000000  0.5329500000000 1.0
C      1  0.5130710000000  0.5566830000000  0.5566820000000 1.0
C      1  0.5420500000000  0.5143270000000  0.3828660000000 1.0
C      1  0.5816420000000  0.5061820000000  0.5617260000000 1.0
C      1  0.4068780000000  0.4475340000000  0.5153680000000 1.0
C      1  0.4260930000000  0.4280120000000  0.5169190000000 1.0
C      1  0.4993800000000  0.5010730000000  0.4797910000000 1.0
C      1  0.5072460000000  0.3879870000000  0.4981320000000 1.0
C      1  0.5223990000000  0.4660910000000  0.5120350000000 1.0
C      1  0.5063410000000  0.5244940000000  0.4139440000000 1.0
C      1  0.4810330000000  0.4488210000000  0.5816760000000 1.0
C      1  0.5049290000000  0.5840140000000  0.5526030000000 1.0
C      1  0.4592580000000  0.5115820000000  0.4804180000000 1.0
C      1  0.6043990000000  0.5162640000000  0.4906070000000 1.0
C      1  0.5824110000000  0.5286650000000  0.4754230000000 1.0
C      1  0.4922800000000  0.4078440000000  0.4578280000000 1.0
C      1  0.5161420000000  0.4485470000000  0.4680840000000 1.0
C      1  0.4251820000000  0.5662840000000  0.4674220000000 1.0
C      1  0.5235030000000  0.5445700000000  0.5335660000000 1.0
C      1  0.4370350000000  0.4511170000000  0.5588110000000 1.0
C      1  0.4255900000000  0.4909300000000  0.4346900000000 1.0
C      1  0.4430140000000  0.4712110000000  0.5790540000000 1.0
C      1  0.4347670000000  0.4901780000000  0.5138630000000 1.0
C      1  0.5245230000000  0.4623410000000  0.5992300000000 1.0
C      1  0.6032600000000  0.5254600000000  0.5180020000000 1.0
C      1  0.5420110000000  0.4944010000000  0.5399070000000 1.0
C      1  0.4206360000000  0.5394100000000  0.4344930000000 1.0
C      1  0.4319080000000  0.5409250000000  0.5517750000000 1.0
C      1  0.5180170000000  0.5189800000000  0.4680360000000 1.0
C      1  0.4491640000000  0.4211010000000  0.5654330000000 1.0
C      1  0.5947860000000  0.4692840000000  0.5006240000000 1.0
C      1  0.5345340000000  0.5023670000000  0.4528530000000 1.0
C      1  0.4456990000000  0.4085630000000  0.5179300000000 1.0
C      1  0.4732490000000  0.5549630000000  0.4754530000000 1.0
C      1  0.4114750000000  0.5137310000000  0.4464290000000 1.0
C      1  0.4607080000000  0.5685870000000  0.4239800000000 1.0
C      1  0.5301970000000  0.5401560000000  0.4830130000000 1.0
C      1  0.5939800000000  0.5348280000000  0.4326210000000 1.0
C      1  0.4232290000000  0.4264480000000  0.4651930000000 1.0
C      1  0.5576730000000  0.5266630000000  0.4955350000000 1.0
C      1  0.5301010000000  0.5588680000000  0.4557900000000 1.0
C      1  0.5734020000000  0.4487200000000  0.4894490000000 1.0
C      1  0.5406490000000  0.4141460000000  0.4404360000000 1.0
C      1  0.5297090000000  0.4779120000000  0.5549400000000 1.0
C      1  0.5752860000000  0.5151290000000  0.4382540000000 1.0
C      1  0.4788480000000  0.5876950000000  0.5156180000000 1.0
C      1  0.5086840000000  0.5444130000000  0.5091090000000 1.0
C      1  0.4566910000000  0.4021710000000  0.5460400000000 1.0
C      1  0.5047480000000  0.4198280000000  0.5343370000000 1.0
C      1  0.4469190000000  0.4997120000000  0.5760790000000 1.0
C      1  0.5670350000000  0.4508450000000  0.5657360000000 1.0
C      1  0.4583540000000  0.4058580000000  0.4908070000000 1.0
C      1  0.5141730000000  0.5485840000000  0.4291020000000 1.0
C      1  0.4132090000000  0.5401740000000  0.5088730000000 1.0
C      1  0.5681840000000  0.4248480000000  0.4429010000000 1.0
C      1  0.4638010000000  0.5444670000000  0.4092510000000 1.0
C      1  0.4799570000000  0.5877520000000  0.5448200000000 1.0
C      1  0.5403650000000  0.5220470000000  0.5393380000000 1.0
C      1  0.4662210000000  0.5234580000000  0.5064040000000 1.0
C      1  0.4650490000000  0.4679110000000  0.4012020000000 1.0
C      1  0.4628570000000  0.5312590000000  0.4621950000000 1.0
C      1  0.4857360000000  0.4862700000000  0.4601150000000 1.0
C      1  0.4647570000000  0.4553400000000  0.4874320000000 1.0
C      1  0.5625160000000  0.4393250000000  0.5152290000000 1.0
C      1  0.4941990000000  0.4472130000000  0.4882930000000 1.0
C      1  0.4103340000000  0.5146050000000  0.5230110000000 1.0
C      1  0.5089780000000  0.4850320000000  0.6099780000000 1.0
C      1  0.4828710000000  0.3939700000000  0.4808160000000 1.0
C      1  0.4050540000000  0.5045620000000  0.5695260000000 1.0
C      1  0.6072810000000  0.4878650000000  0.4824030000000 1.0
C      1  0.3950540000000  0.4922900000000  0.4922630000000 1.0
C      1  0.5188620000000  0.5052620000000  0.3957610000000 1.0
C      1  0.4972860000000  0.4997620000000  0.5275930000000 1.0
C      1  0.5940330000000  0.4751760000000  0.5283100000000 1.0
C      1  0.4421950000000  0.5877760000000  0.4802390000000 1.0
C      1  0.4750690000000  0.4096660000000  0.5684990000000 1.0
C      1  0.5038810000000  0.4872650000000  0.5047860000000 1.0
C      1  0.4655530000000  0.4690050000000  0.5955670000000 1.0
C      1  0.5650360000000  0.5007680000000  0.4133780000000 1.0
C      1  0.5111650000000  0.5742290000000  0.4153950000000 1.0
C      1  0.4265690000000  0.5565250000000  0.5276140000000 1.0
C      1  0.4768860000000  0.4609680000000  0.4252760000000 1.0
C      1  0.4637100000000  0.4973110000000  0.4009770000000 1.0
C      1  0.5067930000000  0.4402310000000  0.5934350000000 1.0
C      1  0.5544380000000  0.4969420000000  0.4965960000000 1.0
C      1  0.4538890000000  0.5071670000000  0.5267730000000 1.0
C      1  0.5962940000000  0.4554660000000  0.4506540000000 1.0
C      1  0.5608200000000  0.5339190000000  0.5243950000000 1.0
C      1  0.6002890000000  0.5058570000000  0.4347650000000 1.0
C      1  0.4099060000000  0.4583870000000  0.5425350000000 1.0
C      1  0.4525220000000  0.4281310000000  0.4723310000000 1.0
C      1  0.4867160000000  0.4485200000000  0.3992000000000 1.0
C      1  0.4070780000000  0.5258470000000  0.5510800000000 1.0
C      1  0.4442740000000  0.5037070000000  0.4190100000000 1.0
C      1  0.5229790000000  0.4865900000000  0.4359530000000 1.0
C      1  0.4960210000000  0.4278520000000  0.4162260000000 1.0
C      1  0.6056960000000  0.4822950000000  0.4534620000000 1.0
C      1  0.5001820000000  0.4838580000000  0.5525620000000 1.0
C      1  0.5582130000000  0.4524840000000  0.4391150000000 1.0
C      1  0.5856150000000  0.4338050000000  0.4651520000000 1.0
C      1  0.4899760000000  0.5051030000000  0.5712870000000 1.0
C      1  0.5489000000000  0.4775340000000  0.5190730000000 1.0
C      1  0.5308750000000  0.4032020000000  0.4915870000000 1.0
C      1  0.5388460000000  0.5796360000000  0.4206540000000 1.0
C      1  0.4364250000000  0.4673950000000  0.4488840000000 1.0
C      1  0.5778560000000  0.4516360000000  0.5396090000000 1.0
C      1  0.4588250000000  0.4809050000000  0.4701510000000 1.0
C      1  0.5363140000000  0.4833170000000  0.4124070000000 1.0
C      1  0.5596560000000  0.5719750000000  0.5547380000000 1.0
C      1  0.4850140000000  0.5849340000000  0.4274230000000 1.0
C      1  0.5561560000000  0.5694030000000  0.4396520000000 1.0
C      1  0.4609900000000  0.5895830000000  0.5651610000000 1.0
C      1  0.5041550000000  0.4686480000000  0.4458930000000 1.0
C      1  0.4260950000000  0.5175560000000  0.5862810000000 1.0
C      1  0.5057130000000  0.5371610000000  0.6041660000000 1.0
C      1  0.4923920000000  0.5936830000000  0.4544120000000 1.0
C      1  0.5223780000000  0.5987910000000  0.5347360000000 1.0
C      1  0.4502320000000  0.5179400000000  0.5531940000000 1.0
C      1  0.5806540000000  0.5707050000000  0.4981970000000 1.0
C      1  0.4020380000000  0.4648700000000  0.4894440000000 1.0
C      1  0.3985650000000  0.4839130000000  0.5464310000000 1.0
C      1  0.4839770000000  0.5600530000000  0.5018310000000 1.0
C      1  0.5393440000000  0.5617730000000  0.5729830000000 1.0
C      1  0.5837780000000  0.5599150000000  0.4436190000000 1.0
C      1  0.5467300000000  0.4018190000000  0.5415370000000 1.0
C      1  0.4806750000000  0.5219300000000  0.4000720000000 1.0
C      1  0.4510400000000  0.4670280000000  0.5135040000000 1.0
C      1  0.5362030000000  0.5441150000000  0.5958670000000 1.0
C      1  0.4815700000000  0.4603990000000  0.5552000000000 1.0
C      1  0.4028630000000  0.5155820000000  0.4737890000000 1.0
C      1  0.5088590000000  0.6001960000000  0.5097110000000 1.0
C      1  0.4767050000000  0.4233480000000  0.4385070000000 1.0
C      1  0.5252090000000  0.4169460000000  0.5558730000000 1.0
C      1  0.4338060000000  0.5885180000000  0.5575910000000 1.0
END
