TITL C-4164239-2837-448 38.0793482667421 125000 -25958.3189132341 0 0 175 (C1) n - 1
REM
REM in /home/nfs/bkarasulu/CARBON/AIRSS/Generating-Clusters/ReaxFF-fromJPCA2015/Units_Real/with-SteepDescent/Only-C1/SD-CG/Try1-3A/FIRE-CG
REM
REM
REM
REM
REM
REM ./C.cell (11c1c37f851c82e70ff6c80c92926a4b)
REM
REM compiler GCC version 9.2.1 20190827 (Red Hat 9.2.1-1)
REM options -cpp -mtune=generic -march=x86-64 -g -O0 -fpre-include=/usr/include/finclude/math-vector-fortran.h
REM seed -1437034440 -2047089910 -683623213 -607417573 -1228649490 -693323716 -89709370 -1054417357 -412744783 756033937 -153418308 957347548 -1547938900 1738138109 -1645941090 1768166216 614440577 -122538251 -1924275622 -79311742 -242045490 -1046712901 -925259476 1675356388 708021870 -682106903 -958352183 93151688 724152997 97822847 -1296520006 1933022558 -784444183
REM
CELL 1.54180   50.00000   50.00000   50.00000   90.00000   90.00000   90.00000
LATT -1
SFAC C  
C      1  0.4825700000000  0.4868710000000  0.5704860000000 1.0
C      1  0.5328070000000  0.5096030000000  0.3906010000000 1.0
C      1  0.4976770000000  0.6087820000000  0.4802790000000 1.0
C      1  0.4722420000000  0.4503770000000  0.5083350000000 1.0
C      1  0.6064360000000  0.4485030000000  0.5264870000000 1.0
C      1  0.6028940000000  0.4649050000000  0.4747790000000 1.0
C      1  0.5216810000000  0.5241560000000  0.5536100000000 1.0
C      1  0.5369630000000  0.4583000000000  0.5925360000000 1.0
C      1  0.4751540000000  0.4107320000000  0.4584230000000 1.0
C      1  0.5471410000000  0.4850900000000  0.3984120000000 1.0
C      1  0.4342700000000  0.5522240000000  0.5564000000000 1.0
C      1  0.5719140000000  0.5693970000000  0.5645390000000 1.0
C      1  0.4842120000000  0.5290970000000  0.4439690000000 1.0
C      1  0.5420340000000  0.4985380000000  0.4655980000000 1.0
C      1  0.4269970000000  0.5626750000000  0.5285470000000 1.0
C      1  0.4111710000000  0.4789300000000  0.5502040000000 1.0
C      1  0.4314280000000  0.4825580000000  0.5937370000000 1.0
C      1  0.4318250000000  0.5383170000000  0.5131970000000 1.0
C      1  0.5183310000000  0.4368440000000  0.5964460000000 1.0
C      1  0.5199730000000  0.4850540000000  0.4820540000000 1.0
C      1  0.4368500000000  0.4799950000000  0.4199770000000 1.0
C      1  0.4362140000000  0.4362820000000  0.5632960000000 1.0
C      1  0.4678500000000  0.5684130000000  0.4126400000000 1.0
C      1  0.5660060000000  0.5001380000000  0.5637240000000 1.0
C      1  0.5468140000000  0.4043600000000  0.5090500000000 1.0
C      1  0.4814860000000  0.5301090000000  0.3823010000000 1.0
C      1  0.5863180000000  0.5616870000000  0.4928450000000 1.0
C      1  0.4261580000000  0.4563180000000  0.4388950000000 1.0
C      1  0.4482790000000  0.5144320000000  0.5167230000000 1.0
C      1  0.5023180000000  0.4110930000000  0.4271960000000 1.0
C      1  0.5188510000000  0.3986940000000  0.4781980000000 1.0
C      1  0.4940660000000  0.6139570000000  0.5504780000000 1.0
C      1  0.5041940000000  0.4880600000000  0.6127270000000 1.0
C      1  0.4940860000000  0.5412730000000  0.5147660000000 1.0
C      1  0.4780580000000  0.4496440000000  0.5381070000000 1.0
C      1  0.4459090000000  0.4101520000000  0.4544030000000 1.0
C      1  0.4902190000000  0.5067950000000  0.4635150000000 1.0
C      1  0.4187660000000  0.4348690000000  0.4869900000000 1.0
C      1  0.5659510000000  0.5757920000000  0.5145170000000 1.0
C      1  0.4387540000000  0.5509630000000  0.4408980000000 1.0
C      1  0.5110760000000  0.5453010000000  0.6074570000000 1.0
C      1  0.4727870000000  0.5879680000000  0.4318000000000 1.0
C      1  0.4994860000000  0.5326500000000  0.4197190000000 1.0
C      1  0.4447050000000  0.5874100000000  0.5253300000000 1.0
C      1  0.5268790000000  0.5459920000000  0.4779720000000 1.0
C      1  0.3981200000000  0.5284400000000  0.4791720000000 1.0
C      1  0.4560240000000  0.5905430000000  0.4577140000000 1.0
C      1  0.5337880000000  0.4586410000000  0.4018110000000 1.0
C      1  0.5181980000000  0.3947210000000  0.5078430000000 1.0
C      1  0.5145710000000  0.5562670000000  0.4281130000000 1.0
C      1  0.4350730000000  0.4118110000000  0.4811980000000 1.0
C      1  0.4216980000000  0.5093210000000  0.4482940000000 1.0
C      1  0.5399420000000  0.4793000000000  0.4453250000000 1.0
C      1  0.4683500000000  0.6039120000000  0.4811340000000 1.0
C      1  0.5095210000000  0.4006020000000  0.5574950000000 1.0
C      1  0.5431350000000  0.4441160000000  0.5641760000000 1.0
C      1  0.4895610000000  0.4348980000000  0.4130590000000 1.0
C      1  0.4076400000000  0.4875100000000  0.5058140000000 1.0
C      1  0.5014640000000  0.5819930000000  0.4357110000000 1.0
C      1  0.4123510000000  0.4556730000000  0.4652340000000 1.0
C      1  0.5140330000000  0.6078900000000  0.5050650000000 1.0
C      1  0.5378540000000  0.5904820000000  0.5029490000000 1.0
C      1  0.4884140000000  0.5116360000000  0.6149520000000 1.0
C      1  0.6144370000000  0.4795530000000  0.4951180000000 1.0
C      1  0.5469340000000  0.5348310000000  0.3961300000000 1.0
C      1  0.5431940000000  0.5185850000000  0.4449000000000 1.0
C      1  0.5825190000000  0.4873780000000  0.5424880000000 1.0
C      1  0.5843900000000  0.4412680000000  0.4813790000000 1.0
C      1  0.4750890000000  0.5571570000000  0.5024580000000 1.0
C      1  0.4814390000000  0.4360600000000  0.4717390000000 1.0
C      1  0.5800810000000  0.4745110000000  0.4372740000000 1.0
C      1  0.4840640000000  0.4949020000000  0.5201390000000 1.0
C      1  0.5672270000000  0.4480920000000  0.4428920000000 1.0
C      1  0.3992130000000  0.4784670000000  0.4768660000000 1.0
C      1  0.5355950000000  0.5485910000000  0.5521330000000 1.0
C      1  0.5686150000000  0.5199930000000  0.5840770000000 1.0
C      1  0.4712600000000  0.4347690000000  0.5844900000000 1.0
C      1  0.5317490000000  0.4607390000000  0.5412240000000 1.0
C      1  0.5680260000000  0.4196910000000  0.5243080000000 1.0
C      1  0.5932240000000  0.5305550000000  0.4423880000000 1.0
C      1  0.5699680000000  0.4902800000000  0.4154370000000 1.0
C      1  0.5743680000000  0.5781590000000  0.5437070000000 1.0
C      1  0.5125280000000  0.5935410000000  0.4603820000000 1.0
C      1  0.4333690000000  0.4237890000000  0.5366130000000 1.0
C      1  0.4888030000000  0.6110080000000  0.5216400000000 1.0
C      1  0.5670250000000  0.5468960000000  0.4140750000000 1.0
C      1  0.4858760000000  0.4776170000000  0.5432480000000 1.0
C      1  0.5166200000000  0.4376060000000  0.5111330000000 1.0
C      1  0.4620030000000  0.4812730000000  0.4078800000000 1.0
C      1  0.5895610000000  0.4318190000000  0.5083990000000 1.0
C      1  0.5536690000000  0.5488640000000  0.5211890000000 1.0
C      1  0.5374420000000  0.4624940000000  0.4881320000000 1.0
C      1  0.4391180000000  0.5358420000000  0.4155270000000 1.0
C      1  0.5568020000000  0.4401120000000  0.4712020000000 1.0
C      1  0.5784610000000  0.5552450000000  0.4411160000000 1.0
C      1  0.4752390000000  0.5203910000000  0.5268540000000 1.0
C      1  0.5872080000000  0.4560270000000  0.5460030000000 1.0
C      1  0.5246430000000  0.4194700000000  0.5734220000000 1.0
C      1  0.3973720000000  0.5120120000000  0.5230720000000 1.0
C      1  0.5710680000000  0.5583070000000  0.4692680000000 1.0
C      1  0.6218610000000  0.4744630000000  0.5209980000000 1.0
C      1  0.3967210000000  0.5625320000000  0.5029770000000 1.0
C      1  0.4550740000000  0.4695760000000  0.4977120000000 1.0
C      1  0.5997450000000  0.5172980000000  0.4668300000000 1.0
C      1  0.4280330000000  0.5085780000000  0.4194990000000 1.0
C      1  0.4572750000000  0.4087740000000  0.5303970000000 1.0
C      1  0.4618160000000  0.5620970000000  0.5554620000000 1.0
C      1  0.5523670000000  0.5387520000000  0.4905170000000 1.0
C      1  0.4072040000000  0.4643010000000  0.5257090000000 1.0
C      1  0.5378090000000  0.5383440000000  0.6050400000000 1.0
C      1  0.4558140000000  0.4041650000000  0.5023890000000 1.0
C      1  0.5961060000000  0.4886030000000  0.4589060000000 1.0
C      1  0.4879920000000  0.5541430000000  0.5708600000000 1.0
C      1  0.4836580000000  0.5501030000000  0.6029970000000 1.0
C      1  0.4961850000000  0.4001650000000  0.5302830000000 1.0
C      1  0.5590140000000  0.5099340000000  0.4917300000000 1.0
C      1  0.4405050000000  0.5130780000000  0.5900350000000 1.0
C      1  0.4988010000000  0.4291730000000  0.5305020000000 1.0
C      1  0.5326440000000  0.4849560000000  0.6033420000000 1.0
C      1  0.5477100000000  0.5108820000000  0.6026290000000 1.0
C      1  0.5731000000000  0.5267640000000  0.5275720000000 1.0
C      1  0.4902660000000  0.4441110000000  0.5997190000000 1.0
C      1  0.4316720000000  0.5743160000000  0.4577830000000 1.0
C      1  0.5013730000000  0.5108430000000  0.3945400000000 1.0
C      1  0.5285750000000  0.5419780000000  0.4490310000000 1.0
C      1  0.4602490000000  0.5465920000000  0.3962790000000 1.0
C      1  0.4273550000000  0.5430930000000  0.4845080000000 1.0
C      1  0.4660240000000  0.5146570000000  0.4775420000000 1.0
C      1  0.4607000000000  0.5430670000000  0.4815650000000 1.0
C      1  0.5004620000000  0.3969840000000  0.4526550000000 1.0
C      1  0.5679850000000  0.4349360000000  0.5491220000000 1.0
C      1  0.4572380000000  0.5012710000000  0.5680740000000 1.0
C      1  0.4962500000000  0.5252790000000  0.5664690000000 1.0
C      1  0.5112290000000  0.5285420000000  0.4973480000000 1.0
C      1  0.5677510000000  0.5186540000000  0.4271880000000 1.0
C      1  0.5298000000000  0.5786380000000  0.4787850000000 1.0
C      1  0.3881500000000  0.5345680000000  0.5060650000000 1.0
C      1  0.4385630000000  0.4912880000000  0.5045320000000 1.0
C      1  0.4616320000000  0.6056600000000  0.5093800000000 1.0
C      1  0.4246110000000  0.5269070000000  0.5668690000000 1.0
C      1  0.5071030000000  0.5011600000000  0.5022950000000 1.0
C      1  0.4724980000000  0.4586400000000  0.4552080000000 1.0
C      1  0.5041680000000  0.4571760000000  0.3997260000000 1.0
C      1  0.4082490000000  0.5093400000000  0.5495240000000 1.0
C      1  0.5145580000000  0.4814890000000  0.4332370000000 1.0
C      1  0.4861960000000  0.4714020000000  0.5964460000000 1.0
C      1  0.4676360000000  0.5693900000000  0.5274710000000 1.0
C      1  0.4877920000000  0.4809990000000  0.3978220000000 1.0
C      1  0.4172410000000  0.4392900000000  0.5157970000000 1.0
C      1  0.4668170000000  0.5263020000000  0.6067920000000 1.0
C      1  0.5233460000000  0.4551300000000  0.4418220000000 1.0
C      1  0.6016410000000  0.5245570000000  0.5188210000000 1.0
C      1  0.5449370000000  0.4111220000000  0.4806120000000 1.0
C      1  0.4515070000000  0.4727770000000  0.4708450000000 1.0
C      1  0.5378390000000  0.5027440000000  0.5589820000000 1.0
C      1  0.4650800000000  0.5506540000000  0.4533760000000 1.0
C      1  0.5636280000000  0.5009100000000  0.5178250000000 1.0
C      1  0.5278570000000  0.4854320000000  0.5457490000000 1.0
C      1  0.3962130000000  0.5040220000000  0.4637620000000 1.0
C      1  0.4249690000000  0.4644700000000  0.5721560000000 1.0
C      1  0.5566830000000  0.5475080000000  0.5773240000000 1.0
C      1  0.6001390000000  0.5354730000000  0.4914780000000 1.0
C      1  0.4920650000000  0.4808900000000  0.4501940000000 1.0
C      1  0.4163090000000  0.5714560000000  0.4841530000000 1.0
C      1  0.4652350000000  0.4443020000000  0.4262880000000 1.0
C      1  0.4451940000000  0.5002720000000  0.4645390000000 1.0
C      1  0.5448320000000  0.4433780000000  0.4246230000000 1.0
C      1  0.6085450000000  0.4990160000000  0.5310540000000 1.0
C      1  0.4402600000000  0.4313790000000  0.4341750000000 1.0
C      1  0.5347930000000  0.4528660000000  0.5130340000000 1.0
C      1  0.4628240000000  0.4310490000000  0.5628970000000 1.0
C      1  0.4713450000000  0.5209750000000  0.5538250000000 1.0
C      1  0.5141440000000  0.5672620000000  0.5601000000000 1.0
C      1  0.5158900000000  0.5963320000000  0.5623780000000 1.0
C      1  0.4754140000000  0.4258240000000  0.4963100000000 1.0
END
