TITL C-4164243-3780-402 12.745780989713 125000 -22493.4244432913 0 0 152 (C1) n - 1
REM
REM in /home/nfs/bkarasulu/CARBON/AIRSS/Generating-Clusters/ReaxFF-fromJPCA2015/Units_Real/with-SteepDescent/Only-C1/SD-CG/Try1-3A/FIRE-CG
REM
REM
REM
REM
REM
REM ./C.cell (11c1c37f851c82e70ff6c80c92926a4b)
REM
REM compiler GCC version 9.2.1 20190827 (Red Hat 9.2.1-1)
REM options -cpp -mtune=generic -march=x86-64 -g -O0 -fpre-include=/usr/include/finclude/math-vector-fortran.h
REM seed 212910297 692217968 887333913 -1922755717 -205633144 -1574787821 708929520 -1111081235 1461773397 582314273 1496560904 1441605422 -282101495 -1621240378 1148570831 -289315667 302818572 688559220 2107355052 -2127826725 -1359617377 221857687 -2023549225 2127723209 182808477 -1322116595 618193321 -538910752 1691546450 271108541 -264803523 1385174020 679854956
REM
CELL 1.54180   50.00000   50.00000   50.00000   90.00000   90.00000   90.00000
LATT -1
SFAC C  
C      1  0.5357990000000  0.5901120000000  0.4787560000000 1.0
C      1  0.5259010000000  0.4943240000000  0.5938490000000 1.0
C      1  0.4573050000000  0.5887040000000  0.4841460000000 1.0
C      1  0.5799510000000  0.4788800000000  0.4445440000000 1.0
C      1  0.4239100000000  0.4440670000000  0.5535220000000 1.0
C      1  0.5366240000000  0.4965750000000  0.5480310000000 1.0
C      1  0.4585620000000  0.4757880000000  0.4561420000000 1.0
C      1  0.4736160000000  0.5508780000000  0.5940840000000 1.0
C      1  0.3998840000000  0.4818440000000  0.4758470000000 1.0
C      1  0.4664190000000  0.5176600000000  0.4458150000000 1.0
C      1  0.5456600000000  0.5914870000000  0.5061640000000 1.0
C      1  0.5596660000000  0.5393040000000  0.5095270000000 1.0
C      1  0.5188630000000  0.5211530000000  0.6012720000000 1.0
C      1  0.5507160000000  0.5481010000000  0.4477190000000 1.0
C      1  0.5251860000000  0.5561300000000  0.4086190000000 1.0
C      1  0.4473990000000  0.5371820000000  0.5870040000000 1.0
C      1  0.4235420000000  0.4713980000000  0.5626690000000 1.0
C      1  0.5181340000000  0.5171440000000  0.4250520000000 1.0
C      1  0.4853350000000  0.4903360000000  0.5063510000000 1.0
C      1  0.5062130000000  0.4236090000000  0.4145810000000 1.0
C      1  0.4323410000000  0.5049570000000  0.5013730000000 1.0
C      1  0.4165780000000  0.5327010000000  0.4346750000000 1.0
C      1  0.4376330000000  0.5157600000000  0.4524000000000 1.0
C      1  0.4410880000000  0.4124260000000  0.5136430000000 1.0
C      1  0.5585040000000  0.5281280000000  0.5751950000000 1.0
C      1  0.5518230000000  0.4969630000000  0.5792930000000 1.0
C      1  0.5604550000000  0.5639980000000  0.5523610000000 1.0
C      1  0.4715020000000  0.5743320000000  0.5559280000000 1.0
C      1  0.4089680000000  0.5401930000000  0.4943340000000 1.0
C      1  0.4807210000000  0.4956580000000  0.4560500000000 1.0
C      1  0.5061860000000  0.5857840000000  0.4797550000000 1.0
C      1  0.3978140000000  0.5182780000000  0.5452660000000 1.0
C      1  0.4846720000000  0.5194670000000  0.5422970000000 1.0
C      1  0.4174340000000  0.4454370000000  0.4640920000000 1.0
C      1  0.4225050000000  0.4344930000000  0.5253280000000 1.0
C      1  0.5045180000000  0.4482980000000  0.4901540000000 1.0
C      1  0.5348050000000  0.5407830000000  0.5871710000000 1.0
C      1  0.4560610000000  0.4130710000000  0.4885870000000 1.0
C      1  0.5348470000000  0.4340140000000  0.5639720000000 1.0
C      1  0.4888580000000  0.5912840000000  0.4363070000000 1.0
C      1  0.5240050000000  0.4171760000000  0.5415440000000 1.0
C      1  0.5479920000000  0.5177410000000  0.4897630000000 1.0
C      1  0.5393580000000  0.4243940000000  0.5169320000000 1.0
C      1  0.5788930000000  0.5080940000000  0.4368010000000 1.0
C      1  0.4128440000000  0.4720740000000  0.4516520000000 1.0
C      1  0.4897860000000  0.4168950000000  0.4382740000000 1.0
C      1  0.4966400000000  0.4503400000000  0.4060830000000 1.0
C      1  0.5206480000000  0.5658590000000  0.5247480000000 1.0
C      1  0.5109540000000  0.4629810000000  0.4509980000000 1.0
C      1  0.5781360000000  0.5322010000000  0.4521790000000 1.0
C      1  0.4831210000000  0.4328020000000  0.5625180000000 1.0
C      1  0.5832530000000  0.5268130000000  0.5248450000000 1.0
C      1  0.5266310000000  0.5933120000000  0.5321660000000 1.0
C      1  0.5270440000000  0.4563930000000  0.4733030000000 1.0
C      1  0.4458620000000  0.5056060000000  0.5266790000000 1.0
C      1  0.6029490000000  0.4727830000000  0.5376420000000 1.0
C      1  0.5786520000000  0.5690830000000  0.4776400000000 1.0
C      1  0.4602810000000  0.5306870000000  0.5283590000000 1.0
C      1  0.5163000000000  0.4669430000000  0.4190630000000 1.0
C      1  0.4446830000000  0.4343630000000  0.4701630000000 1.0
C      1  0.5099210000000  0.4035230000000  0.4795130000000 1.0
C      1  0.5348800000000  0.4752490000000  0.5081890000000 1.0
C      1  0.4205540000000  0.5551450000000  0.5152930000000 1.0
C      1  0.5535890000000  0.4298970000000  0.4404650000000 1.0
C      1  0.5871150000000  0.4389470000000  0.5096820000000 1.0
C      1  0.4585470000000  0.4822520000000  0.5374470000000 1.0
C      1  0.4034860000000  0.4556140000000  0.4886040000000 1.0
C      1  0.4843460000000  0.4063400000000  0.4945900000000 1.0
C      1  0.5132130000000  0.4787660000000  0.5537780000000 1.0
C      1  0.4905290000000  0.5682720000000  0.5780340000000 1.0
C      1  0.4201260000000  0.5544630000000  0.4737560000000 1.0
C      1  0.4491910000000  0.5726640000000  0.5073310000000 1.0
C      1  0.5684410000000  0.4735570000000  0.5704820000000 1.0
C      1  0.4801760000000  0.4648850000000  0.4944420000000 1.0
C      1  0.4563220000000  0.4304430000000  0.5518750000000 1.0
C      1  0.5585360000000  0.4488670000000  0.5584040000000 1.0
C      1  0.5627470000000  0.4578280000000  0.4330130000000 1.0
C      1  0.4038020000000  0.4894690000000  0.5504110000000 1.0
C      1  0.4518350000000  0.4584130000000  0.4870010000000 1.0
C      1  0.5120370000000  0.4018780000000  0.4498940000000 1.0
C      1  0.5884920000000  0.4855890000000  0.5561390000000 1.0
C      1  0.5621670000000  0.5201240000000  0.4152330000000 1.0
C      1  0.4990640000000  0.4283660000000  0.5389680000000 1.0
C      1  0.5657920000000  0.5715060000000  0.5034690000000 1.0
C      1  0.5507970000000  0.5466600000000  0.4191800000000 1.0
C      1  0.5744100000000  0.5392640000000  0.5540700000000 1.0
C      1  0.5708910000000  0.4344370000000  0.5342950000000 1.0
C      1  0.5546210000000  0.5743310000000  0.4625240000000 1.0
C      1  0.4783310000000  0.5319730000000  0.4007490000000 1.0
C      1  0.5095300000000  0.5780420000000  0.4212330000000 1.0
C      1  0.5019830000000  0.5140540000000  0.4982890000000 1.0
C      1  0.3929270000000  0.4994270000000  0.5244680000000 1.0
C      1  0.4697440000000  0.5406740000000  0.4282120000000 1.0
C      1  0.5947690000000  0.4750300000000  0.4696950000000 1.0
C      1  0.5992890000000  0.5267110000000  0.4990850000000 1.0
C      1  0.5206800000000  0.4571790000000  0.5750750000000 1.0
C      1  0.4343250000000  0.5659970000000  0.4523580000000 1.0
C      1  0.5545300000000  0.4194290000000  0.4685170000000 1.0
C      1  0.4543860000000  0.4833000000000  0.4120310000000 1.0
C      1  0.5279550000000  0.5229230000000  0.5392300000000 1.0
C      1  0.5219500000000  0.4498550000000  0.5138980000000 1.0
C      1  0.4025950000000  0.5063210000000  0.4966670000000 1.0
C      1  0.5403350000000  0.5008200000000  0.4125290000000 1.0
C      1  0.5220240000000  0.5322170000000  0.4502510000000 1.0
C      1  0.4268610000000  0.4568610000000  0.5066370000000 1.0
C      1  0.4533050000000  0.5526910000000  0.5475300000000 1.0
C      1  0.4171210000000  0.5600680000000  0.4260450000000 1.0
C      1  0.5954820000000  0.4994250000000  0.4879400000000 1.0
C      1  0.4567410000000  0.4544000000000  0.5331700000000 1.0
C      1  0.5979150000000  0.4459340000000  0.5328390000000 1.0
C      1  0.5409470000000  0.5466620000000  0.5305630000000 1.0
C      1  0.5538220000000  0.4469070000000  0.4783290000000 1.0
C      1  0.4663370000000  0.5066130000000  0.4038650000000 1.0
C      1  0.4691010000000  0.5870520000000  0.5297850000000 1.0
C      1  0.4815180000000  0.5949540000000  0.4676450000000 1.0
C      1  0.5000410000000  0.5733520000000  0.5058260000000 1.0
C      1  0.4444320000000  0.5211890000000  0.4820530000000 1.0
C      1  0.4371700000000  0.4870880000000  0.4403020000000 1.0
C      1  0.4599380000000  0.5421100000000  0.4951550000000 1.0
C      1  0.5803650000000  0.4939600000000  0.5299400000000 1.0
C      1  0.5527830000000  0.4847120000000  0.5281950000000 1.0
C      1  0.5683520000000  0.5028080000000  0.4845800000000 1.0
C      1  0.4886920000000  0.5259120000000  0.5972660000000 1.0
C      1  0.4514870000000  0.5092710000000  0.5879780000000 1.0
C      1  0.4784450000000  0.5492830000000  0.4725760000000 1.0
C      1  0.5919530000000  0.5425260000000  0.4751960000000 1.0
C      1  0.5004910000000  0.4908540000000  0.5772120000000 1.0
C      1  0.5443340000000  0.4715620000000  0.4144350000000 1.0
C      1  0.5048600000000  0.5252830000000  0.5248150000000 1.0
C      1  0.5077470000000  0.5332230000000  0.4027370000000 1.0
C      1  0.5361770000000  0.4106100000000  0.4899890000000 1.0
C      1  0.4911180000000  0.4513520000000  0.5825270000000 1.0
C      1  0.4604700000000  0.4075000000000  0.5333870000000 1.0
C      1  0.4896890000000  0.5154910000000  0.5702790000000 1.0
C      1  0.4308280000000  0.5492730000000  0.5649730000000 1.0
C      1  0.5077630000000  0.4896440000000  0.4625190000000 1.0
C      1  0.4882850000000  0.4423490000000  0.4529000000000 1.0
C      1  0.4136160000000  0.5435350000000  0.5416000000000 1.0
C      1  0.4953980000000  0.5967220000000  0.5232830000000 1.0
C      1  0.4881560000000  0.4067280000000  0.5240120000000 1.0
C      1  0.4870330000000  0.4889520000000  0.5353520000000 1.0
C      1  0.4653760000000  0.4526030000000  0.4416010000000 1.0
C      1  0.4470130000000  0.4825440000000  0.5821590000000 1.0
C      1  0.5809510000000  0.4546960000000  0.4859950000000 1.0
C      1  0.4693080000000  0.4585860000000  0.4140710000000 1.0
C      1  0.5024130000000  0.5344550000000  0.4712460000000 1.0
C      1  0.5202420000000  0.5650320000000  0.5767320000000 1.0
C      1  0.4738680000000  0.4737250000000  0.5881780000000 1.0
C      1  0.5246440000000  0.4969930000000  0.4877760000000 1.0
C      1  0.4645460000000  0.5619290000000  0.4484810000000 1.0
C      1  0.5372130000000  0.5795870000000  0.5588860000000 1.0
C      1  0.5306400000000  0.4150570000000  0.4298420000000 1.0
END
