TITL C-4164243-3780-523 48.7056208436569 125000 -12578.2630445294 0 0 85 (C1) n - 1
REM
REM in /home/nfs/bkarasulu/CARBON/AIRSS/Generating-Clusters/ReaxFF-fromJPCA2015/Units_Real/with-SteepDescent/Only-C1/SD-CG/Try1-3A/FIRE-CG
REM
REM
REM
REM
REM
REM ./C.cell (11c1c37f851c82e70ff6c80c92926a4b)
REM
REM compiler GCC version 9.2.1 20190827 (Red Hat 9.2.1-1)
REM options -cpp -mtune=generic -march=x86-64 -g -O0 -fpre-include=/usr/include/finclude/math-vector-fortran.h
REM seed -546775730 -385493325 -2078070644 178807064 673404024 1526771844 94942219 -1309874669 1232490517 -1645266334 -1688254235 -1767805371 858432591 -805647267 1163856591 -459750791 1100823986 -1515598289 -2033300400 2137096774 875931557 840821053 1792467186 478496340 846795817 -1251960215 1401614715 -115965529 490735563 442060439 553164911 -1299794377 1092027692
REM
CELL 1.54180   50.00000   50.00000   50.00000   90.00000   90.00000   90.00000
LATT -1
SFAC C  
C      1  0.4459960000000  0.5346910000000  0.5608380000000 1.0
C      1  0.5466370000000  0.5841330000000  0.4814100000000 1.0
C      1  0.4348880000000  0.4510370000000  0.5522190000000 1.0
C      1  0.5392700000000  0.5145740000000  0.4968640000000 1.0
C      1  0.5004830000000  0.4129010000000  0.4694750000000 1.0
C      1  0.4489940000000  0.4720410000000  0.4252240000000 1.0
C      1  0.5199380000000  0.5597180000000  0.5504140000000 1.0
C      1  0.5214070000000  0.4601740000000  0.4668790000000 1.0
C      1  0.5714320000000  0.5330030000000  0.5333250000000 1.0
C      1  0.4286760000000  0.4326790000000  0.4814780000000 1.0
C      1  0.5209550000000  0.5742180000000  0.5283950000000 1.0
C      1  0.5646800000000  0.4252190000000  0.5115620000000 1.0
C      1  0.5025290000000  0.4690730000000  0.4107330000000 1.0
C      1  0.5637030000000  0.5114860000000  0.5151520000000 1.0
C      1  0.5131750000000  0.4978000000000  0.5106980000000 1.0
C      1  0.4983670000000  0.4899570000000  0.5713860000000 1.0
C      1  0.5195450000000  0.5877290000000  0.4805880000000 1.0
C      1  0.5652360000000  0.5646670000000  0.4686870000000 1.0
C      1  0.4474680000000  0.4695340000000  0.5029100000000 1.0
C      1  0.4935870000000  0.5751600000000  0.5170930000000 1.0
C      1  0.5346800000000  0.4597870000000  0.4934010000000 1.0
C      1  0.4707020000000  0.4827420000000  0.4968330000000 1.0
C      1  0.4809950000000  0.4326470000000  0.5313240000000 1.0
C      1  0.4338850000000  0.4982510000000  0.4272390000000 1.0
C      1  0.5816080000000  0.5508950000000  0.4890180000000 1.0
C      1  0.5341950000000  0.4708610000000  0.5474140000000 1.0
C      1  0.4538600000000  0.5094060000000  0.5739300000000 1.0
C      1  0.4895870000000  0.5379280000000  0.5763710000000 1.0
C      1  0.4512210000000  0.4277580000000  0.4630120000000 1.0
C      1  0.4405530000000  0.5505700000000  0.4924330000000 1.0
C      1  0.4555330000000  0.4863770000000  0.5554770000000 1.0
C      1  0.4395400000000  0.5073920000000  0.4768360000000 1.0
C      1  0.4504200000000  0.5434750000000  0.4445800000000 1.0
C      1  0.4360940000000  0.5179360000000  0.4488440000000 1.0
C      1  0.5397410000000  0.5228300000000  0.5769890000000 1.0
C      1  0.5183580000000  0.5447020000000  0.5730220000000 1.0
C      1  0.4710450000000  0.5493160000000  0.5565560000000 1.0
C      1  0.4835660000000  0.4909900000000  0.5456620000000 1.0
C      1  0.5301890000000  0.5414620000000  0.4900210000000 1.0
C      1  0.4424410000000  0.4516480000000  0.4473080000000 1.0
C      1  0.4775200000000  0.5272770000000  0.5129420000000 1.0
C      1  0.5558100000000  0.4535900000000  0.5387830000000 1.0
C      1  0.4776690000000  0.5532770000000  0.5279820000000 1.0
C      1  0.5238640000000  0.4895100000000  0.4228040000000 1.0
C      1  0.5527160000000  0.5434730000000  0.4529300000000 1.0
C      1  0.5643740000000  0.5219740000000  0.5604260000000 1.0
C      1  0.4977790000000  0.5528860000000  0.4510330000000 1.0
C      1  0.4408710000000  0.4391890000000  0.5080590000000 1.0
C      1  0.5504030000000  0.4975920000000  0.4690370000000 1.0
C      1  0.4902980000000  0.4938810000000  0.4917080000000 1.0
C      1  0.5705620000000  0.5559410000000  0.5155100000000 1.0
C      1  0.5288230000000  0.4844430000000  0.4502990000000 1.0
C      1  0.5249830000000  0.4718150000000  0.5179400000000 1.0
C      1  0.5827670000000  0.4721570000000  0.4996530000000 1.0
C      1  0.4939290000000  0.5099800000000  0.5281980000000 1.0
C      1  0.4750500000000  0.4724240000000  0.4156550000000 1.0
C      1  0.4290050000000  0.4818770000000  0.4844420000000 1.0
C      1  0.4792370000000  0.5685220000000  0.4665500000000 1.0
C      1  0.4781700000000  0.5410450000000  0.4296450000000 1.0
C      1  0.5876510000000  0.5009700000000  0.5018260000000 1.0
C      1  0.4501990000000  0.5615450000000  0.4665350000000 1.0
C      1  0.4580420000000  0.4585970000000  0.5645090000000 1.0
C      1  0.5682990000000  0.5194330000000  0.4594620000000 1.0
C      1  0.4251690000000  0.5390370000000  0.5404920000000 1.0
C      1  0.5875450000000  0.5228160000000  0.4811100000000 1.0
C      1  0.4538540000000  0.5247810000000  0.4955850000000 1.0
C      1  0.5129050000000  0.4354310000000  0.4526820000000 1.0
C      1  0.4202580000000  0.5526150000000  0.5146180000000 1.0
C      1  0.4931710000000  0.5844010000000  0.4883480000000 1.0
C      1  0.5045330000000  0.4477400000000  0.4293040000000 1.0
C      1  0.5471910000000  0.4064130000000  0.4993740000000 1.0
C      1  0.5468800000000  0.4994080000000  0.5628770000000 1.0
C      1  0.5211730000000  0.4003400000000  0.4851010000000 1.0
C      1  0.5235550000000  0.5434780000000  0.4616040000000 1.0
C      1  0.4188800000000  0.4387790000000  0.5336910000000 1.0
C      1  0.4742260000000  0.4194480000000  0.4798980000000 1.0
C      1  0.5069020000000  0.4633010000000  0.5647930000000 1.0
C      1  0.5598070000000  0.4713010000000  0.4828890000000 1.0
C      1  0.4839050000000  0.5293210000000  0.4067150000000 1.0
C      1  0.5431860000000  0.5651290000000  0.5066170000000 1.0
C      1  0.5771220000000  0.4497600000000  0.5205610000000 1.0
C      1  0.4849080000000  0.4457190000000  0.5558920000000 1.0
C      1  0.4810940000000  0.5109650000000  0.5839860000000 1.0
C      1  0.4223620000000  0.4581020000000  0.4675450000000 1.0
C      1  0.4681710000000  0.4235460000000  0.5087930000000 1.0
END
