TITL C-4164240-4114-423 -3.1119483516572 125000 -5833.30902090442 0 0 41 (C1) n - 1
REM
REM in /home/nfs/bkarasulu/CARBON/AIRSS/Generating-Clusters/ReaxFF-fromJPCA2015/Units_Real/with-SteepDescent/Only-C1/SD-CG/Try1-3A/FIRE-CG
REM
REM
REM
REM
REM
REM ./C.cell (11c1c37f851c82e70ff6c80c92926a4b)
REM
REM compiler GCC version 9.2.1 20190827 (Red Hat 9.2.1-1)
REM options -cpp -mtune=generic -march=x86-64 -g -O0 -fpre-include=/usr/include/finclude/math-vector-fortran.h
REM seed -1359079793 1464617464 -1545182413 674156322 76603072 918748739 -614929364 -1662721513 1169390177 1874685145 1161370232 343600703 -2136274883 -166514526 -1062439014 -1781719677 773422271 -644146761 320236116 1805589286 -1600418924 -254863502 1869197653 -1887894145 -360571366 -460972515 -1708893443 1008716632 -1713896507 661881405 -1104634631 -1930117999 1769704573
REM
CELL 1.54180   50.00000   50.00000   50.00000   90.00000   90.00000   90.00000
LATT -1
SFAC C  
C      1  0.4658960000000  0.4856270000000  0.4846350000000 1.0
C      1  0.4907280000000  0.4512230000000  0.4558000000000 1.0
C      1  0.5471680000000  0.4658830000000  0.4928390000000 1.0
C      1  0.5481050000000  0.4869910000000  0.4748140000000 1.0
C      1  0.5405040000000  0.5347720000000  0.4702630000000 1.0
C      1  0.4892110000000  0.5143510000000  0.5547300000000 1.0
C      1  0.4927050000000  0.4318120000000  0.5025750000000 1.0
C      1  0.4945880000000  0.4843600000000  0.4907650000000 1.0
C      1  0.4838250000000  0.5238690000000  0.5030690000000 1.0
C      1  0.5384880000000  0.4467770000000  0.5119740000000 1.0
C      1  0.5094720000000  0.5053650000000  0.5027000000000 1.0
C      1  0.5236400000000  0.5040910000000  0.5289050000000 1.0
C      1  0.5280900000000  0.4920490000000  0.4527350000000 1.0
C      1  0.4603390000000  0.4607110000000  0.4813470000000 1.0
C      1  0.4808980000000  0.5445960000000  0.5268210000000 1.0
C      1  0.5107430000000  0.4698530000000  0.4465650000000 1.0
C      1  0.4767090000000  0.5277840000000  0.4696870000000 1.0
C      1  0.4610120000000  0.5080190000000  0.4585760000000 1.0
C      1  0.4462880000000  0.4898930000000  0.5054550000000 1.0
C      1  0.5195470000000  0.4542330000000  0.5346800000000 1.0
C      1  0.5301890000000  0.5545350000000  0.4897730000000 1.0
C      1  0.5192950000000  0.4361580000000  0.4929040000000 1.0
C      1  0.4798060000000  0.5721660000000  0.4886080000000 1.0
C      1  0.5248320000000  0.5316660000000  0.5389160000000 1.0
C      1  0.4544940000000  0.5666880000000  0.5026270000000 1.0
C      1  0.5231280000000  0.5209900000000  0.4508500000000 1.0
C      1  0.4520070000000  0.5424150000000  0.5218660000000 1.0
C      1  0.4559800000000  0.5162140000000  0.5098450000000 1.0
C      1  0.5387180000000  0.5470230000000  0.5174630000000 1.0
C      1  0.5458290000000  0.5139390000000  0.4895600000000 1.0
C      1  0.5040860000000  0.5602810000000  0.4766590000000 1.0
C      1  0.4488180000000  0.4718020000000  0.5298330000000 1.0
C      1  0.4738030000000  0.4641840000000  0.5425300000000 1.0
C      1  0.4907880000000  0.4865470000000  0.5564850000000 1.0
C      1  0.4983690000000  0.5403550000000  0.5503220000000 1.0
C      1  0.5181660000000  0.4810100000000  0.5462070000000 1.0
C      1  0.5548200000000  0.5265630000000  0.5070770000000 1.0
C      1  0.5087910000000  0.4629140000000  0.4756590000000 1.0
C      1  0.5008200000000  0.5387180000000  0.4566000000000 1.0
C      1  0.4928880000000  0.4450460000000  0.5291150000000 1.0
C      1  0.4764180000000  0.4385250000000  0.4781640000000 1.0
END
