TITL C-4164245-3996-731 10.2834729521311 125000 -20864.0999758442 0 0 140 (C1) n - 1
REM
REM in /home/nfs/bkarasulu/CARBON/AIRSS/Generating-Clusters/ReaxFF-fromJPCA2015/Units_Real/with-SteepDescent/Only-C1/SD-CG/Try1-3A/FIRE-CG
REM
REM
REM
REM
REM
REM ./C.cell (11c1c37f851c82e70ff6c80c92926a4b)
REM
REM compiler GCC version 9.2.1 20190827 (Red Hat 9.2.1-1)
REM options -cpp -mtune=generic -march=x86-64 -g -O0 -fpre-include=/usr/include/finclude/math-vector-fortran.h
REM seed 1413228649 1570664232 -2068196720 -1947244273 961212586 -507504435 1281420788 -1502998825 -1913707767 -338275520 83577815 1839732800 1499444159 332177721 -471255702 1579755218 -34880758 514203744 -166913490 2126430272 478744795 431050402 1334823825 -105682536 -379497299 10738922 1591531615 631885528 698163252 833148876 1091558984 -1394406315 2047955983
REM
CELL 1.54180   50.00000   50.00000   50.00000   90.00000   90.00000   90.00000
LATT -1
SFAC C  
C      1  0.5575180000000  0.4905010000000  0.5306790000000 1.0
C      1  0.5222090000000  0.5153870000000  0.5822100000000 1.0
C      1  0.5317660000000  0.4256130000000  0.4593950000000 1.0
C      1  0.5752420000000  0.5075450000000  0.5706080000000 1.0
C      1  0.4385810000000  0.4223150000000  0.4782440000000 1.0
C      1  0.4934800000000  0.4019820000000  0.5146190000000 1.0
C      1  0.4665160000000  0.5124360000000  0.4040590000000 1.0
C      1  0.4160240000000  0.5254000000000  0.5444140000000 1.0
C      1  0.5000590000000  0.5475650000000  0.5016040000000 1.0
C      1  0.4516960000000  0.5575180000000  0.4322660000000 1.0
C      1  0.5097880000000  0.5643130000000  0.4156290000000 1.0
C      1  0.5227090000000  0.5308590000000  0.4951050000000 1.0
C      1  0.4434270000000  0.4972460000000  0.5122010000000 1.0
C      1  0.4855280000000  0.5285950000000  0.5352970000000 1.0
C      1  0.5134790000000  0.5004350000000  0.5560480000000 1.0
C      1  0.4944280000000  0.4900030000000  0.4698330000000 1.0
C      1  0.5247900000000  0.4965160000000  0.4985270000000 1.0
C      1  0.4491420000000  0.4847760000000  0.4566330000000 1.0
C      1  0.4683360000000  0.5095240000000  0.5851240000000 1.0
C      1  0.5389560000000  0.4611920000000  0.4264960000000 1.0
C      1  0.5679250000000  0.4441870000000  0.5447200000000 1.0
C      1  0.5492440000000  0.5464800000000  0.5833470000000 1.0
C      1  0.5901210000000  0.4601120000000  0.5130420000000 1.0
C      1  0.4747030000000  0.4261610000000  0.5591410000000 1.0
C      1  0.5376250000000  0.4510930000000  0.5024700000000 1.0
C      1  0.4846230000000  0.5560260000000  0.4079290000000 1.0
C      1  0.5400810000000  0.4086330000000  0.5287210000000 1.0
C      1  0.4779040000000  0.5363110000000  0.4895320000000 1.0
C      1  0.4790780000000  0.5061880000000  0.4887760000000 1.0
C      1  0.4031710000000  0.4615610000000  0.4691190000000 1.0
C      1  0.4958690000000  0.4857400000000  0.4229940000000 1.0
C      1  0.5204390000000  0.5882410000000  0.5154000000000 1.0
C      1  0.5652720000000  0.5506370000000  0.5586390000000 1.0
C      1  0.4812540000000  0.4943860000000  0.4460760000000 1.0
C      1  0.5139910000000  0.5269590000000  0.5409310000000 1.0
C      1  0.4727660000000  0.5853440000000  0.5202030000000 1.0
C      1  0.5382070000000  0.4822220000000  0.5511510000000 1.0
C      1  0.4160860000000  0.5161850000000  0.5168220000000 1.0
C      1  0.5422180000000  0.4902040000000  0.4201530000000 1.0
C      1  0.4812930000000  0.5072760000000  0.5163710000000 1.0
C      1  0.4415490000000  0.5221240000000  0.5804120000000 1.0
C      1  0.5120880000000  0.5322000000000  0.4462100000000 1.0
C      1  0.5688370000000  0.5716200000000  0.5027660000000 1.0
C      1  0.4549320000000  0.5472580000000  0.4772990000000 1.0
C      1  0.5691160000000  0.4432320000000  0.4999300000000 1.0
C      1  0.5996710000000  0.5043130000000  0.5085490000000 1.0
C      1  0.4490570000000  0.4440500000000  0.5212310000000 1.0
C      1  0.4554750000000  0.4598940000000  0.5892370000000 1.0
C      1  0.4982220000000  0.5637150000000  0.5784760000000 1.0
C      1  0.4277630000000  0.5637680000000  0.5199190000000 1.0
C      1  0.5755840000000  0.5892170000000  0.4570530000000 1.0
C      1  0.4596330000000  0.5370080000000  0.4511370000000 1.0
C      1  0.4494040000000  0.4904640000000  0.4113360000000 1.0
C      1  0.4612090000000  0.4643440000000  0.4168460000000 1.0
C      1  0.5711150000000  0.5286260000000  0.4432080000000 1.0
C      1  0.5743500000000  0.4474050000000  0.4669560000000 1.0
C      1  0.5671730000000  0.5068300000000  0.4820160000000 1.0
C      1  0.5564150000000  0.5472970000000  0.4275540000000 1.0
C      1  0.5497420000000  0.5610240000000  0.5370060000000 1.0
C      1  0.5517720000000  0.5176950000000  0.5875720000000 1.0
C      1  0.5478880000000  0.5845470000000  0.5204780000000 1.0
C      1  0.5655480000000  0.5014970000000  0.4340400000000 1.0
C      1  0.4811950000000  0.4399890000000  0.4827170000000 1.0
C      1  0.5238320000000  0.5535270000000  0.5427540000000 1.0
C      1  0.4083850000000  0.4722000000000  0.5283310000000 1.0
C      1  0.4844780000000  0.4123710000000  0.4903360000000 1.0
C      1  0.4846230000000  0.5232000000000  0.4463760000000 1.0
C      1  0.5105360000000  0.5799590000000  0.4405360000000 1.0
C      1  0.5916080000000  0.5277110000000  0.5215340000000 1.0
C      1  0.4788060000000  0.5226510000000  0.5624790000000 1.0
C      1  0.4578970000000  0.4077770000000  0.4933370000000 1.0
C      1  0.4988760000000  0.5951680000000  0.4806920000000 1.0
C      1  0.4975510000000  0.4617760000000  0.5921140000000 1.0
C      1  0.5228640000000  0.3986260000000  0.5065670000000 1.0
C      1  0.5268620000000  0.4572420000000  0.5895320000000 1.0
C      1  0.4778080000000  0.4406150000000  0.5848680000000 1.0
C      1  0.5744680000000  0.4783650000000  0.5697550000000 1.0
C      1  0.4701070000000  0.5655730000000  0.5694120000000 1.0
C      1  0.5280240000000  0.5379590000000  0.4192270000000 1.0
C      1  0.4224460000000  0.5067320000000  0.5639310000000 1.0
C      1  0.5187400000000  0.5440870000000  0.5867600000000 1.0
C      1  0.4740680000000  0.4521420000000  0.5083860000000 1.0
C      1  0.4481900000000  0.5815220000000  0.5063030000000 1.0
C      1  0.5920600000000  0.4698520000000  0.4685210000000 1.0
C      1  0.4599000000000  0.4356480000000  0.4623880000000 1.0
C      1  0.5327820000000  0.4031260000000  0.4797430000000 1.0
C      1  0.5332270000000  0.5718920000000  0.4600630000000 1.0
C      1  0.5569090000000  0.5860270000000  0.4799220000000 1.0
C      1  0.5813640000000  0.5284510000000  0.5505650000000 1.0
C      1  0.4750840000000  0.4811030000000  0.5947980000000 1.0
C      1  0.5713660000000  0.4883430000000  0.4597540000000 1.0
C      1  0.5777960000000  0.5313500000000  0.4731390000000 1.0
C      1  0.4979750000000  0.5797830000000  0.5065370000000 1.0
C      1  0.4948750000000  0.4649000000000  0.5255070000000 1.0
C      1  0.4366670000000  0.4584310000000  0.5664860000000 1.0
C      1  0.5134350000000  0.4208360000000  0.4307580000000 1.0
C      1  0.5642650000000  0.4241760000000  0.5234620000000 1.0
C      1  0.4138860000000  0.5452970000000  0.5030960000000 1.0
C      1  0.5070050000000  0.5758360000000  0.5526960000000 1.0
C      1  0.4951420000000  0.5029030000000  0.4023150000000 1.0
C      1  0.4920940000000  0.4116820000000  0.4215800000000 1.0
C      1  0.4092380000000  0.4666880000000  0.4411400000000 1.0
C      1  0.4497510000000  0.4380280000000  0.5497040000000 1.0
C      1  0.5234980000000  0.5095530000000  0.4080650000000 1.0
C      1  0.4255340000000  0.4914470000000  0.4326780000000 1.0
C      1  0.5312100000000  0.4341180000000  0.5719260000000 1.0
C      1  0.4201160000000  0.4790660000000  0.5546770000000 1.0
C      1  0.4475660000000  0.5755490000000  0.4776280000000 1.0
C      1  0.4210560000000  0.4500650000000  0.5132120000000 1.0
C      1  0.5485530000000  0.4762710000000  0.5827100000000 1.0
C      1  0.4594830000000  0.5795660000000  0.4509190000000 1.0
C      1  0.5216960000000  0.4715860000000  0.5152620000000 1.0
C      1  0.4943550000000  0.4128220000000  0.5420150000000 1.0
C      1  0.5149570000000  0.4471320000000  0.4168170000000 1.0
C      1  0.5512200000000  0.5038840000000  0.5065170000000 1.0
C      1  0.3926590000000  0.5101930000000  0.4631170000000 1.0
C      1  0.4507350000000  0.4926810000000  0.4852390000000 1.0
C      1  0.5400760000000  0.4511910000000  0.5502530000000 1.0
C      1  0.3938160000000  0.4871090000000  0.4824420000000 1.0
C      1  0.4278160000000  0.5505510000000  0.5473410000000 1.0
C      1  0.5800490000000  0.4727140000000  0.5380470000000 1.0
C      1  0.4454990000000  0.5492660000000  0.5694190000000 1.0
C      1  0.5811130000000  0.5451740000000  0.4987620000000 1.0
C      1  0.6031210000000  0.4789730000000  0.4955610000000 1.0
C      1  0.4637300000000  0.4937000000000  0.5339870000000 1.0
C      1  0.4538470000000  0.4580730000000  0.4445760000000 1.0
C      1  0.5241360000000  0.4510320000000  0.4772090000000 1.0
C      1  0.5556690000000  0.5738560000000  0.4393940000000 1.0
C      1  0.4786880000000  0.5813360000000  0.5470060000000 1.0
C      1  0.4868020000000  0.5899430000000  0.4533900000000 1.0
C      1  0.5221010000000  0.4140670000000  0.5516030000000 1.0
C      1  0.4074510000000  0.5164580000000  0.4387710000000 1.0
C      1  0.5200890000000  0.4795780000000  0.4732820000000 1.0
C      1  0.5537080000000  0.4444480000000  0.4468190000000 1.0
C      1  0.4610480000000  0.5421220000000  0.4074180000000 1.0
C      1  0.4902240000000  0.4626110000000  0.4101590000000 1.0
C      1  0.4169640000000  0.4411370000000  0.4863720000000 1.0
C      1  0.4878750000000  0.4830440000000  0.5467140000000 1.0
C      1  0.3980750000000  0.4923330000000  0.5103270000000 1.0
C      1  0.5272000000000  0.5420060000000  0.4684810000000 1.0
END
