TITL C-4164243-3780-753 26.9220080766974 125000 -25358.2793048231 0 0 171 (C1) n - 1
REM
REM in /home/nfs/bkarasulu/CARBON/AIRSS/Generating-Clusters/ReaxFF-fromJPCA2015/Units_Real/with-SteepDescent/Only-C1/SD-CG/Try1-3A/FIRE-CG
REM
REM
REM
REM
REM
REM ./C.cell (11c1c37f851c82e70ff6c80c92926a4b)
REM
REM compiler GCC version 9.2.1 20190827 (Red Hat 9.2.1-1)
REM options -cpp -mtune=generic -march=x86-64 -g -O0 -fpre-include=/usr/include/finclude/math-vector-fortran.h
REM seed 79559321 -1465384512 1475758979 323636464 1971655783 1890463822 -845149809 1718830283 511352418 -1967810353 -1236826017 -1273526132 491563456 -1366531230 1986912474 -1742693716 1753887001 -473672919 -947853360 2071752295 -2122348562 -604926782 -2055866991 43025536 1838308682 608719083 1427454405 -2100894184 -551755012 -1418978528 -1606191989 -689955167 -343215499
REM
CELL 1.54180   50.00000   50.00000   50.00000   90.00000   90.00000   90.00000
LATT -1
SFAC C  
C      1  0.5565970000000  0.5424440000000  0.4759940000000 1.0
C      1  0.5020300000000  0.4613510000000  0.4832170000000 1.0
C      1  0.4541330000000  0.5236460000000  0.4781120000000 1.0
C      1  0.5317900000000  0.4393230000000  0.5791230000000 1.0
C      1  0.4038890000000  0.5174760000000  0.5295250000000 1.0
C      1  0.5653010000000  0.5294320000000  0.4068240000000 1.0
C      1  0.4554200000000  0.4287420000000  0.4412260000000 1.0
C      1  0.4931090000000  0.4939580000000  0.4417870000000 1.0
C      1  0.5123620000000  0.4749740000000  0.4019290000000 1.0
C      1  0.4767170000000  0.4659900000000  0.5257900000000 1.0
C      1  0.4976520000000  0.5620980000000  0.4877580000000 1.0
C      1  0.5285710000000  0.4964920000000  0.5640630000000 1.0
C      1  0.5674610000000  0.5041020000000  0.4203880000000 1.0
C      1  0.5031960000000  0.5296750000000  0.5863490000000 1.0
C      1  0.4493510000000  0.5186880000000  0.5298960000000 1.0
C      1  0.4785550000000  0.4438640000000  0.5907670000000 1.0
C      1  0.5916000000000  0.4568450000000  0.5312770000000 1.0
C      1  0.3861180000000  0.4596230000000  0.5184430000000 1.0
C      1  0.5262740000000  0.4631520000000  0.5968600000000 1.0
C      1  0.4370720000000  0.5520410000000  0.4324230000000 1.0
C      1  0.4339670000000  0.4114640000000  0.5038990000000 1.0
C      1  0.4280210000000  0.5649070000000  0.5265590000000 1.0
C      1  0.4629480000000  0.4707350000000  0.5542840000000 1.0
C      1  0.4106830000000  0.4989310000000  0.5767700000000 1.0
C      1  0.5461470000000  0.4513130000000  0.5150290000000 1.0
C      1  0.6022520000000  0.4836980000000  0.4904850000000 1.0
C      1  0.6000980000000  0.5357130000000  0.4851910000000 1.0
C      1  0.4266420000000  0.4313860000000  0.4833610000000 1.0
C      1  0.4699670000000  0.4261090000000  0.4946980000000 1.0
C      1  0.4132260000000  0.5437340000000  0.5405690000000 1.0
C      1  0.5645970000000  0.4891310000000  0.5209100000000 1.0
C      1  0.4481430000000  0.5825760000000  0.5383530000000 1.0
C      1  0.4968020000000  0.4024920000000  0.4548650000000 1.0
C      1  0.4467590000000  0.5332820000000  0.5041730000000 1.0
C      1  0.5262520000000  0.6123220000000  0.4900840000000 1.0
C      1  0.4173580000000  0.5479140000000  0.5696180000000 1.0
C      1  0.4578560000000  0.5399200000000  0.6048290000000 1.0
C      1  0.5392440000000  0.5882360000000  0.4731340000000 1.0
C      1  0.4173040000000  0.4988390000000  0.4572330000000 1.0
C      1  0.4725780000000  0.5833130000000  0.5831440000000 1.0
C      1  0.5895270000000  0.5648530000000  0.4888230000000 1.0
C      1  0.5214640000000  0.4275840000000  0.4214860000000 1.0
C      1  0.5263260000000  0.5273080000000  0.5216600000000 1.0
C      1  0.4553650000000  0.5670810000000  0.6025250000000 1.0
C      1  0.4727900000000  0.6099320000000  0.4882460000000 1.0
C      1  0.4629250000000  0.4429510000000  0.5658110000000 1.0
C      1  0.4143490000000  0.5583020000000  0.4504350000000 1.0
C      1  0.4825240000000  0.5603840000000  0.5129420000000 1.0
C      1  0.5362820000000  0.5514910000000  0.5117620000000 1.0
C      1  0.5610530000000  0.4707030000000  0.4995080000000 1.0
C      1  0.5954040000000  0.4542180000000  0.4464510000000 1.0
C      1  0.5654910000000  0.5694040000000  0.4738820000000 1.0
C      1  0.4804960000000  0.4818550000000  0.4826180000000 1.0
C      1  0.4367270000000  0.5338460000000  0.4120250000000 1.0
C      1  0.4138810000000  0.5645380000000  0.4770320000000 1.0
C      1  0.5095970000000  0.4038250000000  0.5539080000000 1.0
C      1  0.4861390000000  0.4862990000000  0.3989610000000 1.0
C      1  0.5154830000000  0.3877490000000  0.5019910000000 1.0
C      1  0.5070100000000  0.4276900000000  0.5087370000000 1.0
C      1  0.5147880000000  0.5445930000000  0.3955200000000 1.0
C      1  0.4524540000000  0.5209550000000  0.3978250000000 1.0
C      1  0.4664640000000  0.5534960000000  0.4379520000000 1.0
C      1  0.5840750000000  0.5472930000000  0.5261950000000 1.0
C      1  0.5620770000000  0.5375720000000  0.5068050000000 1.0
C      1  0.4482940000000  0.5888250000000  0.5671860000000 1.0
C      1  0.5479110000000  0.5112400000000  0.5529170000000 1.0
C      1  0.4387820000000  0.4687520000000  0.4261550000000 1.0
C      1  0.4544550000000  0.4452980000000  0.4827420000000 1.0
C      1  0.4448430000000  0.5021960000000  0.4615120000000 1.0
C      1  0.5881330000000  0.4812140000000  0.4620910000000 1.0
C      1  0.4139880000000  0.4558400000000  0.4749020000000 1.0
C      1  0.4166390000000  0.4400070000000  0.5390900000000 1.0
C      1  0.4334730000000  0.4193870000000  0.5321400000000 1.0
C      1  0.5601460000000  0.4633070000000  0.4252450000000 1.0
C      1  0.4622140000000  0.4202370000000  0.5451280000000 1.0
C      1  0.5413990000000  0.4826530000000  0.4175880000000 1.0
C      1  0.5604500000000  0.4811690000000  0.4725610000000 1.0
C      1  0.4612550000000  0.3992560000000  0.4998630000000 1.0
C      1  0.5051640000000  0.4477220000000  0.4048400000000 1.0
C      1  0.4005930000000  0.5152670000000  0.4762170000000 1.0
C      1  0.5139880000000  0.3999170000000  0.4303000000000 1.0
C      1  0.5519190000000  0.4796040000000  0.5977640000000 1.0
C      1  0.5996160000000  0.4565460000000  0.5033870000000 1.0
C      1  0.3998100000000  0.4621760000000  0.5436000000000 1.0
C      1  0.6004820000000  0.5100920000000  0.5335720000000 1.0
C      1  0.4856650000000  0.5390380000000  0.5307030000000 1.0
C      1  0.5526780000000  0.5093620000000  0.5947380000000 1.0
C      1  0.5865170000000  0.5754090000000  0.5175460000000 1.0
C      1  0.4351030000000  0.4784070000000  0.5120810000000 1.0
C      1  0.5015760000000  0.4814520000000  0.5267790000000 1.0
C      1  0.4191910000000  0.4704300000000  0.4484860000000 1.0
C      1  0.4775870000000  0.5132450000000  0.3909380000000 1.0
C      1  0.4748780000000  0.5839210000000  0.5273380000000 1.0
C      1  0.5059300000000  0.4085790000000  0.4842900000000 1.0
C      1  0.4857500000000  0.5624750000000  0.4181630000000 1.0
C      1  0.5152810000000  0.5924800000000  0.5531720000000 1.0
C      1  0.4786050000000  0.5150720000000  0.5756200000000 1.0
C      1  0.5018690000000  0.5827080000000  0.4341150000000 1.0
C      1  0.5118680000000  0.4757640000000  0.5525080000000 1.0
C      1  0.5495530000000  0.5718870000000  0.4285450000000 1.0
C      1  0.4774600000000  0.5360240000000  0.4587470000000 1.0
C      1  0.4977810000000  0.6020570000000  0.5320350000000 1.0
C      1  0.5608480000000  0.4430620000000  0.5667530000000 1.0
C      1  0.5940060000000  0.5227710000000  0.4625350000000 1.0
C      1  0.5199830000000  0.4827300000000  0.4447870000000 1.0
C      1  0.4927550000000  0.5216990000000  0.4372470000000 1.0
C      1  0.5621210000000  0.4165990000000  0.4856310000000 1.0
C      1  0.5164790000000  0.5545890000000  0.5794240000000 1.0
C      1  0.5195740000000  0.4705480000000  0.5059710000000 1.0
C      1  0.4902550000000  0.5814530000000  0.4609160000000 1.0
C      1  0.5172390000000  0.4089700000000  0.5801770000000 1.0
C      1  0.5235970000000  0.5097870000000  0.5913600000000 1.0
C      1  0.5219410000000  0.4479410000000  0.5536110000000 1.0
C      1  0.4357120000000  0.5649610000000  0.4970760000000 1.0
C      1  0.4707420000000  0.4057730000000  0.4425310000000 1.0
C      1  0.5343770000000  0.5291150000000  0.4083510000000 1.0
C      1  0.4669390000000  0.5286420000000  0.5499750000000 1.0
C      1  0.4869840000000  0.5435420000000  0.3940110000000 1.0
C      1  0.4294100000000  0.5046070000000  0.5966140000000 1.0
C      1  0.5206680000000  0.5317250000000  0.4349640000000 1.0
C      1  0.5642940000000  0.5559610000000  0.4160880000000 1.0
C      1  0.5624760000000  0.5299400000000  0.5703250000000 1.0
C      1  0.5896040000000  0.4296260000000  0.4920450000000 1.0
C      1  0.5865490000000  0.4846150000000  0.5388910000000 1.0
C      1  0.5002510000000  0.5797990000000  0.5741360000000 1.0
C      1  0.4784620000000  0.6034640000000  0.4606470000000 1.0
C      1  0.4650280000000  0.4192530000000  0.4173390000000 1.0
C      1  0.5435060000000  0.5791800000000  0.5525310000000 1.0
C      1  0.5207800000000  0.4260080000000  0.5347470000000 1.0
C      1  0.4846850000000  0.3891780000000  0.5152110000000 1.0
C      1  0.3983660000000  0.5435460000000  0.4687430000000 1.0
C      1  0.5025430000000  0.5360380000000  0.4750930000000 1.0
C      1  0.5550610000000  0.4252700000000  0.4588850000000 1.0
C      1  0.5646670000000  0.5824010000000  0.5339810000000 1.0
C      1  0.5330330000000  0.5300870000000  0.4619280000000 1.0
C      1  0.5304010000000  0.5851650000000  0.4422860000000 1.0
C      1  0.4115310000000  0.4930080000000  0.5488180000000 1.0
C      1  0.4598160000000  0.4708670000000  0.5014810000000 1.0
C      1  0.4008720000000  0.5065440000000  0.5033630000000 1.0
C      1  0.5874260000000  0.5306140000000  0.5492440000000 1.0
C      1  0.5738200000000  0.4618120000000  0.5850750000000 1.0
C      1  0.5872730000000  0.5053410000000  0.4415470000000 1.0
C      1  0.4323870000000  0.5695940000000  0.5821570000000 1.0
C      1  0.4616640000000  0.4675500000000  0.4082300000000 1.0
C      1  0.4115080000000  0.5245690000000  0.5864240000000 1.0
C      1  0.5713590000000  0.4399450000000  0.4372040000000 1.0
C      1  0.4391980000000  0.4903910000000  0.5374230000000 1.0
C      1  0.5154870000000  0.4581090000000  0.4581970000000 1.0
C      1  0.6032410000000  0.5099000000000  0.5024520000000 1.0
C      1  0.5501090000000  0.5125330000000  0.5248690000000 1.0
C      1  0.5294650000000  0.4345630000000  0.4488170000000 1.0
C      1  0.4090100000000  0.4743090000000  0.4991490000000 1.0
C      1  0.4691920000000  0.4813460000000  0.4546760000000 1.0
C      1  0.5236690000000  0.4949690000000  0.4901370000000 1.0
C      1  0.5252300000000  0.5711220000000  0.4939300000000 1.0
C      1  0.5004740000000  0.5148690000000  0.5223360000000 1.0
C      1  0.4572090000000  0.5135090000000  0.5998080000000 1.0
C      1  0.4981170000000  0.5098400000000  0.4907080000000 1.0
C      1  0.4974940000000  0.4673810000000  0.5940380000000 1.0
C      1  0.5431470000000  0.3986270000000  0.5003720000000 1.0
C      1  0.5014550000000  0.6127220000000  0.5046100000000 1.0
C      1  0.5646450000000  0.4457540000000  0.5367520000000 1.0
C      1  0.4620840000000  0.4519400000000  0.4556340000000 1.0
C      1  0.4543650000000  0.5895630000000  0.4904940000000 1.0
C      1  0.5435110000000  0.5551670000000  0.5694950000000 1.0
C      1  0.6001810000000  0.4363590000000  0.4674150000000 1.0
C      1  0.4844570000000  0.4834750000000  0.5716000000000 1.0
C      1  0.4804980000000  0.4360610000000  0.5197730000000 1.0
C      1  0.4758640000000  0.4427570000000  0.4040080000000 1.0
C      1  0.4818760000000  0.3975750000000  0.5422330000000 1.0
C      1  0.5374510000000  0.4963990000000  0.4660750000000 1.0
END
