TITL C-4164237-1827-543 9.2523814611408 125000 -29394.4724671544 0 0 194 (C1) n - 1
REM
REM in /home/nfs/bkarasulu/CARBON/AIRSS/Generating-Clusters/ReaxFF-fromJPCA2015/Units_Real/with-SteepDescent/Only-C1/SD-CG/Try1-3A/FIRE-CG
REM
REM
REM
REM
REM
REM ./C.cell (11c1c37f851c82e70ff6c80c92926a4b)
REM
REM compiler GCC version 9.2.1 20190827 (Red Hat 9.2.1-1)
REM options -cpp -mtune=generic -march=x86-64 -g -O0 -fpre-include=/usr/include/finclude/math-vector-fortran.h
REM seed -75458052 -1198896552 2001304593 -1534097946 867259609 1263469658 -1885008948 1792090354 -1832586240 1437441671 129850643 768298556 -896343070 -1667240093 1886792312 1492248968 -638104444 1936785883 1784708640 -239271937 686217892 -1840882899 1217517967 294181313 -315849389 -1734267814 848978312 -1804872217 1455718917 -1816427923 513406383 36044352 -228595475
REM
CELL 1.54180   50.00000   50.00000   50.00000   90.00000   90.00000   90.00000
LATT -1
SFAC C  
C      1  0.5345740000000  0.5298420000000  0.4661850000000 1.0
C      1  0.3988590000000  0.4566200000000  0.4547470000000 1.0
C      1  0.5228010000000  0.5844100000000  0.5807820000000 1.0
C      1  0.5741340000000  0.5026210000000  0.5627880000000 1.0
C      1  0.5189470000000  0.5006930000000  0.6058530000000 1.0
C      1  0.5955230000000  0.4294310000000  0.5147450000000 1.0
C      1  0.5000920000000  0.4620530000000  0.5478330000000 1.0
C      1  0.4019410000000  0.5426880000000  0.5003430000000 1.0
C      1  0.5999870000000  0.4855860000000  0.4334940000000 1.0
C      1  0.5359210000000  0.4865350000000  0.5301090000000 1.0
C      1  0.5051820000000  0.5418110000000  0.5689730000000 1.0
C      1  0.4499520000000  0.6074730000000  0.5084600000000 1.0
C      1  0.5685810000000  0.5743250000000  0.5602340000000 1.0
C      1  0.6038470000000  0.4608020000000  0.4766740000000 1.0
C      1  0.5791720000000  0.4281360000000  0.4909600000000 1.0
C      1  0.4322750000000  0.4069110000000  0.4988770000000 1.0
C      1  0.6114100000000  0.5047920000000  0.5240990000000 1.0
C      1  0.5600460000000  0.5578040000000  0.6119950000000 1.0
C      1  0.4468200000000  0.5577010000000  0.4283220000000 1.0
C      1  0.4719440000000  0.5752440000000  0.4273860000000 1.0
C      1  0.4276180000000  0.5870960000000  0.5091190000000 1.0
C      1  0.5299420000000  0.5333280000000  0.3962490000000 1.0
C      1  0.4804150000000  0.4654850000000  0.6184130000000 1.0
C      1  0.5186550000000  0.4814150000000  0.5079920000000 1.0
C      1  0.5215020000000  0.6096150000000  0.4814750000000 1.0
C      1  0.3765700000000  0.4730830000000  0.4932420000000 1.0
C      1  0.5213390000000  0.5067730000000  0.3890990000000 1.0
C      1  0.4596790000000  0.5953270000000  0.4454900000000 1.0
C      1  0.4172780000000  0.5139260000000  0.4239320000000 1.0
C      1  0.4673380000000  0.4157510000000  0.5688640000000 1.0
C      1  0.5774120000000  0.5169730000000  0.4860750000000 1.0
C      1  0.5139770000000  0.4455450000000  0.4489090000000 1.0
C      1  0.5414270000000  0.4513850000000  0.4051350000000 1.0
C      1  0.4236180000000  0.5132070000000  0.5815770000000 1.0
C      1  0.5165350000000  0.5264280000000  0.6174510000000 1.0
C      1  0.6024250000000  0.4791200000000  0.5241150000000 1.0
C      1  0.5588270000000  0.5942250000000  0.5143780000000 1.0
C      1  0.4983240000000  0.4915010000000  0.4422350000000 1.0
C      1  0.3996500000000  0.5316090000000  0.5277450000000 1.0
C      1  0.5113310000000  0.4995460000000  0.4886050000000 1.0
C      1  0.3823290000000  0.4450550000000  0.4967140000000 1.0
C      1  0.4231240000000  0.4338760000000  0.5631730000000 1.0
C      1  0.5529540000000  0.4071840000000  0.4608780000000 1.0
C      1  0.4194260000000  0.4955160000000  0.5597850000000 1.0
C      1  0.4013910000000  0.5006250000000  0.5322200000000 1.0
C      1  0.5463450000000  0.4837060000000  0.4562620000000 1.0
C      1  0.4491120000000  0.5634500000000  0.5781810000000 1.0
C      1  0.4829560000000  0.5568190000000  0.4774490000000 1.0
C      1  0.5349290000000  0.5396830000000  0.5716610000000 1.0
C      1  0.4093850000000  0.4308840000000  0.5389300000000 1.0
C      1  0.5487970000000  0.5647550000000  0.5815430000000 1.0
C      1  0.4452400000000  0.4318320000000  0.5806750000000 1.0
C      1  0.4882480000000  0.5151440000000  0.5654270000000 1.0
C      1  0.5083990000000  0.4792140000000  0.4188960000000 1.0
C      1  0.5175360000000  0.4145740000000  0.5661010000000 1.0
C      1  0.5144880000000  0.4431840000000  0.4007770000000 1.0
C      1  0.4597100000000  0.4149240000000  0.4382930000000 1.0
C      1  0.4920710000000  0.5418090000000  0.6101960000000 1.0
C      1  0.4420390000000  0.5816540000000  0.4664860000000 1.0
C      1  0.5473530000000  0.4091080000000  0.5183720000000 1.0
C      1  0.5166010000000  0.5935250000000  0.4426050000000 1.0
C      1  0.4926140000000  0.4462190000000  0.5994520000000 1.0
C      1  0.5236220000000  0.5514360000000  0.4219290000000 1.0
C      1  0.5904990000000  0.5551320000000  0.5535550000000 1.0
C      1  0.5527540000000  0.5498840000000  0.5138860000000 1.0
C      1  0.4274140000000  0.4945520000000  0.4040000000000 1.0
C      1  0.5729050000000  0.4170210000000  0.5302010000000 1.0
C      1  0.4917050000000  0.4676970000000  0.3972500000000 1.0
C      1  0.5963590000000  0.5145610000000  0.4262020000000 1.0
C      1  0.3990980000000  0.5073600000000  0.4605110000000 1.0
C      1  0.4180760000000  0.5654930000000  0.4931870000000 1.0
C      1  0.4840510000000  0.4638200000000  0.5771060000000 1.0
C      1  0.6078940000000  0.5569850000000  0.5282140000000 1.0
C      1  0.4957560000000  0.4958640000000  0.3831180000000 1.0
C      1  0.5543160000000  0.5558620000000  0.4239110000000 1.0
C      1  0.5562770000000  0.5943260000000  0.5439670000000 1.0
C      1  0.4763990000000  0.4092330000000  0.4781330000000 1.0
C      1  0.5581430000000  0.5365870000000  0.4022760000000 1.0
C      1  0.4401550000000  0.4745920000000  0.5558020000000 1.0
C      1  0.4986760000000  0.3912100000000  0.4719680000000 1.0
C      1  0.5749060000000  0.4852880000000  0.5329800000000 1.0
C      1  0.4736140000000  0.6044280000000  0.4922760000000 1.0
C      1  0.5719370000000  0.5566550000000  0.4470610000000 1.0
C      1  0.5537420000000  0.5088510000000  0.4708700000000 1.0
C      1  0.5365030000000  0.5116000000000  0.5363720000000 1.0
C      1  0.5067190000000  0.6104760000000  0.5373330000000 1.0
C      1  0.4598540000000  0.4501010000000  0.4956600000000 1.0
C      1  0.4462980000000  0.4743260000000  0.4861870000000 1.0
C      1  0.4346450000000  0.4247060000000  0.4484640000000 1.0
C      1  0.5701540000000  0.4171330000000  0.5619210000000 1.0
C      1  0.6136450000000  0.5299710000000  0.5259650000000 1.0
C      1  0.4346850000000  0.5357310000000  0.4126510000000 1.0
C      1  0.6006730000000  0.5147310000000  0.4683010000000 1.0
C      1  0.3881560000000  0.4805860000000  0.4669960000000 1.0
C      1  0.5894950000000  0.5282250000000  0.5650750000000 1.0
C      1  0.4578760000000  0.5007850000000  0.4936910000000 1.0
C      1  0.5012300000000  0.5745870000000  0.4273660000000 1.0
C      1  0.4728820000000  0.5781420000000  0.5760820000000 1.0
C      1  0.5352310000000  0.4819170000000  0.4058630000000 1.0
C      1  0.5188080000000  0.5336480000000  0.4432130000000 1.0
C      1  0.5638350000000  0.4544060000000  0.5772050000000 1.0
C      1  0.5051620000000  0.3900410000000  0.4439160000000 1.0
C      1  0.5471140000000  0.5168560000000  0.5611900000000 1.0
C      1  0.4736420000000  0.5166340000000  0.3851730000000 1.0
C      1  0.5925510000000  0.5343310000000  0.4477770000000 1.0
C      1  0.5769400000000  0.5841320000000  0.4932110000000 1.0
C      1  0.5048400000000  0.6058160000000  0.5068330000000 1.0
C      1  0.4643870000000  0.4635930000000  0.4130530000000 1.0
C      1  0.5637810000000  0.5775550000000  0.4675090000000 1.0
C      1  0.5194970000000  0.5272390000000  0.4921270000000 1.0
C      1  0.4432110000000  0.5167920000000  0.3918060000000 1.0
C      1  0.5723350000000  0.5126210000000  0.4104320000000 1.0
C      1  0.6065530000000  0.4554730000000  0.5054610000000 1.0
C      1  0.4565400000000  0.5209760000000  0.4748060000000 1.0
C      1  0.4905890000000  0.5740960000000  0.5343960000000 1.0
C      1  0.5752660000000  0.4775660000000  0.5854480000000 1.0
C      1  0.5644840000000  0.4446680000000  0.4229030000000 1.0
C      1  0.5092250000000  0.5750330000000  0.5127350000000 1.0
C      1  0.4860780000000  0.5323660000000  0.5224700000000 1.0
C      1  0.4258580000000  0.5055060000000  0.4496280000000 1.0
C      1  0.4443600000000  0.5249700000000  0.5409820000000 1.0
C      1  0.5378280000000  0.4540940000000  0.4636080000000 1.0
C      1  0.4751140000000  0.4940820000000  0.6101300000000 1.0
C      1  0.5175210000000  0.3896520000000  0.4949690000000 1.0
C      1  0.5962940000000  0.5640910000000  0.5021270000000 1.0
C      1  0.4415080000000  0.4747800000000  0.4568380000000 1.0
C      1  0.5387250000000  0.5737760000000  0.5121710000000 1.0
C      1  0.4647320000000  0.5769410000000  0.4851250000000 1.0
C      1  0.5906990000000  0.4366770000000  0.4653160000000 1.0
C      1  0.4591100000000  0.4131920000000  0.5392540000000 1.0
C      1  0.4771060000000  0.5329170000000  0.4630250000000 1.0
C      1  0.4361110000000  0.4678310000000  0.4127550000000 1.0
C      1  0.5032210000000  0.3929080000000  0.5210470000000 1.0
C      1  0.4007690000000  0.5145910000000  0.4892940000000 1.0
C      1  0.4657640000000  0.4654520000000  0.4415950000000 1.0
C      1  0.6065210000000  0.4858870000000  0.4614200000000 1.0
C      1  0.4678880000000  0.4428520000000  0.5234440000000 1.0
C      1  0.5576100000000  0.4900310000000  0.4227590000000 1.0
C      1  0.4601410000000  0.5219180000000  0.5646790000000 1.0
C      1  0.4901160000000  0.5085320000000  0.5374510000000 1.0
C      1  0.4743350000000  0.3931740000000  0.5225160000000 1.0
C      1  0.5437300000000  0.5412610000000  0.6265880000000 1.0
C      1  0.4702080000000  0.5237940000000  0.6103510000000 1.0
C      1  0.4833360000000  0.4817090000000  0.5335790000000 1.0
C      1  0.5698570000000  0.4281130000000  0.4469920000000 1.0
C      1  0.5177430000000  0.4910520000000  0.4623610000000 1.0
C      1  0.4303360000000  0.4138510000000  0.5269470000000 1.0
C      1  0.5354460000000  0.5280020000000  0.5158430000000 1.0
C      1  0.4911050000000  0.5494740000000  0.5441470000000 1.0
C      1  0.4572180000000  0.4695360000000  0.5320080000000 1.0
C      1  0.4212350000000  0.4189580000000  0.4740670000000 1.0
C      1  0.5768910000000  0.5422780000000  0.5002190000000 1.0
C      1  0.4994150000000  0.4401370000000  0.5268270000000 1.0
C      1  0.4300930000000  0.5889580000000  0.5396260000000 1.0
C      1  0.5271140000000  0.4700150000000  0.5511290000000 1.0
C      1  0.4805710000000  0.5252720000000  0.4102510000000 1.0
C      1  0.4759530000000  0.4375370000000  0.4771620000000 1.0
C      1  0.4959090000000  0.5659140000000  0.5893870000000 1.0
C      1  0.5337060000000  0.4451380000000  0.4893030000000 1.0
C      1  0.4329140000000  0.5295980000000  0.4649210000000 1.0
C      1  0.4926560000000  0.4212660000000  0.5807700000000 1.0
C      1  0.5356180000000  0.3930940000000  0.4426330000000 1.0
C      1  0.4926920000000  0.5221190000000  0.4405170000000 1.0
C      1  0.4187200000000  0.4976040000000  0.5066990000000 1.0
C      1  0.4280280000000  0.5669810000000  0.5586380000000 1.0
C      1  0.3896040000000  0.4491910000000  0.5241200000000 1.0
C      1  0.5379130000000  0.5913760000000  0.4649190000000 1.0
C      1  0.5186460000000  0.4133700000000  0.5355000000000 1.0
C      1  0.4542510000000  0.6042090000000  0.5367260000000 1.0
C      1  0.5120100000000  0.4535150000000  0.5041580000000 1.0
C      1  0.5492900000000  0.4516450000000  0.5514440000000 1.0
C      1  0.5436420000000  0.4013660000000  0.4910720000000 1.0
C      1  0.4433360000000  0.5069480000000  0.5181840000000 1.0
C      1  0.4206490000000  0.5413780000000  0.5450590000000 1.0
C      1  0.4316300000000  0.5572890000000  0.4539160000000 1.0
C      1  0.4863460000000  0.4078520000000  0.4290440000000 1.0
C      1  0.4534790000000  0.4601460000000  0.5770890000000 1.0
C      1  0.4481890000000  0.5325140000000  0.5899040000000 1.0
C      1  0.4986290000000  0.5487400000000  0.5001580000000 1.0
C      1  0.4799360000000  0.5960980000000  0.5493660000000 1.0
C      1  0.4750840000000  0.6125890000000  0.4627420000000 1.0
C      1  0.3980680000000  0.4360460000000  0.4749530000000 1.0
C      1  0.5280460000000  0.5999590000000  0.5538000000000 1.0
C      1  0.5443930000000  0.4200210000000  0.5754960000000 1.0
C      1  0.5082360000000  0.4283040000000  0.4251690000000 1.0
C      1  0.4242420000000  0.4534470000000  0.4395500000000 1.0
C      1  0.4879570000000  0.4552040000000  0.4584260000000 1.0
C      1  0.5783520000000  0.4698820000000  0.4222410000000 1.0
C      1  0.3843280000000  0.4775530000000  0.5216010000000 1.0
C      1  0.5588480000000  0.4499350000000  0.4989790000000 1.0
C      1  0.5642320000000  0.4591630000000  0.5267700000000 1.0
C      1  0.4592970000000  0.3955520000000  0.4977100000000 1.0
C      1  0.5035240000000  0.6152170000000  0.4586160000000 1.0
C      1  0.4939240000000  0.4927180000000  0.5871540000000 1.0
END
