TITL C-4164236-1577-26 -0.917864324323553 125000 -7508.20633291098 0 0 51 (C1) n - 1
REM
REM in /home/nfs/bkarasulu/CARBON/AIRSS/Generating-Clusters/ReaxFF-fromJPCA2015/Units_Real/with-SteepDescent/Only-C1/SD-CG/Try1-3A/FIRE-CG
REM
REM
REM
REM
REM
REM ./C.cell (11c1c37f851c82e70ff6c80c92926a4b)
REM
REM compiler GCC version 9.2.1 20190827 (Red Hat 9.2.1-1)
REM options -cpp -mtune=generic -march=x86-64 -g -O0 -fpre-include=/usr/include/finclude/math-vector-fortran.h
REM seed 1030474563 2062018076 346386705 -1254439861 -550991406 2044330067 1576078617 -462294312 1336744347 -1961207280 -957090261 773993258 2128764668 1065721313 243597920 -258406170 1650799693 1612470196 320532770 -1839828871 -1019115175 -156279379 -1321651189 2138292722 1111668834 -1259632556 -1211060046 -862649677 654690564 1133642356 119615376 -2118256825 -551547676
REM
CELL 1.54180   50.00000   50.00000   50.00000   90.00000   90.00000   90.00000
LATT -1
SFAC C  
C      1  0.5564870000000  0.5572540000000  0.4914320000000 1.0
C      1  0.4707190000000  0.4895160000000  0.5543850000000 1.0
C      1  0.5008840000000  0.5500440000000  0.5329450000000 1.0
C      1  0.5144130000000  0.5252230000000  0.4351330000000 1.0
C      1  0.5331680000000  0.5079170000000  0.5252450000000 1.0
C      1  0.5324880000000  0.5398350000000  0.4544510000000 1.0
C      1  0.5024900000000  0.5449190000000  0.4511080000000 1.0
C      1  0.5179560000000  0.5392240000000  0.5542190000000 1.0
C      1  0.4334620000000  0.4802030000000  0.5282470000000 1.0
C      1  0.5495790000000  0.5124960000000  0.4609500000000 1.0
C      1  0.4360090000000  0.4713940000000  0.5002440000000 1.0
C      1  0.4624790000000  0.5523350000000  0.5100580000000 1.0
C      1  0.4507130000000  0.5354820000000  0.4644760000000 1.0
C      1  0.4908010000000  0.4394720000000  0.5302840000000 1.0
C      1  0.5097210000000  0.4641870000000  0.5332190000000 1.0
C      1  0.5118850000000  0.4964780000000  0.4363650000000 1.0
C      1  0.4321250000000  0.5181140000000  0.5025400000000 1.0
C      1  0.5412040000000  0.4909420000000  0.4426100000000 1.0
C      1  0.5690730000000  0.4810090000000  0.4961320000000 1.0
C      1  0.4848460000000  0.4542750000000  0.4604630000000 1.0
C      1  0.5293890000000  0.5557760000000  0.4806490000000 1.0
C      1  0.4981710000000  0.4276780000000  0.5050490000000 1.0
C      1  0.4926570000000  0.4846290000000  0.4577080000000 1.0
C      1  0.5368270000000  0.4509050000000  0.5303850000000 1.0
C      1  0.5599310000000  0.4632720000000  0.5176480000000 1.0
C      1  0.4712970000000  0.5037930000000  0.4468540000000 1.0
C      1  0.4973000000000  0.4891320000000  0.5480910000000 1.0
C      1  0.4377060000000  0.5087360000000  0.5292860000000 1.0
C      1  0.5455840000000  0.5396810000000  0.5478990000000 1.0
C      1  0.4336650000000  0.4958480000000  0.4843080000000 1.0
C      1  0.4449470000000  0.5072230000000  0.4597200000000 1.0
C      1  0.5570970000000  0.4574210000000  0.4902710000000 1.0
C      1  0.4768290000000  0.5322230000000  0.4518190000000 1.0
C      1  0.5689690000000  0.5313640000000  0.5015440000000 1.0
C      1  0.5137290000000  0.4710950000000  0.5012830000000 1.0
C      1  0.4439570000000  0.5420100000000  0.4920400000000 1.0
C      1  0.4827200000000  0.5531660000000  0.4961710000000 1.0
C      1  0.4733450000000  0.5412790000000  0.5346890000000 1.0
C      1  0.5291740000000  0.4495980000000  0.4878660000000 1.0
C      1  0.4625560000000  0.4462570000000  0.5295910000000 1.0
C      1  0.5655000000000  0.5079610000000  0.4846260000000 1.0
C      1  0.5586930000000  0.5243550000000  0.5285290000000 1.0
C      1  0.5143680000000  0.5141640000000  0.5033600000000 1.0
C      1  0.5266860000000  0.4308250000000  0.5106780000000 1.0
C      1  0.5073390000000  0.5461770000000  0.5028450000000 1.0
C      1  0.4779870000000  0.4406360000000  0.4843520000000 1.0
C      1  0.5179410000000  0.5089860000000  0.5506710000000 1.0
C      1  0.5033300000000  0.4937840000000  0.4880760000000 1.0
C      1  0.4638270000000  0.5137370000000  0.5419710000000 1.0
C      1  0.4548520000000  0.4494770000000  0.5015890000000 1.0
C      1  0.4531240000000  0.4684930000000  0.5459290000000 1.0
END
