TITL C-4164238-4211-413 2.14376815348164 125000 -6627.09824881837 0 0 45 (C1) n - 1
REM
REM in /home/nfs/bkarasulu/CARBON/AIRSS/Generating-Clusters/ReaxFF-fromJPCA2015/Units_Real/with-SteepDescent/Only-C1/SD-CG/Try1-3A/FIRE-CG
REM
REM
REM
REM
REM
REM ./C.cell (11c1c37f851c82e70ff6c80c92926a4b)
REM
REM compiler GCC version 9.2.1 20190827 (Red Hat 9.2.1-1)
REM options -cpp -mtune=generic -march=x86-64 -g -O0 -fpre-include=/usr/include/finclude/math-vector-fortran.h
REM seed -1520931283 -786751079 225890464 720509314 -508054270 -1504355147 639992189 -455037859 -285926169 -1295273065 1717434186 4978096 207233859 1623862717 -1288157724 1372289311 2090541183 -185222604 -1829991356 184374145 1637989069 -119980069 -2009966564 961994591 -1408176537 -123243321 973618198 796987757 -357302871 -1823211723 1126748450 -209979716 -1110339162
REM
CELL 1.54180   50.00000   50.00000   50.00000   90.00000   90.00000   90.00000
LATT -1
SFAC C  
C      1  0.4756150000000  0.5220250000000  0.5407060000000 1.0
C      1  0.5146300000000  0.5453710000000  0.4874610000000 1.0
C      1  0.5037560000000  0.5236910000000  0.4662050000000 1.0
C      1  0.5122270000000  0.4942180000000  0.4257810000000 1.0
C      1  0.4405060000000  0.5511530000000  0.4742200000000 1.0
C      1  0.5210520000000  0.4627100000000  0.4602000000000 1.0
C      1  0.4379360000000  0.4561870000000  0.4439160000000 1.0
C      1  0.4832810000000  0.5407320000000  0.4515480000000 1.0
C      1  0.4699120000000  0.4765800000000  0.5132030000000 1.0
C      1  0.4498740000000  0.4787320000000  0.4388560000000 1.0
C      1  0.4264140000000  0.5270860000000  0.4608260000000 1.0
C      1  0.5508280000000  0.4694950000000  0.5082930000000 1.0
C      1  0.4854630000000  0.4776650000000  0.4900280000000 1.0
C      1  0.5236160000000  0.5075720000000  0.4491350000000 1.0
C      1  0.5054510000000  0.5222560000000  0.5765510000000 1.0
C      1  0.4759430000000  0.4656350000000  0.4380520000000 1.0
C      1  0.4690060000000  0.5276170000000  0.4294580000000 1.0
C      1  0.5384090000000  0.4867010000000  0.4634650000000 1.0
C      1  0.4914760000000  0.4559630000000  0.5407710000000 1.0
C      1  0.4783930000000  0.5244640000000  0.5103260000000 1.0
C      1  0.4427580000000  0.5120760000000  0.4370310000000 1.0
C      1  0.4877170000000  0.5069400000000  0.4898890000000 1.0
C      1  0.5565730000000  0.5176080000000  0.5006100000000 1.0
C      1  0.5088610000000  0.4574060000000  0.4857060000000 1.0
C      1  0.5289550000000  0.4804260000000  0.5751900000000 1.0
C      1  0.4702290000000  0.4982130000000  0.5559570000000 1.0
C      1  0.5269180000000  0.4528230000000  0.5076350000000 1.0
C      1  0.5632370000000  0.5246160000000  0.5286600000000 1.0
C      1  0.5035590000000  0.4662650000000  0.4364160000000 1.0
C      1  0.5182830000000  0.4488680000000  0.5364150000000 1.0
C      1  0.5582340000000  0.4754320000000  0.5360090000000 1.0
C      1  0.4921680000000  0.5410840000000  0.5574190000000 1.0
C      1  0.4914170000000  0.5124270000000  0.4220180000000 1.0
C      1  0.4673910000000  0.4712870000000  0.5412360000000 1.0
C      1  0.4861920000000  0.4992740000000  0.5802760000000 1.0
C      1  0.5024830000000  0.4756490000000  0.5890240000000 1.0
C      1  0.5315440000000  0.5097530000000  0.5713350000000 1.0
C      1  0.5368030000000  0.5359600000000  0.4999050000000 1.0
C      1  0.4691530000000  0.5548650000000  0.4735960000000 1.0
C      1  0.5536650000000  0.5200820000000  0.5559190000000 1.0
C      1  0.4869990000000  0.5493700000000  0.4976120000000 1.0
C      1  0.5528320000000  0.4901830000000  0.4882460000000 1.0
C      1  0.5689480000000  0.5012000000000  0.5425810000000 1.0
C      1  0.4028740000000  0.5185600000000  0.4693420000000 1.0
C      1  0.5384180000000  0.4637800000000  0.5529690000000 1.0
END
