TITL C-4164242-3624-66 54.7497112795302 125000 -15958.4434753238 0 0 110 (C1) n - 1
REM
REM in /home/nfs/bkarasulu/CARBON/AIRSS/Generating-Clusters/ReaxFF-fromJPCA2015/Units_Real/with-SteepDescent/Only-C1/SD-CG/Try1-3A/FIRE-CG
REM
REM
REM
REM
REM
REM ./C.cell (11c1c37f851c82e70ff6c80c92926a4b)
REM
REM compiler GCC version 9.2.1 20190827 (Red Hat 9.2.1-1)
REM options -cpp -mtune=generic -march=x86-64 -g -O0 -fpre-include=/usr/include/finclude/math-vector-fortran.h
REM seed -901315675 192318969 1877921593 -495023331 -254547153 -212116509 217390857 606376760 1345421084 2075389635 1724166684 1916989759 -1524297627 -1360388186 -650383822 743293794 213694609 -59030099 -621080952 524753724 2034455632 -696661919 1427212652 -1010594267 -837999420 93939468 1287786352 1186497487 1110782077 -1504047557 -634786525 1067650223 1440773381
REM
CELL 1.54180   50.00000   50.00000   50.00000   90.00000   90.00000   90.00000
LATT -1
SFAC C  
C      1  0.5811090000000  0.4662710000000  0.5470940000000 1.0
C      1  0.5143250000000  0.5461420000000  0.5394070000000 1.0
C      1  0.4463120000000  0.5620610000000  0.4538380000000 1.0
C      1  0.4424400000000  0.5054710000000  0.5162570000000 1.0
C      1  0.5557290000000  0.4801420000000  0.4609590000000 1.0
C      1  0.5152950000000  0.4269190000000  0.5617680000000 1.0
C      1  0.4541310000000  0.5098040000000  0.4174820000000 1.0
C      1  0.4644280000000  0.4305940000000  0.5371410000000 1.0
C      1  0.5482240000000  0.4841730000000  0.5735320000000 1.0
C      1  0.5005950000000  0.5333910000000  0.5180160000000 1.0
C      1  0.5171730000000  0.4874940000000  0.5290470000000 1.0
C      1  0.4583110000000  0.5751970000000  0.5262440000000 1.0
C      1  0.5086390000000  0.5355400000000  0.4894560000000 1.0
C      1  0.4362640000000  0.4901080000000  0.4922260000000 1.0
C      1  0.5508700000000  0.4226930000000  0.4645670000000 1.0
C      1  0.5689950000000  0.5641680000000  0.5243740000000 1.0
C      1  0.5031460000000  0.5255340000000  0.4209390000000 1.0
C      1  0.4678710000000  0.5405210000000  0.4895920000000 1.0
C      1  0.5685460000000  0.4387730000000  0.5442870000000 1.0
C      1  0.4849560000000  0.4026390000000  0.5046100000000 1.0
C      1  0.5869810000000  0.5092640000000  0.4677360000000 1.0
C      1  0.5698320000000  0.5599320000000  0.4718560000000 1.0
C      1  0.5679430000000  0.5754140000000  0.4968660000000 1.0
C      1  0.5040630000000  0.5006860000000  0.5760690000000 1.0
C      1  0.5529690000000  0.5355830000000  0.5630070000000 1.0
C      1  0.4245930000000  0.5452700000000  0.4691080000000 1.0
C      1  0.5222450000000  0.4602010000000  0.4654600000000 1.0
C      1  0.4713720000000  0.5392740000000  0.5593200000000 1.0
C      1  0.5426070000000  0.5682640000000  0.4637700000000 1.0
C      1  0.4910420000000  0.4812320000000  0.5144580000000 1.0
C      1  0.5768560000000  0.5216100000000  0.5053910000000 1.0
C      1  0.5011610000000  0.4802150000000  0.4666440000000 1.0
C      1  0.4961880000000  0.4164870000000  0.4610760000000 1.0
C      1  0.5263930000000  0.4667050000000  0.4094230000000 1.0
C      1  0.5291790000000  0.5404810000000  0.4208940000000 1.0
C      1  0.4404070000000  0.4948370000000  0.5671370000000 1.0
C      1  0.4210010000000  0.4666750000000  0.4992930000000 1.0
C      1  0.4269230000000  0.5272630000000  0.5297440000000 1.0
C      1  0.4142910000000  0.4964140000000  0.4518870000000 1.0
C      1  0.4457920000000  0.4233860000000  0.4847310000000 1.0
C      1  0.4377000000000  0.5546280000000  0.5349000000000 1.0
C      1  0.5408570000000  0.5842650000000  0.4897250000000 1.0
C      1  0.4403680000000  0.5525800000000  0.4936690000000 1.0
C      1  0.4683440000000  0.4991790000000  0.5267190000000 1.0
C      1  0.4700180000000  0.5544770000000  0.4381340000000 1.0
C      1  0.4504770000000  0.5769850000000  0.4793280000000 1.0
C      1  0.4655950000000  0.4898230000000  0.5802390000000 1.0
C      1  0.5424200000000  0.4341330000000  0.4390910000000 1.0
C      1  0.5566710000000  0.4549450000000  0.5065460000000 1.0
C      1  0.5407680000000  0.4719670000000  0.5278400000000 1.0
C      1  0.4217880000000  0.4634860000000  0.4559780000000 1.0
C      1  0.4733100000000  0.5142150000000  0.4802260000000 1.0
C      1  0.5337820000000  0.4206990000000  0.4907020000000 1.0
C      1  0.4771510000000  0.4667630000000  0.4237210000000 1.0
C      1  0.5800740000000  0.5371810000000  0.5291280000000 1.0
C      1  0.5817060000000  0.5336820000000  0.4798280000000 1.0
C      1  0.5120450000000  0.5554040000000  0.5673620000000 1.0
C      1  0.5318100000000  0.5102180000000  0.5231690000000 1.0
C      1  0.5875550000000  0.4808190000000  0.4650320000000 1.0
C      1  0.4932690000000  0.4956630000000  0.4878140000000 1.0
C      1  0.4531270000000  0.4803400000000  0.4134350000000 1.0
C      1  0.5370780000000  0.4649180000000  0.5554390000000 1.0
C      1  0.4924320000000  0.4336020000000  0.5452930000000 1.0
C      1  0.4301940000000  0.5210070000000  0.5583590000000 1.0
C      1  0.5344260000000  0.5279780000000  0.5426080000000 1.0
C      1  0.4907430000000  0.5545920000000  0.4781690000000 1.0
C      1  0.5232140000000  0.5178490000000  0.4710110000000 1.0
C      1  0.5554560000000  0.4289290000000  0.5199930000000 1.0
C      1  0.5542500000000  0.4866860000000  0.4315380000000 1.0
C      1  0.5073520000000  0.4053170000000  0.4855750000000 1.0
C      1  0.5016430000000  0.4672690000000  0.4126730000000 1.0
C      1  0.4709360000000  0.4610660000000  0.5743040000000 1.0
C      1  0.4541460000000  0.4954490000000  0.4674910000000 1.0
C      1  0.5144580000000  0.4361690000000  0.4483780000000 1.0
C      1  0.5261190000000  0.4982390000000  0.5819820000000 1.0
C      1  0.4361390000000  0.4668970000000  0.4322370000000 1.0
C      1  0.5181210000000  0.4462560000000  0.4910360000000 1.0
C      1  0.5765270000000  0.5218080000000  0.5531780000000 1.0
C      1  0.5268230000000  0.5837580000000  0.5155280000000 1.0
C      1  0.4747420000000  0.4513360000000  0.4764450000000 1.0
C      1  0.4597190000000  0.4167820000000  0.5110210000000 1.0
C      1  0.4517950000000  0.4488500000000  0.5560540000000 1.0
C      1  0.4955250000000  0.5627640000000  0.4506180000000 1.0
C      1  0.4103800000000  0.5207020000000  0.4653700000000 1.0
C      1  0.4823890000000  0.5894040000000  0.5417600000000 1.0
C      1  0.4446220000000  0.5455000000000  0.5614730000000 1.0
C      1  0.5432180000000  0.4996180000000  0.4795140000000 1.0
C      1  0.5498110000000  0.4593550000000  0.4215340000000 1.0
C      1  0.5421570000000  0.5143420000000  0.4302200000000 1.0
C      1  0.4754400000000  0.4729190000000  0.4557890000000 1.0
C      1  0.4401570000000  0.5073460000000  0.4427870000000 1.0
C      1  0.4151820000000  0.4653150000000  0.5290510000000 1.0
C      1  0.4681390000000  0.4249230000000  0.4654870000000 1.0
C      1  0.5426990000000  0.4373770000000  0.5583950000000 1.0
C      1  0.4783850000000  0.5246510000000  0.5348110000000 1.0
C      1  0.4914110000000  0.5385650000000  0.5806410000000 1.0
C      1  0.4976940000000  0.5900670000000  0.5168770000000 1.0
C      1  0.4302940000000  0.4692700000000  0.5534070000000 1.0
C      1  0.5733030000000  0.4916420000000  0.5587610000000 1.0
C      1  0.4267920000000  0.4455360000000  0.4789780000000 1.0
C      1  0.4965060000000  0.4472210000000  0.5713060000000 1.0
C      1  0.4681450000000  0.5839250000000  0.5018570000000 1.0
C      1  0.5404460000000  0.5628720000000  0.5646550000000 1.0
C      1  0.4918290000000  0.4535020000000  0.4998860000000 1.0
C      1  0.4878530000000  0.5100780000000  0.5908410000000 1.0
C      1  0.5538450000000  0.5044460000000  0.5069520000000 1.0
C      1  0.5238390000000  0.5607630000000  0.4423940000000 1.0
C      1  0.5160380000000  0.5093440000000  0.4430510000000 1.0
C      1  0.5453010000000  0.5744670000000  0.5374020000000 1.0
C      1  0.4742550000000  0.5310520000000  0.4205760000000 1.0
END
