TITL C-4164236-1577-670 -3.44518776086105 125000 -8127.27141786949 0 0 56 (C1) n - 1
REM
REM in /home/nfs/bkarasulu/CARBON/AIRSS/Generating-Clusters/ReaxFF-fromJPCA2015/Units_Real/with-SteepDescent/Only-C1/SD-CG/Try1-3A/FIRE-CG
REM
REM
REM
REM
REM
REM ./C.cell (11c1c37f851c82e70ff6c80c92926a4b)
REM
REM compiler GCC version 9.2.1 20190827 (Red Hat 9.2.1-1)
REM options -cpp -mtune=generic -march=x86-64 -g -O0 -fpre-include=/usr/include/finclude/math-vector-fortran.h
REM seed 663363929 789422725 -492306986 1354711351 702504972 1402237627 -1488896815 -1724276393 857244970 1021558523 726937041 1445338738 -885543305 -218268471 1053215210 -620363263 1720272641 -1394299025 1462450775 1638627218 -1956800866 -965869753 331911033 2065204048 -250817747 -616552438 -1182643284 716587244 -976557499 1808345668 -1346890333 -1663515199 1397925973
REM
CELL 1.54180   50.00000   50.00000   50.00000   90.00000   90.00000   90.00000
LATT -1
SFAC C  
C      1  0.4902120000000  0.4495850000000  0.4563670000000 1.0
C      1  0.5377120000000  0.4486970000000  0.4918950000000 1.0
C      1  0.4560500000000  0.5110100000000  0.4639400000000 1.0
C      1  0.4642510000000  0.5631680000000  0.4984870000000 1.0
C      1  0.4431050000000  0.4693350000000  0.5231350000000 1.0
C      1  0.4689610000000  0.4312210000000  0.4946990000000 1.0
C      1  0.5066930000000  0.5137110000000  0.4996550000000 1.0
C      1  0.4857150000000  0.5807520000000  0.4894410000000 1.0
C      1  0.4797870000000  0.5295510000000  0.4569350000000 1.0
C      1  0.5109740000000  0.5555390000000  0.5490360000000 1.0
C      1  0.4593230000000  0.5344640000000  0.4978000000000 1.0
C      1  0.5516880000000  0.4634240000000  0.4727230000000 1.0
C      1  0.5649190000000  0.4901970000000  0.4758210000000 1.0
C      1  0.4395430000000  0.4969450000000  0.5141800000000 1.0
C      1  0.5128230000000  0.5765800000000  0.4940410000000 1.0
C      1  0.5164430000000  0.4433850000000  0.4411450000000 1.0
C      1  0.5748150000000  0.5021610000000  0.5008830000000 1.0
C      1  0.4994530000000  0.5900270000000  0.5135860000000 1.0
C      1  0.5280070000000  0.4674960000000  0.4544000000000 1.0
C      1  0.4941470000000  0.4969250000000  0.4237340000000 1.0
C      1  0.4910670000000  0.4910250000000  0.4903760000000 1.0
C      1  0.5525730000000  0.5488790000000  0.5090260000000 1.0
C      1  0.5215840000000  0.4347910000000  0.5097540000000 1.0
C      1  0.4911330000000  0.5748740000000  0.5369880000000 1.0
C      1  0.4524720000000  0.4836240000000  0.4533530000000 1.0
C      1  0.4613410000000  0.5062810000000  0.4908860000000 1.0
C      1  0.5012370000000  0.4729340000000  0.4707090000000 1.0
C      1  0.5437290000000  0.4764590000000  0.5346140000000 1.0
C      1  0.5350350000000  0.4977290000000  0.5525430000000 1.0
C      1  0.5322860000000  0.5460910000000  0.5297790000000 1.0
C      1  0.5031570000000  0.4527360000000  0.5495460000000 1.0
C      1  0.4938170000000  0.5354750000000  0.4328920000000 1.0
C      1  0.5684540000000  0.4918730000000  0.5279320000000 1.0
C      1  0.5004620000000  0.5333610000000  0.5649090000000 1.0
C      1  0.4626960000000  0.4426880000000  0.5481500000000 1.0
C      1  0.5240150000000  0.5512810000000  0.5019210000000 1.0
C      1  0.4922120000000  0.4257700000000  0.5111870000000 1.0
C      1  0.5276150000000  0.5226650000000  0.4542280000000 1.0
C      1  0.4728060000000  0.4873790000000  0.4346870000000 1.0
C      1  0.5279700000000  0.4519610000000  0.5332520000000 1.0
C      1  0.5147000000000  0.5168190000000  0.4269660000000 1.0
C      1  0.4926250000000  0.5167970000000  0.5252600000000 1.0
C      1  0.4667110000000  0.5624570000000  0.5274680000000 1.0
C      1  0.4871750000000  0.4762740000000  0.5541010000000 1.0
C      1  0.4652500000000  0.5317610000000  0.5274450000000 1.0
C      1  0.4860740000000  0.4290570000000  0.5396150000000 1.0
C      1  0.4587790000000  0.4704220000000  0.5497820000000 1.0
C      1  0.4482340000000  0.4587270000000  0.4699720000000 1.0
C      1  0.5537920000000  0.5162910000000  0.4670740000000 1.0
C      1  0.4493000000000  0.4536590000000  0.4990990000000 1.0
C      1  0.5654920000000  0.5289900000000  0.4915170000000 1.0
C      1  0.5053050000000  0.5276600000000  0.4719480000000 1.0
C      1  0.5607260000000  0.5125940000000  0.5497560000000 1.0
C      1  0.4658980000000  0.4357500000000  0.4652260000000 1.0
C      1  0.4369420000000  0.5154860000000  0.5349950000000 1.0
C      1  0.5027140000000  0.5052100000000  0.5511370000000 1.0
END
