TITL C-4164246-3563-596 9.25565820903934 125000 -17902.577326411 0 0 121 (C1) n - 1
REM
REM in /home/nfs/bkarasulu/CARBON/AIRSS/Generating-Clusters/ReaxFF-fromJPCA2015/Units_Real/with-SteepDescent/Only-C1/SD-CG/Try1-3A/FIRE-CG
REM
REM
REM
REM
REM
REM ./C.cell (11c1c37f851c82e70ff6c80c92926a4b)
REM
REM compiler GCC version 9.2.1 20190827 (Red Hat 9.2.1-1)
REM options -cpp -mtune=generic -march=x86-64 -g -O0 -fpre-include=/usr/include/finclude/math-vector-fortran.h
REM seed -1354186915 249356340 1286721281 -2021769801 1697976319 -1579433784 119813591 1512668227 -148326310 1758329821 2109075476 1658256953 -2079051143 1674673167 170647807 1517359349 1553062335 -1970428409 2076878280 -2135264333 -110194412 -861834836 -1733933077 1703630527 1154697654 1698890627 860377695 1125504096 -12669339 994208252 -1732936709 598865506 438228410
REM
CELL 1.54180   50.00000   50.00000   50.00000   90.00000   90.00000   90.00000
LATT -1
SFAC C  
C      1  0.4601250000000  0.5730360000000  0.5630680000000 1.0
C      1  0.5683820000000  0.4474770000000  0.5192950000000 1.0
C      1  0.4542660000000  0.4917980000000  0.4930300000000 1.0
C      1  0.4598100000000  0.5954000000000  0.5096470000000 1.0
C      1  0.5230390000000  0.4767210000000  0.5911920000000 1.0
C      1  0.4965730000000  0.5648640000000  0.5265570000000 1.0
C      1  0.4654390000000  0.4409800000000  0.4815490000000 1.0
C      1  0.5965280000000  0.4993040000000  0.5285500000000 1.0
C      1  0.4842760000000  0.5638640000000  0.4424340000000 1.0
C      1  0.4510610000000  0.5068580000000  0.5676180000000 1.0
C      1  0.4619610000000  0.5879720000000  0.4808310000000 1.0
C      1  0.4230340000000  0.5581130000000  0.4903250000000 1.0
C      1  0.4312390000000  0.4761360000000  0.4318940000000 1.0
C      1  0.4384770000000  0.5346690000000  0.5280310000000 1.0
C      1  0.5185220000000  0.4255480000000  0.4925950000000 1.0
C      1  0.4462960000000  0.4287610000000  0.4988040000000 1.0
C      1  0.5422030000000  0.5354290000000  0.4231860000000 1.0
C      1  0.5025280000000  0.4963520000000  0.5613870000000 1.0
C      1  0.5271670000000  0.5177810000000  0.4669300000000 1.0
C      1  0.5557330000000  0.5545290000000  0.4867180000000 1.0
C      1  0.4197940000000  0.4453120000000  0.4607070000000 1.0
C      1  0.5302810000000  0.4782780000000  0.4128020000000 1.0
C      1  0.5313610000000  0.5317700000000  0.5901380000000 1.0
C      1  0.5811630000000  0.5769990000000  0.5184300000000 1.0
C      1  0.4196110000000  0.4932520000000  0.4521540000000 1.0
C      1  0.4797030000000  0.4101130000000  0.5290850000000 1.0
C      1  0.5065630000000  0.5850640000000  0.5044110000000 1.0
C      1  0.4790050000000  0.4841060000000  0.4482640000000 1.0
C      1  0.5114120000000  0.4904800000000  0.5370150000000 1.0
C      1  0.4676770000000  0.4581850000000  0.5637060000000 1.0
C      1  0.5552190000000  0.5115790000000  0.5477780000000 1.0
C      1  0.5280510000000  0.5265140000000  0.5085300000000 1.0
C      1  0.5913950000000  0.4931360000000  0.4993640000000 1.0
C      1  0.5538860000000  0.4853100000000  0.4291580000000 1.0
C      1  0.4844900000000  0.4496190000000  0.5181600000000 1.0
C      1  0.4656460000000  0.4634180000000  0.5346010000000 1.0
C      1  0.4800620000000  0.4165700000000  0.4511820000000 1.0
C      1  0.4356570000000  0.5618960000000  0.5186570000000 1.0
C      1  0.5453610000000  0.4666560000000  0.5162910000000 1.0
C      1  0.5653340000000  0.5523320000000  0.4614020000000 1.0
C      1  0.4351030000000  0.5528500000000  0.4647020000000 1.0
C      1  0.5248050000000  0.4174190000000  0.5438000000000 1.0
C      1  0.4481840000000  0.4929410000000  0.4146860000000 1.0
C      1  0.5140930000000  0.5853590000000  0.4783420000000 1.0
C      1  0.4855970000000  0.4191990000000  0.4816810000000 1.0
C      1  0.5857570000000  0.4648450000000  0.4969710000000 1.0
C      1  0.5250110000000  0.4896280000000  0.4618070000000 1.0
C      1  0.4597710000000  0.5687780000000  0.4592150000000 1.0
C      1  0.5432790000000  0.5518030000000  0.5116200000000 1.0
C      1  0.4581140000000  0.5154510000000  0.4776690000000 1.0
C      1  0.4666550000000  0.4710300000000  0.4758930000000 1.0
C      1  0.4125760000000  0.5325720000000  0.4917560000000 1.0
C      1  0.5858200000000  0.5500650000000  0.5291740000000 1.0
C      1  0.5763750000000  0.4649250000000  0.4716410000000 1.0
C      1  0.5058630000000  0.5373620000000  0.4659890000000 1.0
C      1  0.4197330000000  0.4368560000000  0.4891860000000 1.0
C      1  0.4661450000000  0.5309160000000  0.4207910000000 1.0
C      1  0.5135030000000  0.4525820000000  0.4159410000000 1.0
C      1  0.5584570000000  0.4225320000000  0.5042500000000 1.0
C      1  0.4063110000000  0.4905340000000  0.5457710000000 1.0
C      1  0.5496840000000  0.5130260000000  0.5771270000000 1.0
C      1  0.5545080000000  0.5926220000000  0.5161580000000 1.0
C      1  0.5445960000000  0.5129010000000  0.4893130000000 1.0
C      1  0.4621670000000  0.5200910000000  0.5404000000000 1.0
C      1  0.4844510000000  0.4531630000000  0.4169910000000 1.0
C      1  0.5742730000000  0.5242550000000  0.4572940000000 1.0
C      1  0.4885060000000  0.5455390000000  0.4201290000000 1.0
C      1  0.5160400000000  0.5304540000000  0.4115710000000 1.0
C      1  0.5174100000000  0.4511810000000  0.5770910000000 1.0
C      1  0.4667740000000  0.4071110000000  0.5043680000000 1.0
C      1  0.5496380000000  0.4370750000000  0.4514660000000 1.0
C      1  0.4208280000000  0.5193510000000  0.5111210000000 1.0
C      1  0.4086910000000  0.4721600000000  0.4686610000000 1.0
C      1  0.5144790000000  0.4692610000000  0.4786110000000 1.0
C      1  0.4828740000000  0.5308380000000  0.4828380000000 1.0
C      1  0.5593400000000  0.5134900000000  0.4340620000000 1.0
C      1  0.4999790000000  0.5217630000000  0.5038450000000 1.0
C      1  0.4425960000000  0.5191910000000  0.4269920000000 1.0
C      1  0.5113640000000  0.5763130000000  0.5737620000000 1.0
C      1  0.5713660000000  0.4695450000000  0.5686010000000 1.0
C      1  0.4663500000000  0.4370410000000  0.4339110000000 1.0
C      1  0.5383360000000  0.4370150000000  0.5606490000000 1.0
C      1  0.4529470000000  0.4797430000000  0.5766970000000 1.0
C      1  0.5045600000000  0.4186930000000  0.4385970000000 1.0
C      1  0.5017090000000  0.5303610000000  0.5910610000000 1.0
C      1  0.5264250000000  0.4542440000000  0.4981480000000 1.0
C      1  0.5643360000000  0.4623320000000  0.4469100000000 1.0
C      1  0.4828940000000  0.5822280000000  0.5799250000000 1.0
C      1  0.4631810000000  0.4920710000000  0.5208160000000 1.0
C      1  0.4506030000000  0.5803910000000  0.5340280000000 1.0
C      1  0.3996760000000  0.5066360000000  0.5210700000000 1.0
C      1  0.5422620000000  0.5734740000000  0.5339550000000 1.0
C      1  0.5406770000000  0.4904760000000  0.5327220000000 1.0
C      1  0.4960060000000  0.4176940000000  0.5512240000000 1.0
C      1  0.5501870000000  0.4852630000000  0.5850480000000 1.0
C      1  0.4913910000000  0.4415050000000  0.5692500000000 1.0
C      1  0.5814570000000  0.5230900000000  0.5390650000000 1.0
C      1  0.5026980000000  0.4919980000000  0.4467220000000 1.0
C      1  0.4909920000000  0.4719140000000  0.4941060000000 1.0
C      1  0.4754400000000  0.4814130000000  0.4187370000000 1.0
C      1  0.4793360000000  0.5434000000000  0.5324910000000 1.0
C      1  0.4394750000000  0.4483500000000  0.4394070000000 1.0
C      1  0.5877640000000  0.4818210000000  0.5488740000000 1.0
C      1  0.4264970000000  0.4925210000000  0.5672190000000 1.0
C      1  0.5119730000000  0.5654720000000  0.4571130000000 1.0
C      1  0.5157420000000  0.5792800000000  0.5447700000000 1.0
C      1  0.5733510000000  0.5110700000000  0.4836140000000 1.0
C      1  0.5457130000000  0.4242220000000  0.4775300000000 1.0
C      1  0.5638350000000  0.4473700000000  0.5516810000000 1.0
C      1  0.4760120000000  0.5548850000000  0.5791700000000 1.0
C      1  0.5420830000000  0.5615920000000  0.4411440000000 1.0
C      1  0.4350070000000  0.5216420000000  0.4586060000000 1.0
C      1  0.5281670000000  0.4314120000000  0.4305640000000 1.0
C      1  0.5334620000000  0.4128110000000  0.5161610000000 1.0
C      1  0.5020940000000  0.4994890000000  0.5877320000000 1.0
C      1  0.5319850000000  0.5963260000000  0.4973520000000 1.0
C      1  0.3990840000000  0.4764710000000  0.5215720000000 1.0
C      1  0.5196380000000  0.5034760000000  0.4093060000000 1.0
C      1  0.4088400000000  0.4632530000000  0.4975130000000 1.0
C      1  0.4918510000000  0.4957570000000  0.5130170000000 1.0
C      1  0.5169190000000  0.5486370000000  0.5757630000000 1.0
END
