TITL C-4164233-775-576 18.9974543778083 125000 -14183.1605110302 0 0 94 (C1) n - 1
REM
REM in /home/nfs/bkarasulu/CARBON/AIRSS/Generating-Clusters/ReaxFF-fromJPCA2015/Units_Real/with-SteepDescent/Only-C1/SD-CG/Try1-3A/FIRE-CG
REM
REM
REM
REM
REM
REM ./C.cell (11c1c37f851c82e70ff6c80c92926a4b)
REM
REM compiler GCC version 9.2.1 20190827 (Red Hat 9.2.1-1)
REM options -cpp -mtune=generic -march=x86-64 -g -O0 -fpre-include=/usr/include/finclude/math-vector-fortran.h
REM seed -60187423 -261399488 218203897 149347500 -1286869274 -1429595630 -121023862 893615887 293789607 -84701559 1425934897 -382119396 714348957 -1161637287 1907927503 -1655003085 1887527691 603615695 -1898608222 -1397476329 616810360 798262044 -1923543001 -528948752 -1551941456 -1560803012 -1801726339 1634224554 -89496216 -812754728 301007024 -1911965332 -2085400903
REM
CELL 1.54180   50.00000   50.00000   50.00000   90.00000   90.00000   90.00000
LATT -1
SFAC C  
C      1  0.5777570000000  0.5154830000000  0.5171860000000 1.0
C      1  0.5066940000000  0.5073800000000  0.5844800000000 1.0
C      1  0.5523700000000  0.5113450000000  0.4818190000000 1.0
C      1  0.5329810000000  0.5257580000000  0.4161770000000 1.0
C      1  0.4339760000000  0.5325190000000  0.5285880000000 1.0
C      1  0.5513770000000  0.4637470000000  0.4350130000000 1.0
C      1  0.4560590000000  0.5732170000000  0.5036430000000 1.0
C      1  0.4156740000000  0.5056060000000  0.4983890000000 1.0
C      1  0.5708810000000  0.5308010000000  0.4936250000000 1.0
C      1  0.4568700000000  0.5000210000000  0.5737500000000 1.0
C      1  0.5003950000000  0.4311440000000  0.4622730000000 1.0
C      1  0.5412350000000  0.5673850000000  0.5307490000000 1.0
C      1  0.4546460000000  0.4136310000000  0.5102090000000 1.0
C      1  0.5131260000000  0.5421810000000  0.4991450000000 1.0
C      1  0.4665070000000  0.4885650000000  0.5025100000000 1.0
C      1  0.5435670000000  0.5551750000000  0.4578950000000 1.0
C      1  0.4694040000000  0.5755820000000  0.4607080000000 1.0
C      1  0.5038660000000  0.5359470000000  0.5768910000000 1.0
C      1  0.5504020000000  0.5345110000000  0.4390760000000 1.0
C      1  0.5501070000000  0.4354980000000  0.4444200000000 1.0
C      1  0.5607890000000  0.5105570000000  0.4532800000000 1.0
C      1  0.4925010000000  0.5772880000000  0.5317890000000 1.0
C      1  0.5086020000000  0.4103580000000  0.5007080000000 1.0
C      1  0.5452960000000  0.4552010000000  0.5384300000000 1.0
C      1  0.5122940000000  0.5597350000000  0.4572720000000 1.0
C      1  0.4315510000000  0.4570180000000  0.5151250000000 1.0
C      1  0.4938110000000  0.5781400000000  0.4754750000000 1.0
C      1  0.4531460000000  0.4477790000000  0.4735250000000 1.0
C      1  0.4878170000000  0.4115250000000  0.4794940000000 1.0
C      1  0.4992010000000  0.4866890000000  0.4436260000000 1.0
C      1  0.4318740000000  0.4636220000000  0.4862110000000 1.0
C      1  0.4822230000000  0.4913810000000  0.5856410000000 1.0
C      1  0.4297870000000  0.4789580000000  0.5338660000000 1.0
C      1  0.4771760000000  0.5453520000000  0.5690550000000 1.0
C      1  0.4673590000000  0.5525530000000  0.4413930000000 1.0
C      1  0.5664270000000  0.4677730000000  0.5283750000000 1.0
C      1  0.4728730000000  0.4732440000000  0.4477130000000 1.0
C      1  0.5576790000000  0.5195220000000  0.5391780000000 1.0
C      1  0.4440680000000  0.5347000000000  0.4469430000000 1.0
C      1  0.4699380000000  0.4647960000000  0.5503480000000 1.0
C      1  0.4388900000000  0.5028330000000  0.5178320000000 1.0
C      1  0.5330990000000  0.4148590000000  0.4879810000000 1.0
C      1  0.5180790000000  0.5751710000000  0.5456970000000 1.0
C      1  0.5255580000000  0.4748660000000  0.4273620000000 1.0
C      1  0.4855920000000  0.5038520000000  0.4228900000000 1.0
C      1  0.5017600000000  0.4552570000000  0.4825990000000 1.0
C      1  0.5305800000000  0.4672890000000  0.4875940000000 1.0
C      1  0.4714490000000  0.5640460000000  0.5469080000000 1.0
C      1  0.4392630000000  0.5069300000000  0.4531960000000 1.0
C      1  0.4447620000000  0.5750150000000  0.4767500000000 1.0
C      1  0.4995850000000  0.5078370000000  0.4676430000000 1.0
C      1  0.5481390000000  0.5470220000000  0.5492980000000 1.0
C      1  0.5348900000000  0.5596440000000  0.5046760000000 1.0
C      1  0.5539730000000  0.4516540000000  0.4886440000000 1.0
C      1  0.5239610000000  0.4267820000000  0.4479350000000 1.0
C      1  0.5224520000000  0.4434510000000  0.5461460000000 1.0
C      1  0.4613160000000  0.5237930000000  0.5573220000000 1.0
C      1  0.5027000000000  0.5274460000000  0.4172110000000 1.0
C      1  0.4259300000000  0.4906980000000  0.4757390000000 1.0
C      1  0.4274000000000  0.5549720000000  0.4622490000000 1.0
C      1  0.4712900000000  0.4219700000000  0.5310190000000 1.0
C      1  0.5164710000000  0.4607200000000  0.5686960000000 1.0
C      1  0.4609850000000  0.4213050000000  0.4837040000000 1.0
C      1  0.5817110000000  0.4673520000000  0.4912290000000 1.0
C      1  0.5707890000000  0.4835130000000  0.4467530000000 1.0
C      1  0.4448880000000  0.4333030000000  0.5267490000000 1.0
C      1  0.5117380000000  0.5328440000000  0.4723140000000 1.0
C      1  0.5331350000000  0.5021490000000  0.5269430000000 1.0
C      1  0.4732490000000  0.4678930000000  0.4755680000000 1.0
C      1  0.5765210000000  0.5046850000000  0.5607380000000 1.0
C      1  0.4946020000000  0.5498750000000  0.4334130000000 1.0
C      1  0.5823430000000  0.4802730000000  0.4719300000000 1.0
C      1  0.5831420000000  0.4857100000000  0.5131920000000 1.0
C      1  0.4108570000000  0.5333690000000  0.5094310000000 1.0
C      1  0.4951380000000  0.4519750000000  0.5105380000000 1.0
C      1  0.5564750000000  0.4933080000000  0.5783340000000 1.0
C      1  0.5244170000000  0.5529260000000  0.5650150000000 1.0
C      1  0.4879430000000  0.4654400000000  0.5731530000000 1.0
C      1  0.5554260000000  0.4259470000000  0.4738160000000 1.0
C      1  0.5336000000000  0.4981740000000  0.4176580000000 1.0
C      1  0.5080980000000  0.5085300000000  0.5365290000000 1.0
C      1  0.4846980000000  0.5803750000000  0.5031410000000 1.0
C      1  0.4498790000000  0.5569620000000  0.5275520000000 1.0
C      1  0.5553520000000  0.5549310000000  0.4842750000000 1.0
C      1  0.4450640000000  0.4774860000000  0.5585890000000 1.0
C      1  0.4590300000000  0.4965880000000  0.4346550000000 1.0
C      1  0.4151190000000  0.5466170000000  0.4854310000000 1.0
C      1  0.5271130000000  0.4871330000000  0.5788060000000 1.0
C      1  0.5000680000000  0.4287230000000  0.5256210000000 1.0
C      1  0.5354540000000  0.4941910000000  0.4984080000000 1.0
C      1  0.4826740000000  0.5098770000000  0.4902030000000 1.0
C      1  0.4882540000000  0.5315470000000  0.5091070000000 1.0
C      1  0.4788070000000  0.4704650000000  0.5225060000000 1.0
C      1  0.4839890000000  0.5187380000000  0.5353250000000 1.0
END
