TITL C-4164245-3996-219 4.86031976946293 125000 -6496.46377854059 0 0 44 (C1) n - 1
REM
REM in /home/nfs/bkarasulu/CARBON/AIRSS/Generating-Clusters/ReaxFF-fromJPCA2015/Units_Real/with-SteepDescent/Only-C1/SD-CG/Try1-3A/FIRE-CG
REM
REM
REM
REM
REM
REM ./C.cell (11c1c37f851c82e70ff6c80c92926a4b)
REM
REM compiler GCC version 9.2.1 20190827 (Red Hat 9.2.1-1)
REM options -cpp -mtune=generic -march=x86-64 -g -O0 -fpre-include=/usr/include/finclude/math-vector-fortran.h
REM seed -727041069 209021821 1243234632 1310204498 1320384579 -1188816420 167528652 -1746748552 1407690680 -836210465 -184125243 -1024389797 1781370444 -2000713644 263295134 1935024371 1261421391 -1155622995 1071805908 -28434 175934124 1347614914 1254336229 1583641818 -839552091 519666896 -1224302749 682264324 1947823428 -1608838526 1356403841 2115608369 1335298923
REM
CELL 1.54180   50.00000   50.00000   50.00000   90.00000   90.00000   90.00000
LATT -1
SFAC C  
C      1  0.5018760000000  0.4700480000000  0.5283680000000 1.0
C      1  0.5405340000000  0.4774780000000  0.4693460000000 1.0
C      1  0.5688830000000  0.5185660000000  0.5211220000000 1.0
C      1  0.4338520000000  0.5221820000000  0.5139620000000 1.0
C      1  0.5432070000000  0.5076790000000  0.5691370000000 1.0
C      1  0.5471700000000  0.4584370000000  0.5148040000000 1.0
C      1  0.5497510000000  0.5277810000000  0.5558460000000 1.0
C      1  0.4585250000000  0.4965040000000  0.4683230000000 1.0
C      1  0.4917080000000  0.4972280000000  0.4430500000000 1.0
C      1  0.4556180000000  0.4623330000000  0.5267070000000 1.0
C      1  0.5372060000000  0.4878180000000  0.5560860000000 1.0
C      1  0.4696880000000  0.5456760000000  0.4624460000000 1.0
C      1  0.4645000000000  0.5546450000000  0.4894040000000 1.0
C      1  0.5091860000000  0.4367810000000  0.4829590000000 1.0
C      1  0.5130690000000  0.5494270000000  0.4717230000000 1.0
C      1  0.4959410000000  0.4919160000000  0.5096400000000 1.0
C      1  0.5573800000000  0.4759130000000  0.4928060000000 1.0
C      1  0.4969200000000  0.5427880000000  0.4508060000000 1.0
C      1  0.5682230000000  0.5033280000000  0.4974010000000 1.0
C      1  0.5297240000000  0.4667300000000  0.5386000000000 1.0
C      1  0.4497620000000  0.5244370000000  0.4659420000000 1.0
C      1  0.4369650000000  0.5105970000000  0.5344350000000 1.0
C      1  0.5540430000000  0.5405120000000  0.5299380000000 1.0
C      1  0.4636760000000  0.4586870000000  0.4979470000000 1.0
C      1  0.4782760000000  0.4517750000000  0.4514950000000 1.0
C      1  0.5336670000000  0.5052680000000  0.4646620000000 1.0
C      1  0.5478390000000  0.5214450000000  0.4845880000000 1.0
C      1  0.4792600000000  0.5006740000000  0.5514990000000 1.0
C      1  0.4847430000000  0.5548270000000  0.5086250000000 1.0
C      1  0.4597640000000  0.5225190000000  0.5465420000000 1.0
C      1  0.4413800000000  0.5374500000000  0.4917870000000 1.0
C      1  0.4773940000000  0.4718040000000  0.5446230000000 1.0
C      1  0.4404980000000  0.4852560000000  0.5295410000000 1.0
C      1  0.4812610000000  0.5373430000000  0.5311130000000 1.0
C      1  0.5377900000000  0.5415370000000  0.5038960000000 1.0
C      1  0.4719260000000  0.4864970000000  0.4931220000000 1.0
C      1  0.5049370000000  0.4507850000000  0.4426640000000 1.0
C      1  0.4699000000000  0.4808740000000  0.4453360000000 1.0
C      1  0.4796580000000  0.4426520000000  0.4795970000000 1.0
C      1  0.5265080000000  0.4443150000000  0.5032420000000 1.0
C      1  0.5122240000000  0.5159440000000  0.4461410000000 1.0
C      1  0.5257650000000  0.4518670000000  0.4612730000000 1.0
C      1  0.4970250000000  0.5124840000000  0.5310220000000 1.0
C      1  0.5127790000000  0.5571960000000  0.4984340000000 1.0
END
