TITL C-4164237-1827-553 1.12173438263682 125000 -10989.4237784195 0 0 72 (C1) n - 1
REM
REM in /home/nfs/bkarasulu/CARBON/AIRSS/Generating-Clusters/ReaxFF-fromJPCA2015/Units_Real/with-SteepDescent/Only-C1/SD-CG/Try1-3A/FIRE-CG
REM
REM
REM
REM
REM
REM ./C.cell (11c1c37f851c82e70ff6c80c92926a4b)
REM
REM compiler GCC version 9.2.1 20190827 (Red Hat 9.2.1-1)
REM options -cpp -mtune=generic -march=x86-64 -g -O0 -fpre-include=/usr/include/finclude/math-vector-fortran.h
REM seed 1905772180 -287723318 -118508771 -1274187244 -576185812 1243451924 123141037 462965447 -657314896 1436522930 237521775 1739354224 890912979 -1700010724 1005935013 -1590489884 1310831960 -1508044468 -650895472 -1336352245 -205487876 -29318572 -426136223 586248018 -2795105 -1157981865 904389526 -841216800 -329608152 1202240108 -875379764 490965913 -705344595
REM
CELL 1.54180   50.00000   50.00000   50.00000   90.00000   90.00000   90.00000
LATT -1
SFAC C  
C      1  0.5188350000000  0.5831740000000  0.4855280000000 1.0
C      1  0.4811580000000  0.5487240000000  0.4713010000000 1.0
C      1  0.4501500000000  0.5483970000000  0.4762760000000 1.0
C      1  0.4984320000000  0.5392400000000  0.4464830000000 1.0
C      1  0.4532000000000  0.4443670000000  0.5262230000000 1.0
C      1  0.5436820000000  0.5496440000000  0.5508660000000 1.0
C      1  0.4912710000000  0.4972330000000  0.4791290000000 1.0
C      1  0.5384910000000  0.5774710000000  0.5075150000000 1.0
C      1  0.5209000000000  0.5422870000000  0.5670630000000 1.0
C      1  0.4851920000000  0.5767450000000  0.5168550000000 1.0
C      1  0.4866830000000  0.4711150000000  0.5597340000000 1.0
C      1  0.5718120000000  0.5176780000000  0.5158030000000 1.0
C      1  0.5409020000000  0.5496890000000  0.4940530000000 1.0
C      1  0.5251680000000  0.4332550000000  0.5066700000000 1.0
C      1  0.5469850000000  0.4494360000000  0.4967110000000 1.0
C      1  0.4942600000000  0.4436000000000  0.5479620000000 1.0
C      1  0.4591530000000  0.4485580000000  0.4980880000000 1.0
C      1  0.5141670000000  0.4821060000000  0.4889890000000 1.0
C      1  0.5328400000000  0.5731000000000  0.5354010000000 1.0
C      1  0.5661160000000  0.5319710000000  0.4916290000000 1.0
C      1  0.5334660000000  0.5634850000000  0.4694620000000 1.0
C      1  0.5085260000000  0.4225790000000  0.4557440000000 1.0
C      1  0.4727170000000  0.4265160000000  0.5391320000000 1.0
C      1  0.5303420000000  0.5105650000000  0.4278490000000 1.0
C      1  0.4459120000000  0.4709480000000  0.4303590000000 1.0
C      1  0.5113930000000  0.5131980000000  0.5255180000000 1.0
C      1  0.5381570000000  0.4622780000000  0.4445860000000 1.0
C      1  0.4593160000000  0.5654540000000  0.5244100000000 1.0
C      1  0.4575970000000  0.5423770000000  0.5427940000000 1.0
C      1  0.5717130000000  0.4898170000000  0.5062750000000 1.0
C      1  0.4983220000000  0.5604180000000  0.5632380000000 1.0
C      1  0.5595470000000  0.4652650000000  0.5170640000000 1.0
C      1  0.5405690000000  0.4706640000000  0.4745120000000 1.0
C      1  0.4267530000000  0.5358700000000  0.5083920000000 1.0
C      1  0.5265610000000  0.4823600000000  0.4262990000000 1.0
C      1  0.4942890000000  0.3929700000000  0.5022110000000 1.0
C      1  0.5176830000000  0.4869200000000  0.5165380000000 1.0
C      1  0.5021830000000  0.5156670000000  0.4301420000000 1.0
C      1  0.5043140000000  0.5768750000000  0.5397040000000 1.0
C      1  0.5628790000000  0.5275100000000  0.5432910000000 1.0
C      1  0.4393330000000  0.5226420000000  0.5315330000000 1.0
C      1  0.5072420000000  0.4903340000000  0.5680000000000 1.0
C      1  0.5449300000000  0.5264940000000  0.4449610000000 1.0
C      1  0.5500670000000  0.5066620000000  0.5557370000000 1.0
C      1  0.4417220000000  0.4934130000000  0.5366120000000 1.0
C      1  0.4414190000000  0.5610850000000  0.5016820000000 1.0
C      1  0.4777450000000  0.4346620000000  0.4812740000000 1.0
C      1  0.4445390000000  0.4915840000000  0.4499780000000 1.0
C      1  0.4252810000000  0.4737150000000  0.5178560000000 1.0
C      1  0.5052070000000  0.4184760000000  0.4881750000000 1.0
C      1  0.4227070000000  0.4999210000000  0.4708590000000 1.0
C      1  0.4325300000000  0.4473790000000  0.5077610000000 1.0
C      1  0.4858550000000  0.4400830000000  0.4550040000000 1.0
C      1  0.4717920000000  0.4859580000000  0.4603550000000 1.0
C      1  0.4795460000000  0.5382330000000  0.5614190000000 1.0
C      1  0.5636250000000  0.4914130000000  0.4783970000000 1.0
C      1  0.4978640000000  0.4866050000000  0.4259190000000 1.0
C      1  0.5326310000000  0.4334080000000  0.4412800000000 1.0
C      1  0.4296990000000  0.5275240000000  0.4797290000000 1.0
C      1  0.5190660000000  0.4420790000000  0.5336110000000 1.0
C      1  0.5031180000000  0.5182840000000  0.5571920000000 1.0
C      1  0.5358060000000  0.4676010000000  0.5359100000000 1.0
C      1  0.5352490000000  0.4845930000000  0.5630770000000 1.0
C      1  0.5146720000000  0.5323320000000  0.5044490000000 1.0
C      1  0.5630470000000  0.5174780000000  0.4664360000000 1.0
C      1  0.4219320000000  0.4834340000000  0.4927050000000 1.0
C      1  0.4921240000000  0.5733180000000  0.4888190000000 1.0
C      1  0.4919850000000  0.5252950000000  0.4887780000000 1.0
C      1  0.4639670000000  0.4830320000000  0.5484660000000 1.0
C      1  0.4795680000000  0.4001010000000  0.5263980000000 1.0
C      1  0.4785510000000  0.4666740000000  0.4381780000000 1.0
C      1  0.5255430000000  0.5466630000000  0.4496490000000 1.0
END
