TITL C-4164237-1827-143 67.3588771553997 125000 -17840.2013678697 0 0 122 (C1) n - 1
REM
REM in /home/nfs/bkarasulu/CARBON/AIRSS/Generating-Clusters/ReaxFF-fromJPCA2015/Units_Real/with-SteepDescent/Only-C1/SD-CG/Try1-3A/FIRE-CG
REM
REM
REM
REM
REM
REM ./C.cell (11c1c37f851c82e70ff6c80c92926a4b)
REM
REM compiler GCC version 9.2.1 20190827 (Red Hat 9.2.1-1)
REM options -cpp -mtune=generic -march=x86-64 -g -O0 -fpre-include=/usr/include/finclude/math-vector-fortran.h
REM seed 1169034102 1702650153 1067360939 743956457 -476813134 1508790212 -1643504038 680047000 -66513366 560439263 -1683942568 -1432142014 -1939961152 -32109964 -973443754 -397709044 765598010 1062203435 -1691033602 519630035 -438063300 -618105640 -1568012403 1826681752 842386878 -1813832057 200760550 -839370547 -1789773360 1485599004 2034642956 2054640166 454719375
REM
CELL 1.54180   50.00000   50.00000   50.00000   90.00000   90.00000   90.00000
LATT -1
SFAC C  
C      1  0.4169100000000  0.5038980000000  0.4452460000000 1.0
C      1  0.4362060000000  0.5420960000000  0.5429840000000 1.0
C      1  0.4449640000000  0.5107760000000  0.5766120000000 1.0
C      1  0.5024970000000  0.4351120000000  0.5404880000000 1.0
C      1  0.5082350000000  0.5104310000000  0.4790140000000 1.0
C      1  0.5815650000000  0.5221420000000  0.4610290000000 1.0
C      1  0.5029360000000  0.5561920000000  0.5700430000000 1.0
C      1  0.5180710000000  0.4433170000000  0.5656920000000 1.0
C      1  0.5441620000000  0.4143590000000  0.4679790000000 1.0
C      1  0.4463860000000  0.5861480000000  0.5131570000000 1.0
C      1  0.5485490000000  0.5141340000000  0.5132720000000 1.0
C      1  0.5480320000000  0.5346730000000  0.4931650000000 1.0
C      1  0.4635310000000  0.4115740000000  0.5069710000000 1.0
C      1  0.4380670000000  0.4982650000000  0.5474020000000 1.0
C      1  0.5338110000000  0.4658290000000  0.5545540000000 1.0
C      1  0.5214730000000  0.5475440000000  0.4953820000000 1.0
C      1  0.5157060000000  0.4069260000000  0.4628160000000 1.0
C      1  0.5790060000000  0.4599990000000  0.5403230000000 1.0
C      1  0.4399630000000  0.4234290000000  0.4891830000000 1.0
C      1  0.4866450000000  0.5693140000000  0.5497820000000 1.0
C      1  0.4857200000000  0.5182480000000  0.4141860000000 1.0
C      1  0.4630740000000  0.4963590000000  0.5931370000000 1.0
C      1  0.4602350000000  0.4312750000000  0.5505600000000 1.0
C      1  0.5289030000000  0.4640420000000  0.5144400000000 1.0
C      1  0.5067120000000  0.5385720000000  0.4115250000000 1.0
C      1  0.4572690000000  0.5494240000000  0.4375500000000 1.0
C      1  0.5158420000000  0.5145090000000  0.5529950000000 1.0
C      1  0.4177060000000  0.4414030000000  0.4974270000000 1.0
C      1  0.4150040000000  0.5271510000000  0.4623900000000 1.0
C      1  0.5879020000000  0.5350880000000  0.5204900000000 1.0
C      1  0.4446370000000  0.5555090000000  0.4831680000000 1.0
C      1  0.5579980000000  0.4995380000000  0.5769730000000 1.0
C      1  0.4626120000000  0.5058860000000  0.5350740000000 1.0
C      1  0.5581090000000  0.4377720000000  0.4561470000000 1.0
C      1  0.4517310000000  0.4376770000000  0.4665840000000 1.0
C      1  0.5146170000000  0.5624460000000  0.5185200000000 1.0
C      1  0.4949810000000  0.5058550000000  0.4398520000000 1.0
C      1  0.5333230000000  0.5260120000000  0.4067110000000 1.0
C      1  0.4399290000000  0.5032080000000  0.4248680000000 1.0
C      1  0.4413870000000  0.4858070000000  0.4734380000000 1.0
C      1  0.5051870000000  0.4580920000000  0.4143100000000 1.0
C      1  0.5505570000000  0.5348500000000  0.5323120000000 1.0
C      1  0.4858900000000  0.4879110000000  0.5307450000000 1.0
C      1  0.4076240000000  0.5091900000000  0.5119310000000 1.0
C      1  0.5606610000000  0.5071200000000  0.4447370000000 1.0
C      1  0.5542900000000  0.5300780000000  0.4275530000000 1.0
C      1  0.5277000000000  0.5387230000000  0.5639600000000 1.0
C      1  0.4740260000000  0.4156180000000  0.5347860000000 1.0
C      1  0.5260770000000  0.4365500000000  0.5220660000000 1.0
C      1  0.5160460000000  0.4835590000000  0.4721770000000 1.0
C      1  0.5743880000000  0.5500020000000  0.4666840000000 1.0
C      1  0.5843730000000  0.4556120000000  0.5116530000000 1.0
C      1  0.4530010000000  0.4616370000000  0.4842140000000 1.0
C      1  0.4203510000000  0.5173450000000  0.5360620000000 1.0
C      1  0.5743600000000  0.4335200000000  0.5265180000000 1.0
C      1  0.5084620000000  0.4663900000000  0.4941450000000 1.0
C      1  0.5056060000000  0.5597930000000  0.4318370000000 1.0
C      1  0.5169240000000  0.4347610000000  0.4272090000000 1.0
C      1  0.4884070000000  0.4615410000000  0.5454860000000 1.0
C      1  0.4724740000000  0.5584650000000  0.4925010000000 1.0
C      1  0.5130730000000  0.3949580000000  0.4897190000000 1.0
C      1  0.4643250000000  0.5975310000000  0.4958500000000 1.0
C      1  0.5759820000000  0.5351330000000  0.5472570000000 1.0
C      1  0.4805680000000  0.5539300000000  0.5216480000000 1.0
C      1  0.4144730000000  0.4575500000000  0.5220110000000 1.0
C      1  0.5958150000000  0.5045850000000  0.4793400000000 1.0
C      1  0.4209890000000  0.5547090000000  0.5004380000000 1.0
C      1  0.4729820000000  0.4388050000000  0.4460390000000 1.0
C      1  0.4606690000000  0.4843880000000  0.4229070000000 1.0
C      1  0.4873830000000  0.4033660000000  0.4978270000000 1.0
C      1  0.4656060000000  0.4658770000000  0.5848900000000 1.0
C      1  0.5055440000000  0.5893060000000  0.5454030000000 1.0
C      1  0.5540970000000  0.5750940000000  0.5114100000000 1.0
C      1  0.4735370000000  0.5070180000000  0.4594850000000 1.0
C      1  0.5931110000000  0.5094060000000  0.5082580000000 1.0
C      1  0.4397830000000  0.4663020000000  0.5366220000000 1.0
C      1  0.4357520000000  0.5477940000000  0.4569410000000 1.0
C      1  0.4790560000000  0.5417290000000  0.5812980000000 1.0
C      1  0.5789260000000  0.4539990000000  0.4778440000000 1.0
C      1  0.4839130000000  0.5167800000000  0.5979970000000 1.0
C      1  0.4520170000000  0.5377280000000  0.5717790000000 1.0
C      1  0.5692580000000  0.4936440000000  0.5166030000000 1.0
C      1  0.5542350000000  0.5540000000000  0.4458660000000 1.0
C      1  0.5715470000000  0.5530630000000  0.4988660000000 1.0
C      1  0.5339400000000  0.4957670000000  0.5943990000000 1.0
C      1  0.5849200000000  0.4807380000000  0.4661170000000 1.0
C      1  0.4806100000000  0.5648760000000  0.4461040000000 1.0
C      1  0.5143920000000  0.5940630000000  0.5192020000000 1.0
C      1  0.4037750000000  0.4644250000000  0.4824620000000 1.0
C      1  0.4836300000000  0.4737940000000  0.5073690000000 1.0
C      1  0.5339970000000  0.4980210000000  0.4080500000000 1.0
C      1  0.4976260000000  0.4242240000000  0.4476080000000 1.0
C      1  0.5511180000000  0.4760370000000  0.5026990000000 1.0
C      1  0.5313230000000  0.4711100000000  0.4117330000000 1.0
C      1  0.4588060000000  0.4627880000000  0.5123790000000 1.0
C      1  0.5067870000000  0.5093240000000  0.5270030000000 1.0
C      1  0.4479260000000  0.4512670000000  0.5628680000000 1.0
C      1  0.4624700000000  0.5322600000000  0.5299760000000 1.0
C      1  0.5590120000000  0.4718340000000  0.4770240000000 1.0
C      1  0.5337170000000  0.5897970000000  0.4975890000000 1.0
C      1  0.5163280000000  0.5198200000000  0.4531860000000 1.0
C      1  0.4084280000000  0.5294420000000  0.4911010000000 1.0
C      1  0.5176430000000  0.5762210000000  0.4751310000000 1.0
C      1  0.5331120000000  0.4968280000000  0.4510360000000 1.0
C      1  0.5396380000000  0.5611680000000  0.5325440000000 1.0
C      1  0.5487990000000  0.4192870000000  0.5192810000000 1.0
C      1  0.4159590000000  0.4790440000000  0.4598740000000 1.0
C      1  0.5421530000000  0.4471510000000  0.4343990000000 1.0
C      1  0.5566620000000  0.5278380000000  0.5701540000000 1.0
C      1  0.4576480000000  0.5261200000000  0.4189740000000 1.0
C      1  0.4856520000000  0.5766910000000  0.4733010000000 1.0
C      1  0.5183060000000  0.4883040000000  0.5696410000000 1.0
C      1  0.5609620000000  0.4751630000000  0.5588250000000 1.0
C      1  0.4295340000000  0.5670390000000  0.5255150000000 1.0
C      1  0.4966360000000  0.4630080000000  0.5733460000000 1.0
C      1  0.5060380000000  0.5237600000000  0.5026840000000 1.0
C      1  0.5283800000000  0.5674150000000  0.4488860000000 1.0
C      1  0.5421820000000  0.4039630000000  0.4953230000000 1.0
C      1  0.4573320000000  0.5096390000000  0.4754920000000 1.0
C      1  0.4019220000000  0.4798190000000  0.5074050000000 1.0
C      1  0.4773000000000  0.4616680000000  0.4263210000000 1.0
C      1  0.5118830000000  0.5108920000000  0.6066800000000 1.0
END
