TITL C-4164232-771-137 130.420421908335 125000 -21508.7496647113 0 0 147 (C1) n - 1
REM
REM in /home/nfs/bkarasulu/CARBON/AIRSS/Generating-Clusters/ReaxFF-fromJPCA2015/Units_Real/with-SteepDescent/Only-C1/SD-CG/Try1-3A/FIRE-CG
REM
REM
REM
REM
REM
REM ./C.cell (11c1c37f851c82e70ff6c80c92926a4b)
REM
REM compiler GCC version 9.2.1 20190827 (Red Hat 9.2.1-1)
REM options -cpp -mtune=generic -march=x86-64 -g -O0 -fpre-include=/usr/include/finclude/math-vector-fortran.h
REM seed -1955304634 621627019 -1322461388 501385600 -361860201 -1740788021 469111151 -1429496292 254457118 1716798155 -2043669822 1945557121 1177727331 697722448 -57284628 -1884791614 -1768338626 -494082536 -558524226 -1091221485 -460872253 -1830748648 -1596971362 2061532086 -1245213624 -92646710 1413565560 -1657471308 -263252182 -164220887 -1090807864 -791411396 889817807
REM
CELL 1.54180   50.00000   50.00000   50.00000   90.00000   90.00000   90.00000
LATT -1
SFAC C  
C      1  0.4945410000000  0.5014570000000  0.5307200000000 1.0
C      1  0.5121180000000  0.5359880000000  0.3993530000000 1.0
C      1  0.6050840000000  0.4917050000000  0.5229970000000 1.0
C      1  0.5055920000000  0.4166040000000  0.5639750000000 1.0
C      1  0.3868570000000  0.5409890000000  0.5071020000000 1.0
C      1  0.4623700000000  0.4984470000000  0.4981360000000 1.0
C      1  0.4391280000000  0.4930220000000  0.5158340000000 1.0
C      1  0.4835160000000  0.4745320000000  0.4979310000000 1.0
C      1  0.5204390000000  0.4890850000000  0.4516920000000 1.0
C      1  0.4788250000000  0.6058020000000  0.5080020000000 1.0
C      1  0.5101350000000  0.5397330000000  0.5379340000000 1.0
C      1  0.5499660000000  0.4849490000000  0.4921100000000 1.0
C      1  0.5293140000000  0.4403230000000  0.4225610000000 1.0
C      1  0.4160720000000  0.4487140000000  0.5129850000000 1.0
C      1  0.4970370000000  0.4739860000000  0.5375900000000 1.0
C      1  0.4990250000000  0.5906690000000  0.5235570000000 1.0
C      1  0.5664470000000  0.5228710000000  0.4486400000000 1.0
C      1  0.5335850000000  0.5526340000000  0.5878240000000 1.0
C      1  0.4679210000000  0.5453800000000  0.5138240000000 1.0
C      1  0.4830730000000  0.5155970000000  0.5733130000000 1.0
C      1  0.3891820000000  0.4910640000000  0.4926800000000 1.0
C      1  0.5653210000000  0.5064670000000  0.5770650000000 1.0
C      1  0.4967310000000  0.4567560000000  0.4513470000000 1.0
C      1  0.5058640000000  0.5103640000000  0.4115240000000 1.0
C      1  0.5574180000000  0.5240770000000  0.4213170000000 1.0
C      1  0.4850910000000  0.5729780000000  0.5967260000000 1.0
C      1  0.5121740000000  0.5911180000000  0.4706130000000 1.0
C      1  0.4735350000000  0.5323410000000  0.4518670000000 1.0
C      1  0.4827900000000  0.4959770000000  0.4010460000000 1.0
C      1  0.5487760000000  0.4796560000000  0.5403810000000 1.0
C      1  0.5186750000000  0.5131990000000  0.5420920000000 1.0
C      1  0.5837760000000  0.5442210000000  0.5812130000000 1.0
C      1  0.4694270000000  0.4849770000000  0.4591180000000 1.0
C      1  0.4847020000000  0.5999060000000  0.4791530000000 1.0
C      1  0.4580180000000  0.4113400000000  0.5129810000000 1.0
C      1  0.5559330000000  0.4948740000000  0.4169670000000 1.0
C      1  0.5915040000000  0.4848130000000  0.4773880000000 1.0
C      1  0.4345440000000  0.5137220000000  0.5568670000000 1.0
C      1  0.5932460000000  0.5104980000000  0.5410660000000 1.0
C      1  0.5021180000000  0.5800570000000  0.5750800000000 1.0
C      1  0.5974930000000  0.5398660000000  0.5019620000000 1.0
C      1  0.4787410000000  0.4130290000000  0.5578410000000 1.0
C      1  0.4827500000000  0.4057240000000  0.5000750000000 1.0
C      1  0.5286610000000  0.5718790000000  0.5662740000000 1.0
C      1  0.5495000000000  0.5435220000000  0.4632660000000 1.0
C      1  0.4864410000000  0.5384660000000  0.5540420000000 1.0
C      1  0.5584030000000  0.4317720000000  0.4623240000000 1.0
C      1  0.4644210000000  0.5182390000000  0.4023240000000 1.0
C      1  0.5204370000000  0.4405510000000  0.5139290000000 1.0
C      1  0.4486230000000  0.5579620000000  0.5694200000000 1.0
C      1  0.5975250000000  0.5070730000000  0.4972860000000 1.0
C      1  0.5137990000000  0.4509640000000  0.4754150000000 1.0
C      1  0.4340360000000  0.5497180000000  0.5193690000000 1.0
C      1  0.4170430000000  0.5237080000000  0.4757820000000 1.0
C      1  0.5104940000000  0.5416550000000  0.5983960000000 1.0
C      1  0.4795560000000  0.4670900000000  0.5861020000000 1.0
C      1  0.5647010000000  0.5050410000000  0.5478380000000 1.0
C      1  0.4288390000000  0.4525430000000  0.4472300000000 1.0
C      1  0.4345070000000  0.5370570000000  0.4582700000000 1.0
C      1  0.4824410000000  0.5430300000000  0.4005750000000 1.0
C      1  0.4759360000000  0.5663500000000  0.5577670000000 1.0
C      1  0.5344000000000  0.5835820000000  0.4886740000000 1.0
C      1  0.5758740000000  0.5598060000000  0.5016610000000 1.0
C      1  0.4383580000000  0.4514930000000  0.5586650000000 1.0
C      1  0.4189120000000  0.4625070000000  0.5391600000000 1.0
C      1  0.4028330000000  0.4680550000000  0.4994770000000 1.0
C      1  0.5666790000000  0.4579500000000  0.5727900000000 1.0
C      1  0.4693440000000  0.4590050000000  0.4607990000000 1.0
C      1  0.4399660000000  0.5154010000000  0.4173390000000 1.0
C      1  0.4726620000000  0.5162330000000  0.5198920000000 1.0
C      1  0.4421960000000  0.4593640000000  0.4219800000000 1.0
C      1  0.4903730000000  0.5459200000000  0.4670420000000 1.0
C      1  0.5410510000000  0.4060020000000  0.4965060000000 1.0
C      1  0.5097810000000  0.5799350000000  0.4443760000000 1.0
C      1  0.4395480000000  0.5784810000000  0.4714720000000 1.0
C      1  0.4289560000000  0.5385620000000  0.4317040000000 1.0
C      1  0.5526320000000  0.5269840000000  0.5152130000000 1.0
C      1  0.5024330000000  0.5322000000000  0.4457570000000 1.0
C      1  0.5229810000000  0.4632210000000  0.4529260000000 1.0
C      1  0.5601980000000  0.5537390000000  0.5260390000000 1.0
C      1  0.5137220000000  0.4993020000000  0.5692620000000 1.0
C      1  0.5354700000000  0.5432790000000  0.4146220000000 1.0
C      1  0.4526410000000  0.5946150000000  0.5074300000000 1.0
C      1  0.5569390000000  0.5667670000000  0.4802050000000 1.0
C      1  0.5124650000000  0.4066720000000  0.4560010000000 1.0
C      1  0.5333480000000  0.5006900000000  0.4749980000000 1.0
C      1  0.5547290000000  0.4811220000000  0.5875580000000 1.0
C      1  0.4900960000000  0.5445730000000  0.4942860000000 1.0
C      1  0.4629410000000  0.5549730000000  0.5947930000000 1.0
C      1  0.4536940000000  0.4717320000000  0.5770970000000 1.0
C      1  0.4877460000000  0.4665580000000  0.4040940000000 1.0
C      1  0.4587120000000  0.4436950000000  0.5443450000000 1.0
C      1  0.4339350000000  0.5637970000000  0.4470810000000 1.0
C      1  0.5934510000000  0.4654540000000  0.5229850000000 1.0
C      1  0.5249510000000  0.5523470000000  0.4411310000000 1.0
C      1  0.4819060000000  0.5840090000000  0.4362460000000 1.0
C      1  0.4806090000000  0.5640640000000  0.4180160000000 1.0
C      1  0.5157690000000  0.4624970000000  0.4097830000000 1.0
C      1  0.4636880000000  0.5900480000000  0.4615930000000 1.0
C      1  0.4223370000000  0.4929520000000  0.5373290000000 1.0
C      1  0.4848090000000  0.4565460000000  0.5180900000000 1.0
C      1  0.5134080000000  0.4126970000000  0.5122200000000 1.0
C      1  0.4339260000000  0.5748000000000  0.5028430000000 1.0
C      1  0.5725000000000  0.4618900000000  0.5440560000000 1.0
C      1  0.5673470000000  0.5049190000000  0.5041920000000 1.0
C      1  0.4624270000000  0.5091870000000  0.4659520000000 1.0
C      1  0.6047980000000  0.5371710000000  0.5298660000000 1.0
C      1  0.5487880000000  0.4358310000000  0.5669990000000 1.0
C      1  0.5341660000000  0.4654370000000  0.5116720000000 1.0
C      1  0.4111160000000  0.5329980000000  0.5021390000000 1.0
C      1  0.5259760000000  0.4849380000000  0.5920310000000 1.0
C      1  0.5392640000000  0.4099090000000  0.4680170000000 1.0
C      1  0.5123210000000  0.5360530000000  0.5086100000000 1.0
C      1  0.5083850000000  0.4197660000000  0.4310400000000 1.0
C      1  0.4320680000000  0.4879750000000  0.4253330000000 1.0
C      1  0.5699800000000  0.4375520000000  0.4895540000000 1.0
C      1  0.4067550000000  0.4974830000000  0.4699750000000 1.0
C      1  0.5871900000000  0.4605620000000  0.4943820000000 1.0
C      1  0.4585510000000  0.4511280000000  0.5177150000000 1.0
C      1  0.5206980000000  0.4712890000000  0.5531910000000 1.0
C      1  0.4558770000000  0.5004820000000  0.5709910000000 1.0
C      1  0.5103950000000  0.4729250000000  0.4936280000000 1.0
C      1  0.4542940000000  0.4161790000000  0.5438710000000 1.0
C      1  0.4471710000000  0.4371950000000  0.4661820000000 1.0
C      1  0.4178190000000  0.4798950000000  0.4493590000000 1.0
C      1  0.5352130000000  0.5275630000000  0.4901410000000 1.0
C      1  0.5255270000000  0.4898360000000  0.4213860000000 1.0
C      1  0.4790410000000  0.4240730000000  0.4287670000000 1.0
C      1  0.5065100000000  0.4623950000000  0.5931890000000 1.0
C      1  0.5492680000000  0.4210850000000  0.5410320000000 1.0
C      1  0.4679980000000  0.4476370000000  0.4145210000000 1.0
C      1  0.4792860000000  0.5701450000000  0.5288290000000 1.0
C      1  0.4862640000000  0.4053960000000  0.4712800000000 1.0
C      1  0.5669680000000  0.4743820000000  0.4344340000000 1.0
C      1  0.4661780000000  0.4170670000000  0.4538730000000 1.0
C      1  0.5274640000000  0.5861700000000  0.5172390000000 1.0
C      1  0.3902820000000  0.5151580000000  0.5107850000000 1.0
C      1  0.4347820000000  0.5422580000000  0.5494170000000 1.0
C      1  0.5410970000000  0.5721900000000  0.5387550000000 1.0
C      1  0.5198650000000  0.4437670000000  0.5726790000000 1.0
C      1  0.5597700000000  0.4206450000000  0.5121870000000 1.0
C      1  0.5767230000000  0.4945300000000  0.4541900000000 1.0
C      1  0.5233680000000  0.4087050000000  0.5415030000000 1.0
C      1  0.5550650000000  0.4472230000000  0.4380460000000 1.0
C      1  0.4420010000000  0.4332600000000  0.4999760000000 1.0
C      1  0.5612200000000  0.5352550000000  0.5880640000000 1.0
C      1  0.4835380000000  0.5327330000000  0.5994140000000 1.0
END
