TITL C-4164240-4114-652 6.11778835303867 125000 -11767.8164911591 0 0 78 (C1) n - 1
REM
REM in /home/nfs/bkarasulu/CARBON/AIRSS/Generating-Clusters/ReaxFF-fromJPCA2015/Units_Real/with-SteepDescent/Only-C1/SD-CG/Try1-3A/FIRE-CG
REM
REM
REM
REM
REM
REM ./C.cell (11c1c37f851c82e70ff6c80c92926a4b)
REM
REM compiler GCC version 9.2.1 20190827 (Red Hat 9.2.1-1)
REM options -cpp -mtune=generic -march=x86-64 -g -O0 -fpre-include=/usr/include/finclude/math-vector-fortran.h
REM seed 267855997 -1434485869 -288968782 956699922 -1883789032 -1335674792 -1471609501 -964290052 -1979427560 -1080167369 1131319892 -619044417 1891893550 -471753098 -1129900440 1668900131 60450456 -599188997 -117831584 267794831 -1903265340 -1629501179 -1928775451 -1415013372 1401669427 1052299385 -1125815785 486403427 -1242734918 -1230502285 -2089594581 -1293421718 -1166876964
REM
CELL 1.54180   50.00000   50.00000   50.00000   90.00000   90.00000   90.00000
LATT -1
SFAC C  
C      1  0.4431680000000  0.5258980000000  0.5366300000000 1.0
C      1  0.5066060000000  0.5194750000000  0.4271190000000 1.0
C      1  0.5220970000000  0.5383890000000  0.4772400000000 1.0
C      1  0.5207470000000  0.4656970000000  0.5372980000000 1.0
C      1  0.4223570000000  0.5206660000000  0.5173400000000 1.0
C      1  0.4580360000000  0.4517860000000  0.5525210000000 1.0
C      1  0.4658270000000  0.5723320000000  0.4846460000000 1.0
C      1  0.4798900000000  0.4232810000000  0.5169520000000 1.0
C      1  0.5424770000000  0.5500680000000  0.5737460000000 1.0
C      1  0.4303530000000  0.4435450000000  0.5152670000000 1.0
C      1  0.5056010000000  0.4441470000000  0.5504810000000 1.0
C      1  0.5085140000000  0.5580250000000  0.4609010000000 1.0
C      1  0.4957880000000  0.4572160000000  0.4502190000000 1.0
C      1  0.4995880000000  0.4579920000000  0.4830920000000 1.0
C      1  0.5509920000000  0.4794800000000  0.5097390000000 1.0
C      1  0.5354520000000  0.5848960000000  0.4939810000000 1.0
C      1  0.5704530000000  0.4986390000000  0.4990950000000 1.0
C      1  0.4644310000000  0.5426990000000  0.5278150000000 1.0
C      1  0.5443260000000  0.4736220000000  0.5528690000000 1.0
C      1  0.5746730000000  0.5238130000000  0.4592660000000 1.0
C      1  0.5523150000000  0.4507560000000  0.4731760000000 1.0
C      1  0.4301010000000  0.5319400000000  0.4921380000000 1.0
C      1  0.5550260000000  0.5196010000000  0.4403700000000 1.0
C      1  0.4842020000000  0.4575750000000  0.5648890000000 1.0
C      1  0.4577020000000  0.5444570000000  0.4958590000000 1.0
C      1  0.4208140000000  0.4693040000000  0.5282580000000 1.0
C      1  0.5586480000000  0.4725490000000  0.4585840000000 1.0
C      1  0.4481580000000  0.4765900000000  0.4450780000000 1.0
C      1  0.4983370000000  0.5463490000000  0.4360130000000 1.0
C      1  0.4639810000000  0.5195140000000  0.4475840000000 1.0
C      1  0.5348780000000  0.5076440000000  0.4256360000000 1.0
C      1  0.4099110000000  0.4931320000000  0.5139200000000 1.0
C      1  0.5049260000000  0.5013260000000  0.5116700000000 1.0
C      1  0.5032120000000  0.5195240000000  0.4878840000000 1.0
C      1  0.4835420000000  0.5032330000000  0.4305830000000 1.0
C      1  0.4951190000000  0.5760970000000  0.4815100000000 1.0
C      1  0.4212330000000  0.5128890000000  0.4714540000000 1.0
C      1  0.4894870000000  0.5422650000000  0.5414300000000 1.0
C      1  0.5107120000000  0.5800280000000  0.5066770000000 1.0
C      1  0.4895290000000  0.4842580000000  0.5758470000000 1.0
C      1  0.5402540000000  0.4991670000000  0.5669350000000 1.0
C      1  0.4688670000000  0.5485770000000  0.4372270000000 1.0
C      1  0.4716240000000  0.5051070000000  0.5693910000000 1.0
C      1  0.5812490000000  0.5216290000000  0.5153530000000 1.0
C      1  0.5121310000000  0.5031700000000  0.5727070000000 1.0
C      1  0.4968010000000  0.4300280000000  0.4929220000000 1.0
C      1  0.5739980000000  0.4966470000000  0.4707910000000 1.0
C      1  0.4024990000000  0.4930700000000  0.4853020000000 1.0
C      1  0.5473490000000  0.4321980000000  0.4984480000000 1.0
C      1  0.4762240000000  0.4757280000000  0.4367150000000 1.0
C      1  0.5447520000000  0.4799380000000  0.4308770000000 1.0
C      1  0.4616530000000  0.5644970000000  0.4588090000000 1.0
C      1  0.4744400000000  0.5197570000000  0.4802780000000 1.0
C      1  0.5541050000000  0.5245000000000  0.5623350000000 1.0
C      1  0.4385820000000  0.5035120000000  0.4497120000000 1.0
C      1  0.4398610000000  0.4739580000000  0.5485460000000 1.0
C      1  0.5288410000000  0.4570870000000  0.4258820000000 1.0
C      1  0.5047750000000  0.4207170000000  0.5324000000000 1.0
C      1  0.5628500000000  0.4638690000000  0.5320630000000 1.0
C      1  0.4570770000000  0.4999420000000  0.5461870000000 1.0
C      1  0.5935960000000  0.5421600000000  0.5001860000000 1.0
C      1  0.5110460000000  0.4429420000000  0.4308170000000 1.0
C      1  0.5205430000000  0.4754500000000  0.5082530000000 1.0
C      1  0.4779960000000  0.4959520000000  0.5207100000000 1.0
C      1  0.5594900000000  0.5318600000000  0.5344660000000 1.0
C      1  0.4717690000000  0.4671370000000  0.4845780000000 1.0
C      1  0.4340150000000  0.4471710000000  0.4876320000000 1.0
C      1  0.5450400000000  0.5524830000000  0.4925110000000 1.0
C      1  0.4555930000000  0.4348010000000  0.5287560000000 1.0
C      1  0.5268780000000  0.5700590000000  0.5593410000000 1.0
C      1  0.4494580000000  0.4555180000000  0.4665260000000 1.0
C      1  0.5210620000000  0.4212140000000  0.5069110000000 1.0
C      1  0.5394890000000  0.5458860000000  0.5212050000000 1.0
C      1  0.5564240000000  0.4394090000000  0.5181990000000 1.0
C      1  0.4656810000000  0.4944180000000  0.4947820000000 1.0
C      1  0.5740020000000  0.5459230000000  0.4807910000000 1.0
C      1  0.5144090000000  0.5597350000000  0.5326580000000 1.0
C      1  0.4923670000000  0.5240880000000  0.5640180000000 1.0
END
