TITL C-4164246-3563-398 4.27939945427533 125000 -18423.1117865379 0 0 122 (C1) n - 1
REM
REM in /home/nfs/bkarasulu/CARBON/AIRSS/Generating-Clusters/ReaxFF-fromJPCA2015/Units_Real/with-SteepDescent/Only-C1/SD-CG/Try1-3A/FIRE-CG
REM
REM
REM
REM
REM
REM ./C.cell (11c1c37f851c82e70ff6c80c92926a4b)
REM
REM compiler GCC version 9.2.1 20190827 (Red Hat 9.2.1-1)
REM options -cpp -mtune=generic -march=x86-64 -g -O0 -fpre-include=/usr/include/finclude/math-vector-fortran.h
REM seed -709437933 -275408130 780170357 -1843686808 1924662272 -1680119106 -601106414 -765915891 -1755895540 -1803273963 647510067 1646753806 864525292 1289561487 -913655185 16789947 -1179315361 430887103 277985995 877001330 2027632082 -41317699 -2056871160 -690717292 -330794529 -505426039 -1498656246 678016 818486158 669257587 557373374 421617594 989157500
REM
CELL 1.54180   50.00000   50.00000   50.00000   90.00000   90.00000   90.00000
LATT -1
SFAC C  
C      1  0.5133460000000  0.4167090000000  0.4537910000000 1.0
C      1  0.4923060000000  0.5034010000000  0.4533420000000 1.0
C      1  0.4277820000000  0.5610310000000  0.5187510000000 1.0
C      1  0.4647260000000  0.5311450000000  0.5880730000000 1.0
C      1  0.5281900000000  0.5621470000000  0.5226950000000 1.0
C      1  0.4952110000000  0.4767320000000  0.4346430000000 1.0
C      1  0.4814460000000  0.5447450000000  0.4954900000000 1.0
C      1  0.5705690000000  0.5523430000000  0.4743920000000 1.0
C      1  0.5099580000000  0.4977730000000  0.5262450000000 1.0
C      1  0.4331300000000  0.5525610000000  0.4423130000000 1.0
C      1  0.5194790000000  0.4285450000000  0.5539670000000 1.0
C      1  0.4257540000000  0.5157850000000  0.5521150000000 1.0
C      1  0.4629760000000  0.4374640000000  0.5745810000000 1.0
C      1  0.4643840000000  0.4330300000000  0.4485150000000 1.0
C      1  0.5087360000000  0.5552810000000  0.5839900000000 1.0
C      1  0.5332810000000  0.4435720000000  0.5755960000000 1.0
C      1  0.4223350000000  0.4732710000000  0.4453970000000 1.0
C      1  0.5198470000000  0.4605560000000  0.4241270000000 1.0
C      1  0.4684810000000  0.4877080000000  0.5207130000000 1.0
C      1  0.4890930000000  0.4908440000000  0.4994070000000 1.0
C      1  0.5873570000000  0.4754120000000  0.5288030000000 1.0
C      1  0.5528670000000  0.5564920000000  0.4521610000000 1.0
C      1  0.5340800000000  0.5773490000000  0.4570240000000 1.0
C      1  0.4792710000000  0.5343260000000  0.5423050000000 1.0
C      1  0.5116870000000  0.4499000000000  0.5943820000000 1.0
C      1  0.5332790000000  0.5552690000000  0.5742490000000 1.0
C      1  0.5048280000000  0.5781150000000  0.5273380000000 1.0
C      1  0.5648820000000  0.4846160000000  0.4418910000000 1.0
C      1  0.5539710000000  0.4278380000000  0.4369030000000 1.0
C      1  0.4278560000000  0.4736800000000  0.5577230000000 1.0
C      1  0.4507850000000  0.4366370000000  0.5334230000000 1.0
C      1  0.5100550000000  0.4022730000000  0.5234350000000 1.0
C      1  0.4224550000000  0.5037090000000  0.4878180000000 1.0
C      1  0.5053590000000  0.6035580000000  0.5133980000000 1.0
C      1  0.5684150000000  0.5141040000000  0.4486440000000 1.0
C      1  0.4170170000000  0.4895660000000  0.5377180000000 1.0
C      1  0.5136190000000  0.5145260000000  0.5752950000000 1.0
C      1  0.5179630000000  0.4719420000000  0.5353110000000 1.0
C      1  0.5564740000000  0.5094340000000  0.5205700000000 1.0
C      1  0.4382380000000  0.4305020000000  0.4622110000000 1.0
C      1  0.4191680000000  0.4571450000000  0.4965080000000 1.0
C      1  0.4254080000000  0.5641620000000  0.4886180000000 1.0
C      1  0.4512330000000  0.5784370000000  0.4882150000000 1.0
C      1  0.5478590000000  0.4700020000000  0.5701230000000 1.0
C      1  0.4494230000000  0.4734270000000  0.4340140000000 1.0
C      1  0.4669210000000  0.5164380000000  0.4582970000000 1.0
C      1  0.5541560000000  0.4414550000000  0.4657030000000 1.0
C      1  0.5315190000000  0.4566510000000  0.5178200000000 1.0
C      1  0.5344170000000  0.4913760000000  0.4760160000000 1.0
C      1  0.5294060000000  0.4905980000000  0.5825840000000 1.0
C      1  0.4889060000000  0.4507500000000  0.5760640000000 1.0
C      1  0.4623300000000  0.5437000000000  0.4467670000000 1.0
C      1  0.4596030000000  0.5272000000000  0.5028180000000 1.0
C      1  0.5531590000000  0.4921180000000  0.4981700000000 1.0
C      1  0.5096300000000  0.4786130000000  0.6001310000000 1.0
C      1  0.5079590000000  0.5447920000000  0.4122310000000 1.0
C      1  0.4907670000000  0.5191330000000  0.5959320000000 1.0
C      1  0.4446770000000  0.4623410000000  0.5767480000000 1.0
C      1  0.5577330000000  0.5680750000000  0.5225040000000 1.0
C      1  0.4842600000000  0.4143640000000  0.4589410000000 1.0
C      1  0.4863510000000  0.5877000000000  0.4676050000000 1.0
C      1  0.5237740000000  0.5376650000000  0.5079090000000 1.0
C      1  0.4984260000000  0.5649350000000  0.4253500000000 1.0
C      1  0.4682790000000  0.4199900000000  0.5522350000000 1.0
C      1  0.5511900000000  0.5330520000000  0.4360640000000 1.0
C      1  0.4327170000000  0.4339830000000  0.5090370000000 1.0
C      1  0.4782820000000  0.5437290000000  0.4172350000000 1.0
C      1  0.4750390000000  0.4173130000000  0.4865400000000 1.0
C      1  0.5409310000000  0.4795020000000  0.4190420000000 1.0
C      1  0.5448560000000  0.4705780000000  0.4588560000000 1.0
C      1  0.5552800000000  0.5543960000000  0.5615370000000 1.0
C      1  0.4118580000000  0.5168260000000  0.4638500000000 1.0
C      1  0.5813660000000  0.5251450000000  0.4720660000000 1.0
C      1  0.4831330000000  0.4917260000000  0.6008900000000 1.0
C      1  0.5993790000000  0.4866940000000  0.4753350000000 1.0
C      1  0.5241440000000  0.6077890000000  0.4929680000000 1.0
C      1  0.5256800000000  0.4319000000000  0.4302380000000 1.0
C      1  0.5629870000000  0.5725180000000  0.4940940000000 1.0
C      1  0.4888890000000  0.4425420000000  0.4950410000000 1.0
C      1  0.4200990000000  0.5022510000000  0.4400220000000 1.0
C      1  0.5786130000000  0.5223470000000  0.5329870000000 1.0
C      1  0.4974890000000  0.6066210000000  0.4865630000000 1.0
C      1  0.5886800000000  0.4685900000000  0.4578830000000 1.0
C      1  0.5004400000000  0.5162490000000  0.5496800000000 1.0
C      1  0.4568060000000  0.4879760000000  0.5862520000000 1.0
C      1  0.4614360000000  0.5164340000000  0.5289630000000 1.0
C      1  0.5736350000000  0.5506570000000  0.5406330000000 1.0
C      1  0.4256180000000  0.5381710000000  0.5359990000000 1.0
C      1  0.5316660000000  0.5155190000000  0.5212910000000 1.0
C      1  0.4723370000000  0.4621180000000  0.4514710000000 1.0
C      1  0.4511040000000  0.5095460000000  0.4819850000000 1.0
C      1  0.5826690000000  0.4489170000000  0.4782740000000 1.0
C      1  0.5427810000000  0.5893540000000  0.4814200000000 1.0
C      1  0.5019710000000  0.4524640000000  0.5495480000000 1.0
C      1  0.4163490000000  0.5471120000000  0.4656300000000 1.0
C      1  0.4207390000000  0.4533650000000  0.4673590000000 1.0
C      1  0.5160130000000  0.4383040000000  0.5056170000000 1.0
C      1  0.5127820000000  0.5106530000000  0.4708210000000 1.0
C      1  0.5811420000000  0.4551790000000  0.5069800000000 1.0
C      1  0.4963970000000  0.4099620000000  0.5475040000000 1.0
C      1  0.4540130000000  0.5748170000000  0.5172480000000 1.0
C      1  0.5336800000000  0.4175670000000  0.4736750000000 1.0
C      1  0.4710290000000  0.5135160000000  0.4133640000000 1.0
C      1  0.5992920000000  0.5095330000000  0.4911080000000 1.0
C      1  0.4455070000000  0.4185590000000  0.4879300000000 1.0
C      1  0.4933580000000  0.4954000000000  0.4108910000000 1.0
C      1  0.5069140000000  0.5791630000000  0.4481070000000 1.0
C      1  0.4832650000000  0.4679790000000  0.4829000000000 1.0
C      1  0.5274930000000  0.4106510000000  0.5020410000000 1.0
C      1  0.5232040000000  0.5006950000000  0.4095980000000 1.0
C      1  0.4794770000000  0.5583180000000  0.5840860000000 1.0
C      1  0.5300900000000  0.5280430000000  0.4169400000000 1.0
C      1  0.5034060000000  0.5272860000000  0.4923890000000 1.0
C      1  0.4595970000000  0.4620520000000  0.5270940000000 1.0
C      1  0.5960540000000  0.5031240000000  0.5204090000000 1.0
C      1  0.5682910000000  0.4730570000000  0.5502850000000 1.0
C      1  0.4152360000000  0.4836520000000  0.5082980000000 1.0
C      1  0.4722520000000  0.5630620000000  0.4730270000000 1.0
C      1  0.4461270000000  0.5129800000000  0.5757990000000 1.0
C      1  0.5538560000000  0.4645740000000  0.5061410000000 1.0
C      1  0.4466730000000  0.5001250000000  0.4229270000000 1.0
C      1  0.4798420000000  0.5614070000000  0.5260150000000 1.0
END
