TITL C-4164240-4114-89 16.9469672521856 125000 -27266.0633799531 0 0 182 (C1) n - 1
REM
REM in /home/nfs/bkarasulu/CARBON/AIRSS/Generating-Clusters/ReaxFF-fromJPCA2015/Units_Real/with-SteepDescent/Only-C1/SD-CG/Try1-3A/FIRE-CG
REM
REM
REM
REM
REM
REM ./C.cell (11c1c37f851c82e70ff6c80c92926a4b)
REM
REM compiler GCC version 9.2.1 20190827 (Red Hat 9.2.1-1)
REM options -cpp -mtune=generic -march=x86-64 -g -O0 -fpre-include=/usr/include/finclude/math-vector-fortran.h
REM seed 354440945 -1238137484 783548697 -22099382 -17556474 -1870317732 -160957706 1596075161 -1696181416 -807632551 -482415296 -948813162 799558478 965423638 1934302234 -1161205439 1940504644 887594318 1852553595 -1248828339 751553204 298205289 14320780 -991342759 -652222000 -1184587677 1363557898 -1469989190 -1969376206 1249090242 951192591 1508566964 1993892578
REM
CELL 1.54180   50.00000   50.00000   50.00000   90.00000   90.00000   90.00000
LATT -1
SFAC C  
C      1  0.4991560000000  0.4108630000000  0.5608670000000 1.0
C      1  0.4124820000000  0.5223890000000  0.4420500000000 1.0
C      1  0.4803850000000  0.4217140000000  0.4297140000000 1.0
C      1  0.4758560000000  0.5727510000000  0.4219630000000 1.0
C      1  0.5659440000000  0.5575380000000  0.4250940000000 1.0
C      1  0.4063150000000  0.4406730000000  0.4773800000000 1.0
C      1  0.4716530000000  0.4528620000000  0.4734790000000 1.0
C      1  0.3951030000000  0.5093760000000  0.4500350000000 1.0
C      1  0.4737170000000  0.4407290000000  0.5031820000000 1.0
C      1  0.6068670000000  0.4602140000000  0.4943270000000 1.0
C      1  0.4867750000000  0.5343790000000  0.5810420000000 1.0
C      1  0.3975590000000  0.4725470000000  0.5126300000000 1.0
C      1  0.5557580000000  0.4953880000000  0.5895520000000 1.0
C      1  0.5960090000000  0.5719260000000  0.4966110000000 1.0
C      1  0.5673340000000  0.4448000000000  0.5651450000000 1.0
C      1  0.5565160000000  0.5477610000000  0.5673460000000 1.0
C      1  0.5539230000000  0.5814820000000  0.4778380000000 1.0
C      1  0.4970930000000  0.5308240000000  0.5329260000000 1.0
C      1  0.5895720000000  0.4535060000000  0.4701970000000 1.0
C      1  0.5733480000000  0.4822060000000  0.5377650000000 1.0
C      1  0.4605400000000  0.4982920000000  0.5503370000000 1.0
C      1  0.5168090000000  0.5319330000000  0.5879520000000 1.0
C      1  0.5859830000000  0.5594080000000  0.4452460000000 1.0
C      1  0.5423070000000  0.4052020000000  0.5444010000000 1.0
C      1  0.5149980000000  0.5307090000000  0.4792320000000 1.0
C      1  0.5372290000000  0.5112870000000  0.4770580000000 1.0
C      1  0.5359580000000  0.5500470000000  0.5107380000000 1.0
C      1  0.5874560000000  0.5697460000000  0.5267320000000 1.0
C      1  0.4270320000000  0.4331790000000  0.4551640000000 1.0
C      1  0.4761800000000  0.5222300000000  0.5517070000000 1.0
C      1  0.5332930000000  0.5355010000000  0.3990730000000 1.0
C      1  0.5309720000000  0.3989880000000  0.4966600000000 1.0
C      1  0.5027020000000  0.4821570000000  0.5250340000000 1.0
C      1  0.5651070000000  0.4819090000000  0.5102490000000 1.0
C      1  0.5839300000000  0.5755190000000  0.4706670000000 1.0
C      1  0.6011410000000  0.4550030000000  0.5212450000000 1.0
C      1  0.4639440000000  0.5098200000000  0.4103400000000 1.0
C      1  0.4302220000000  0.4321550000000  0.4244980000000 1.0
C      1  0.4955690000000  0.5094530000000  0.4092680000000 1.0
C      1  0.5690740000000  0.4688870000000  0.5831080000000 1.0
C      1  0.4945410000000  0.5856780000000  0.5735280000000 1.0
C      1  0.4938300000000  0.5619890000000  0.4024210000000 1.0
C      1  0.4501280000000  0.5610790000000  0.5704350000000 1.0
C      1  0.3961460000000  0.4666430000000  0.4830480000000 1.0
C      1  0.4913390000000  0.3975310000000  0.4724830000000 1.0
C      1  0.4471920000000  0.5113400000000  0.5883680000000 1.0
C      1  0.5523290000000  0.5241980000000  0.5501340000000 1.0
C      1  0.4482220000000  0.5577880000000  0.4653500000000 1.0
C      1  0.4299710000000  0.4144690000000  0.5538170000000 1.0
C      1  0.4718520000000  0.4500820000000  0.5323200000000 1.0
C      1  0.5503340000000  0.5107070000000  0.4392090000000 1.0
C      1  0.5968570000000  0.4988980000000  0.5448520000000 1.0
C      1  0.5053690000000  0.4398500000000  0.4320750000000 1.0
C      1  0.4752990000000  0.5112960000000  0.5966110000000 1.0
C      1  0.5776660000000  0.5161360000000  0.5856360000000 1.0
C      1  0.4331350000000  0.4901490000000  0.5684230000000 1.0
C      1  0.5021370000000  0.6163620000000  0.5086880000000 1.0
C      1  0.4495070000000  0.4202610000000  0.5746290000000 1.0
C      1  0.4012600000000  0.5308350000000  0.4906130000000 1.0
C      1  0.4715800000000  0.4062240000000  0.4527980000000 1.0
C      1  0.5094010000000  0.3895490000000  0.5135010000000 1.0
C      1  0.6024660000000  0.5442700000000  0.4925470000000 1.0
C      1  0.4486950000000  0.5331760000000  0.5137690000000 1.0
C      1  0.4715230000000  0.4207910000000  0.5527230000000 1.0
C      1  0.4496540000000  0.5730470000000  0.5437210000000 1.0
C      1  0.5987650000000  0.5329960000000  0.4366260000000 1.0
C      1  0.5680480000000  0.4349280000000  0.4661180000000 1.0
C      1  0.4067460000000  0.5796650000000  0.4840590000000 1.0
C      1  0.4975170000000  0.4568470000000  0.5370050000000 1.0
C      1  0.4304750000000  0.5585130000000  0.5242100000000 1.0
C      1  0.4315640000000  0.4820990000000  0.4545310000000 1.0
C      1  0.4062530000000  0.5480800000000  0.4464270000000 1.0
C      1  0.3969400000000  0.4977670000000  0.5286690000000 1.0
C      1  0.5633730000000  0.5027130000000  0.4156330000000 1.0
C      1  0.4536240000000  0.4734740000000  0.3973150000000 1.0
C      1  0.5454220000000  0.4729030000000  0.4111110000000 1.0
C      1  0.4205390000000  0.5810330000000  0.5064680000000 1.0
C      1  0.5460840000000  0.5978250000000  0.5016070000000 1.0
C      1  0.5641530000000  0.5812230000000  0.5354970000000 1.0
C      1  0.4249790000000  0.5150610000000  0.4855510000000 1.0
C      1  0.3938200000000  0.5255880000000  0.5185670000000 1.0
C      1  0.5403840000000  0.5729410000000  0.4309160000000 1.0
C      1  0.5308280000000  0.5559970000000  0.5785570000000 1.0
C      1  0.6141420000000  0.5047310000000  0.5217910000000 1.0
C      1  0.5213560000000  0.5546440000000  0.4403120000000 1.0
C      1  0.5227310000000  0.5808030000000  0.5653260000000 1.0
C      1  0.4713770000000  0.5370690000000  0.4994550000000 1.0
C      1  0.5937420000000  0.5235860000000  0.5596020000000 1.0
C      1  0.5567470000000  0.4569250000000  0.6045520000000 1.0
C      1  0.3988870000000  0.5544450000000  0.4737550000000 1.0
C      1  0.5783200000000  0.4800540000000  0.4642080000000 1.0
C      1  0.4393200000000  0.3978650000000  0.4890720000000 1.0
C      1  0.4295180000000  0.5986490000000  0.4856780000000 1.0
C      1  0.5035400000000  0.5063730000000  0.4392680000000 1.0
C      1  0.4518750000000  0.4024930000000  0.5375020000000 1.0
C      1  0.5123460000000  0.4411530000000  0.5173990000000 1.0
C      1  0.5517880000000  0.5481490000000  0.4860540000000 1.0
C      1  0.5462630000000  0.4754010000000  0.5463730000000 1.0
C      1  0.4762020000000  0.5639900000000  0.5823200000000 1.0
C      1  0.5748560000000  0.5449190000000  0.5924170000000 1.0
C      1  0.4739470000000  0.6114120000000  0.5155470000000 1.0
C      1  0.5195160000000  0.4057890000000  0.4698500000000 1.0
C      1  0.4913730000000  0.5201640000000  0.4921010000000 1.0
C      1  0.6075310000000  0.4897880000000  0.4972310000000 1.0
C      1  0.5347390000000  0.4450190000000  0.6102930000000 1.0
C      1  0.5354750000000  0.4964370000000  0.4540860000000 1.0
C      1  0.4563560000000  0.3906850000000  0.5108020000000 1.0
C      1  0.4397930000000  0.4495970000000  0.4028740000000 1.0
C      1  0.4820520000000  0.5931220000000  0.4436260000000 1.0
C      1  0.4452780000000  0.4454270000000  0.5898530000000 1.0
C      1  0.4064330000000  0.5439740000000  0.5367380000000 1.0
C      1  0.5502840000000  0.4745160000000  0.4607770000000 1.0
C      1  0.5149990000000  0.3955620000000  0.5423390000000 1.0
C      1  0.5507010000000  0.5266720000000  0.5216000000000 1.0
C      1  0.5934200000000  0.5078160000000  0.4233080000000 1.0
C      1  0.5077800000000  0.5532640000000  0.5184770000000 1.0
C      1  0.4929180000000  0.4651920000000  0.6064090000000 1.0
C      1  0.4372850000000  0.5126680000000  0.4576730000000 1.0
C      1  0.5368830000000  0.4540760000000  0.5287910000000 1.0
C      1  0.4397160000000  0.5069320000000  0.5083090000000 1.0
C      1  0.4436340000000  0.4074680000000  0.4631090000000 1.0
C      1  0.4180190000000  0.4423190000000  0.5507950000000 1.0
C      1  0.4084700000000  0.5020610000000  0.5548610000000 1.0
C      1  0.4995190000000  0.4944140000000  0.5990990000000 1.0
C      1  0.4527860000000  0.5504300000000  0.4252090000000 1.0
C      1  0.5058990000000  0.4776150000000  0.4971110000000 1.0
C      1  0.4884380000000  0.5727770000000  0.5046620000000 1.0
C      1  0.4283030000000  0.4605310000000  0.5706850000000 1.0
C      1  0.5456940000000  0.4255220000000  0.5655680000000 1.0
C      1  0.5999720000000  0.5459810000000  0.5410050000000 1.0
C      1  0.5569070000000  0.4536720000000  0.5060710000000 1.0
C      1  0.5519840000000  0.4063060000000  0.5165380000000 1.0
C      1  0.4495890000000  0.5309990000000  0.4024050000000 1.0
C      1  0.4604630000000  0.5112860000000  0.3836370000000 1.0
C      1  0.5176690000000  0.4257370000000  0.5776390000000 1.0
C      1  0.4064140000000  0.4481240000000  0.5246980000000 1.0
C      1  0.5848950000000  0.4400000000000  0.5391850000000 1.0
C      1  0.5265630000000  0.5053760000000  0.5939470000000 1.0
C      1  0.5351560000000  0.5010770000000  0.5524480000000 1.0
C      1  0.5355430000000  0.5910690000000  0.4535110000000 1.0
C      1  0.4713030000000  0.5586780000000  0.4826720000000 1.0
C      1  0.4453170000000  0.4587600000000  0.4617490000000 1.0
C      1  0.4706920000000  0.5861550000000  0.5290170000000 1.0
C      1  0.5115140000000  0.5058330000000  0.5382340000000 1.0
C      1  0.4357190000000  0.5359990000000  0.5780350000000 1.0
C      1  0.6133980000000  0.5336560000000  0.5186910000000 1.0
C      1  0.5591450000000  0.5339280000000  0.4069060000000 1.0
C      1  0.4117970000000  0.5301450000000  0.5614970000000 1.0
C      1  0.5539020000000  0.4510150000000  0.4237060000000 1.0
C      1  0.4024370000000  0.4841810000000  0.4590540000000 1.0
C      1  0.4917450000000  0.4590490000000  0.4529510000000 1.0
C      1  0.4841480000000  0.3888350000000  0.4993810000000 1.0
C      1  0.4584050000000  0.4874080000000  0.5022710000000 1.0
C      1  0.4834420000000  0.4932720000000  0.4855480000000 1.0
C      1  0.5178130000000  0.4635730000000  0.4094300000000 1.0
C      1  0.5299940000000  0.6108900000000  0.5200060000000 1.0
C      1  0.4700240000000  0.4556620000000  0.5984620000000 1.0
C      1  0.4560900000000  0.4252780000000  0.4143390000000 1.0
C      1  0.5718140000000  0.4272570000000  0.5160540000000 1.0
C      1  0.5076880000000  0.5962250000000  0.4597870000000 1.0
C      1  0.5088680000000  0.4385410000000  0.6033300000000 1.0
C      1  0.4568200000000  0.6089340000000  0.4889880000000 1.0
C      1  0.4585610000000  0.5343320000000  0.4520650000000 1.0
C      1  0.4879720000000  0.4866060000000  0.4539350000000 1.0
C      1  0.5874430000000  0.5034590000000  0.4796890000000 1.0
C      1  0.5057680000000  0.5351570000000  0.4511030000000 1.0
C      1  0.4313600000000  0.5627950000000  0.4418010000000 1.0
C      1  0.4462090000000  0.4355710000000  0.5041420000000 1.0
C      1  0.5155170000000  0.4518970000000  0.4902130000000 1.0
C      1  0.4747640000000  0.4841220000000  0.3813180000000 1.0
C      1  0.5025100000000  0.5953450000000  0.4889850000000 1.0
C      1  0.5257890000000  0.4223830000000  0.4466480000000 1.0
C      1  0.5072230000000  0.5356840000000  0.3949560000000 1.0
C      1  0.4588050000000  0.4779040000000  0.5291010000000 1.0
C      1  0.4177150000000  0.4299550000000  0.5024220000000 1.0
C      1  0.5009640000000  0.4826720000000  0.3958690000000 1.0
C      1  0.5543000000000  0.4283780000000  0.4410680000000 1.0
C      1  0.4652860000000  0.6009950000000  0.4643520000000 1.0
C      1  0.5769100000000  0.5313370000000  0.4834240000000 1.0
C      1  0.5434280000000  0.4509480000000  0.4767580000000 1.0
C      1  0.5402230000000  0.5931610000000  0.5429970000000 1.0
C      1  0.5500160000000  0.5045430000000  0.5026760000000 1.0
END
