TITL C-4164243-3780-414 -6.52764331829549 125000 -16370.7151090312 0 0 110 (C1) n - 1
REM
REM in /home/nfs/bkarasulu/CARBON/AIRSS/Generating-Clusters/ReaxFF-fromJPCA2015/Units_Real/with-SteepDescent/Only-C1/SD-CG/Try1-3A/FIRE-CG
REM
REM
REM
REM
REM
REM ./C.cell (11c1c37f851c82e70ff6c80c92926a4b)
REM
REM compiler GCC version 9.2.1 20190827 (Red Hat 9.2.1-1)
REM options -cpp -mtune=generic -march=x86-64 -g -O0 -fpre-include=/usr/include/finclude/math-vector-fortran.h
REM seed 1680292204 1705971459 -615394269 1169105563 820801091 731457480 1028077932 1150531576 1432621283 9488093 1092645491 -1646275981 1678089945 -346649305 -1965947384 1065428676 423201129 1493836154 790145452 -1225928553 -749072719 -1318235560 516453951 -2079832118 -700108880 1008038878 -318489819 -1263717421 -462098319 -54407059 -389576421 409334662 1908550203
REM
CELL 1.54180   50.00000   50.00000   50.00000   90.00000   90.00000   90.00000
LATT -1
SFAC C  
C      1  0.5372850000000  0.5455580000000  0.5007510000000 1.0
C      1  0.4697990000000  0.5550890000000  0.5605220000000 1.0
C      1  0.4756700000000  0.5081360000000  0.5822500000000 1.0
C      1  0.5171990000000  0.5396360000000  0.4808440000000 1.0
C      1  0.4532570000000  0.5343390000000  0.4864590000000 1.0
C      1  0.5216880000000  0.4966020000000  0.5784940000000 1.0
C      1  0.5789350000000  0.5277480000000  0.4787480000000 1.0
C      1  0.5238720000000  0.5372680000000  0.4283100000000 1.0
C      1  0.4791710000000  0.5355600000000  0.5162270000000 1.0
C      1  0.5836270000000  0.5228700000000  0.5289060000000 1.0
C      1  0.4520800000000  0.4292810000000  0.4947360000000 1.0
C      1  0.4784830000000  0.5695410000000  0.4779550000000 1.0
C      1  0.4125090000000  0.5139820000000  0.4913400000000 1.0
C      1  0.5553580000000  0.4892040000000  0.4405640000000 1.0
C      1  0.5724860000000  0.4585450000000  0.4798610000000 1.0
C      1  0.5674250000000  0.5271720000000  0.4515010000000 1.0
C      1  0.4524780000000  0.4993920000000  0.5669130000000 1.0
C      1  0.4654660000000  0.4138700000000  0.4524320000000 1.0
C      1  0.5004170000000  0.4604330000000  0.5787710000000 1.0
C      1  0.4511770000000  0.4698920000000  0.5629230000000 1.0
C      1  0.4963680000000  0.4879280000000  0.5890840000000 1.0
C      1  0.4163180000000  0.4553680000000  0.4895110000000 1.0
C      1  0.5255020000000  0.4839150000000  0.4893810000000 1.0
C      1  0.5242010000000  0.5171760000000  0.4664200000000 1.0
C      1  0.4688030000000  0.5788860000000  0.5033980000000 1.0
C      1  0.5182430000000  0.4076700000000  0.4978390000000 1.0
C      1  0.4368040000000  0.5464200000000  0.4671680000000 1.0
C      1  0.4876550000000  0.5137580000000  0.4134290000000 1.0
C      1  0.5118790000000  0.4507690000000  0.5204320000000 1.0
C      1  0.5121850000000  0.5433020000000  0.5832500000000 1.0
C      1  0.4072450000000  0.5061490000000  0.4635910000000 1.0
C      1  0.5434190000000  0.5875850000000  0.5054710000000 1.0
C      1  0.5777970000000  0.5499700000000  0.5294160000000 1.0
C      1  0.5270270000000  0.4556010000000  0.5724650000000 1.0
C      1  0.4888630000000  0.5894260000000  0.5211800000000 1.0
C      1  0.4575180000000  0.4656610000000  0.4630960000000 1.0
C      1  0.5471860000000  0.4213150000000  0.4577060000000 1.0
C      1  0.4744370000000  0.4499220000000  0.4219740000000 1.0
C      1  0.5492890000000  0.5086430000000  0.4603010000000 1.0
C      1  0.4408910000000  0.4523330000000  0.5410690000000 1.0
C      1  0.4930090000000  0.4171870000000  0.4521100000000 1.0
C      1  0.5648340000000  0.5508620000000  0.4900300000000 1.0
C      1  0.5656260000000  0.4641440000000  0.4519750000000 1.0
C      1  0.4909020000000  0.5465420000000  0.4917210000000 1.0
C      1  0.5276130000000  0.5811690000000  0.5497930000000 1.0
C      1  0.5073270000000  0.4971100000000  0.4698320000000 1.0
C      1  0.4567170000000  0.4947310000000  0.4613890000000 1.0
C      1  0.4806980000000  0.4160300000000  0.5282310000000 1.0
C      1  0.4090690000000  0.4770510000000  0.4716420000000 1.0
C      1  0.5446230000000  0.4128870000000  0.4841310000000 1.0
C      1  0.5765080000000  0.5061000000000  0.5006820000000 1.0
C      1  0.4961190000000  0.4993710000000  0.5378450000000 1.0
C      1  0.5276700000000  0.4559060000000  0.4971560000000 1.0
C      1  0.5426220000000  0.5912260000000  0.4764330000000 1.0
C      1  0.5007710000000  0.5267790000000  0.5313160000000 1.0
C      1  0.4998520000000  0.4411400000000  0.4348990000000 1.0
C      1  0.4244850000000  0.4910720000000  0.5251800000000 1.0
C      1  0.5443700000000  0.5593840000000  0.5613590000000 1.0
C      1  0.5602660000000  0.5154710000000  0.5784320000000 1.0
C      1  0.5485770000000  0.5479150000000  0.4405650000000 1.0
C      1  0.4700670000000  0.4729480000000  0.5081120000000 1.0
C      1  0.5218290000000  0.5900370000000  0.4558530000000 1.0
C      1  0.5210910000000  0.5901070000000  0.5230920000000 1.0
C      1  0.5493830000000  0.4426570000000  0.4394190000000 1.0
C      1  0.4645210000000  0.4337680000000  0.5457090000000 1.0
C      1  0.4501730000000  0.4920490000000  0.5116620000000 1.0
C      1  0.4405740000000  0.5208550000000  0.5503500000000 1.0
C      1  0.4724530000000  0.4090950000000  0.5009910000000 1.0
C      1  0.4495450000000  0.4500330000000  0.4396750000000 1.0
C      1  0.5746200000000  0.5182410000000  0.5547240000000 1.0
C      1  0.5420150000000  0.5393250000000  0.5821850000000 1.0
C      1  0.4739740000000  0.4513520000000  0.5672400000000 1.0
C      1  0.4406130000000  0.5057910000000  0.4366920000000 1.0
C      1  0.4652610000000  0.4550950000000  0.4875350000000 1.0
C      1  0.4229320000000  0.4627220000000  0.5197650000000 1.0
C      1  0.4948370000000  0.4069520000000  0.4813570000000 1.0
C      1  0.4170910000000  0.5192930000000  0.5325280000000 1.0
C      1  0.5239630000000  0.4560130000000  0.4296290000000 1.0
C      1  0.5088340000000  0.4218160000000  0.5222050000000 1.0
C      1  0.4366360000000  0.5545940000000  0.4956880000000 1.0
C      1  0.4768190000000  0.5772230000000  0.5436900000000 1.0
C      1  0.4393570000000  0.4248890000000  0.4519690000000 1.0
C      1  0.4837340000000  0.5286130000000  0.4389290000000 1.0
C      1  0.5164730000000  0.5093740000000  0.4182050000000 1.0
C      1  0.5149420000000  0.5550390000000  0.5556880000000 1.0
C      1  0.4251230000000  0.5261240000000  0.4495060000000 1.0
C      1  0.5819600000000  0.4755490000000  0.5022560000000 1.0
C      1  0.4704430000000  0.4761480000000  0.4137930000000 1.0
C      1  0.4964310000000  0.5757130000000  0.4546610000000 1.0
C      1  0.5397300000000  0.5064350000000  0.5315120000000 1.0
C      1  0.4161630000000  0.5369570000000  0.5085620000000 1.0
C      1  0.5532440000000  0.4404260000000  0.4929100000000 1.0
C      1  0.5690480000000  0.5704000000000  0.5118580000000 1.0
C      1  0.4834640000000  0.5072790000000  0.4595050000000 1.0
C      1  0.5002840000000  0.5529620000000  0.4369430000000 1.0
C      1  0.5304670000000  0.4845130000000  0.4251760000000 1.0
C      1  0.4843990000000  0.5358630000000  0.5793910000000 1.0
C      1  0.5604680000000  0.4593480000000  0.5499240000000 1.0
C      1  0.5466520000000  0.4978920000000  0.5044930000000 1.0
C      1  0.5715580000000  0.4657820000000  0.5277510000000 1.0
C      1  0.4924740000000  0.4736000000000  0.5247750000000 1.0
C      1  0.4276460000000  0.4301300000000  0.4790500000000 1.0
C      1  0.5469690000000  0.5751230000000  0.4511500000000 1.0
C      1  0.5509210000000  0.4627250000000  0.5746390000000 1.0
C      1  0.5212060000000  0.4912040000000  0.5492450000000 1.0
C      1  0.4594390000000  0.5015620000000  0.4139100000000 1.0
C      1  0.5276920000000  0.5314640000000  0.5242850000000 1.0
C      1  0.4440950000000  0.5076280000000  0.4884380000000 1.0
C      1  0.4580320000000  0.5408940000000  0.5375270000000 1.0
C      1  0.5486860000000  0.4884030000000  0.5864440000000 1.0
END
