TITL C-4164246-3563-165 0.381603008075556 125000 -3147.96414696615 0 0 23 (C1) n - 1
REM
REM in /home/nfs/bkarasulu/CARBON/AIRSS/Generating-Clusters/ReaxFF-fromJPCA2015/Units_Real/with-SteepDescent/Only-C1/SD-CG/Try1-3A/FIRE-CG
REM
REM
REM
REM
REM
REM ./C.cell (11c1c37f851c82e70ff6c80c92926a4b)
REM
REM compiler GCC version 9.2.1 20190827 (Red Hat 9.2.1-1)
REM options -cpp -mtune=generic -march=x86-64 -g -O0 -fpre-include=/usr/include/finclude/math-vector-fortran.h
REM seed -558286967 1460971200 -661181139 -809337305 941855442 745501059 156441264 1901956274 -418339743 -1599533957 -2112686741 1215501486 1404389421 1637125711 913980030 -391513774 -340555793 -1417874141 783803025 1622475556 -56372049 -636755706 -1845423496 -576616786 1731475702 -1481502410 2107369409 -1888056203 408161718 368135663 576173964 825229851 -1477929748
REM
CELL 1.54180   50.00000   50.00000   50.00000   90.00000   90.00000   90.00000
LATT -1
SFAC C  
C      1  0.4645510000000  0.4422800000000  0.4986970000000 1.0
C      1  0.5555860000000  0.4906420000000  0.4831830000000 1.0
C      1  0.5068750000000  0.4892150000000  0.4654880000000 1.0
C      1  0.4420980000000  0.5088990000000  0.5581990000000 1.0
C      1  0.5317000000000  0.5096870000000  0.5391700000000 1.0
C      1  0.5355310000000  0.5404700000000  0.5420080000000 1.0
C      1  0.5245550000000  0.5043720000000  0.4851520000000 1.0
C      1  0.4895580000000  0.5425550000000  0.4925810000000 1.0
C      1  0.5484090000000  0.4679210000000  0.4966960000000 1.0
C      1  0.5181120000000  0.5338040000000  0.4898110000000 1.0
C      1  0.5217010000000  0.4934820000000  0.5170160000000 1.0
C      1  0.4539370000000  0.5063990000000  0.5370120000000 1.0
C      1  0.4721520000000  0.4446950000000  0.4701850000000 1.0
C      1  0.5095690000000  0.4665590000000  0.5209780000000 1.0
C      1  0.5247730000000  0.5432220000000  0.5149590000000 1.0
C      1  0.4755560000000  0.5216960000000  0.5054790000000 1.0
C      1  0.4889660000000  0.4692970000000  0.4778990000000 1.0
C      1  0.4818610000000  0.4685010000000  0.5069600000000 1.0
C      1  0.4758140000000  0.5572870000000  0.4649660000000 1.0
C      1  0.4951660000000  0.5117880000000  0.4557590000000 1.0
C      1  0.5326190000000  0.4548710000000  0.5109960000000 1.0
C      1  0.4837750000000  0.5343900000000  0.4526510000000 1.0
C      1  0.4671360000000  0.4979690000000  0.5141530000000 1.0
END
