TITL C-4164237-1827-63 9.7485604769226 125000 -25553.5898320695 0 0 173 (C1) n - 1
REM
REM in /home/nfs/bkarasulu/CARBON/AIRSS/Generating-Clusters/ReaxFF-fromJPCA2015/Units_Real/with-SteepDescent/Only-C1/SD-CG/Try1-3A/FIRE-CG
REM
REM
REM
REM
REM
REM ./C.cell (11c1c37f851c82e70ff6c80c92926a4b)
REM
REM compiler GCC version 9.2.1 20190827 (Red Hat 9.2.1-1)
REM options -cpp -mtune=generic -march=x86-64 -g -O0 -fpre-include=/usr/include/finclude/math-vector-fortran.h
REM seed -749034887 1765019041 1762951442 -1411507776 1603237858 -275171808 1687257216 2092228800 -784695448 -1462338172 1453317129 53152893 -1715937820 -1431807289 -815063479 2090375929 1407465011 -1619866848 683075096 -1052371117 -2030528107 577829889 512263953 1778668143 163477065 133495660 78248293 -1910203667 422316633 -1509197004 -105695870 -1004956822 -1639237853
REM
CELL 1.54180   50.00000   50.00000   50.00000   90.00000   90.00000   90.00000
LATT -1
SFAC C  
C      1  0.4443440000000  0.3965560000000  0.4664390000000 1.0
C      1  0.3861730000000  0.4864200000000  0.5268710000000 1.0
C      1  0.5251200000000  0.6052140000000  0.5158340000000 1.0
C      1  0.5121260000000  0.6011370000000  0.5391330000000 1.0
C      1  0.5651410000000  0.4396200000000  0.5438270000000 1.0
C      1  0.5307340000000  0.4957340000000  0.4785040000000 1.0
C      1  0.3933610000000  0.5062200000000  0.5449700000000 1.0
C      1  0.3972260000000  0.5204780000000  0.4597980000000 1.0
C      1  0.5777540000000  0.5543850000000  0.4527790000000 1.0
C      1  0.5832110000000  0.5526910000000  0.5532110000000 1.0
C      1  0.4314740000000  0.4841740000000  0.4949710000000 1.0
C      1  0.4133490000000  0.5680210000000  0.4810660000000 1.0
C      1  0.5318740000000  0.5316920000000  0.5637010000000 1.0
C      1  0.3793210000000  0.5062850000000  0.5048890000000 1.0
C      1  0.5410370000000  0.5620650000000  0.5971610000000 1.0
C      1  0.5108780000000  0.4759700000000  0.4686040000000 1.0
C      1  0.6105520000000  0.5595660000000  0.5377610000000 1.0
C      1  0.6029680000000  0.5022460000000  0.5533220000000 1.0
C      1  0.3873190000000  0.5324840000000  0.4988270000000 1.0
C      1  0.4917580000000  0.4330990000000  0.5805030000000 1.0
C      1  0.4688700000000  0.5689060000000  0.4867220000000 1.0
C      1  0.4652390000000  0.4947380000000  0.6034660000000 1.0
C      1  0.6164660000000  0.4834520000000  0.5013720000000 1.0
C      1  0.3940690000000  0.5461610000000  0.4746850000000 1.0
C      1  0.4697880000000  0.5294760000000  0.4575530000000 1.0
C      1  0.5333200000000  0.5368880000000  0.6086030000000 1.0
C      1  0.4207960000000  0.4887610000000  0.5728310000000 1.0
C      1  0.5168380000000  0.5341930000000  0.3905550000000 1.0
C      1  0.4669430000000  0.5356870000000  0.3996270000000 1.0
C      1  0.5080240000000  0.5530130000000  0.4576530000000 1.0
C      1  0.4183700000000  0.4657090000000  0.4099250000000 1.0
C      1  0.5159120000000  0.3823750000000  0.4588220000000 1.0
C      1  0.4162640000000  0.5589860000000  0.5093220000000 1.0
C      1  0.5642140000000  0.4976750000000  0.5901160000000 1.0
C      1  0.5057600000000  0.3994590000000  0.4372030000000 1.0
C      1  0.5476810000000  0.5224440000000  0.5865430000000 1.0
C      1  0.4674360000000  0.4612100000000  0.4703840000000 1.0
C      1  0.4448620000000  0.4787910000000  0.5873030000000 1.0
C      1  0.4091110000000  0.4656980000000  0.5303270000000 1.0
C      1  0.4890800000000  0.5564800000000  0.5831540000000 1.0
C      1  0.3798240000000  0.4998040000000  0.4738800000000 1.0
C      1  0.4574390000000  0.5193050000000  0.6127000000000 1.0
C      1  0.4657470000000  0.4218340000000  0.5374920000000 1.0
C      1  0.4630020000000  0.5501000000000  0.5096120000000 1.0
C      1  0.4123490000000  0.4433040000000  0.5053110000000 1.0
C      1  0.4891350000000  0.4434420000000  0.4110990000000 1.0
C      1  0.5997400000000  0.4310340000000  0.4913700000000 1.0
C      1  0.6128660000000  0.5472940000000  0.5120860000000 1.0
C      1  0.5835470000000  0.4875050000000  0.5701340000000 1.0
C      1  0.4462240000000  0.5265350000000  0.4402890000000 1.0
C      1  0.4579660000000  0.5463850000000  0.6181870000000 1.0
C      1  0.5344730000000  0.4734850000000  0.4225580000000 1.0
C      1  0.5622910000000  0.5795110000000  0.4550030000000 1.0
C      1  0.4333240000000  0.4868440000000  0.5228180000000 1.0
C      1  0.5416420000000  0.4446170000000  0.4292490000000 1.0
C      1  0.4417600000000  0.3958410000000  0.4937140000000 1.0
C      1  0.5162520000000  0.4841780000000  0.4032990000000 1.0
C      1  0.4827840000000  0.4846030000000  0.4634180000000 1.0
C      1  0.5613250000000  0.5390070000000  0.4963970000000 1.0
C      1  0.4257660000000  0.5154440000000  0.4575580000000 1.0
C      1  0.5938990000000  0.4705600000000  0.4642510000000 1.0
C      1  0.5544280000000  0.4641250000000  0.5459180000000 1.0
C      1  0.4886180000000  0.5401650000000  0.5201580000000 1.0
C      1  0.5519950000000  0.5099110000000  0.4690490000000 1.0
C      1  0.5566240000000  0.5191620000000  0.5181670000000 1.0
C      1  0.4386140000000  0.5655710000000  0.6026510000000 1.0
C      1  0.4260790000000  0.4580160000000  0.4843940000000 1.0
C      1  0.5356790000000  0.5154140000000  0.5392480000000 1.0
C      1  0.4172580000000  0.5145950000000  0.5571010000000 1.0
C      1  0.4452300000000  0.4527520000000  0.4526560000000 1.0
C      1  0.4628340000000  0.4791160000000  0.5346030000000 1.0
C      1  0.4544870000000  0.5155660000000  0.4143380000000 1.0
C      1  0.6116970000000  0.5344820000000  0.4874220000000 1.0
C      1  0.5328240000000  0.6069290000000  0.4888330000000 1.0
C      1  0.4848030000000  0.4023980000000  0.5222730000000 1.0
C      1  0.5258450000000  0.4634430000000  0.5433020000000 1.0
C      1  0.5866950000000  0.4585250000000  0.4387910000000 1.0
C      1  0.5277560000000  0.5110500000000  0.4045780000000 1.0
C      1  0.4735180000000  0.5300080000000  0.5456370000000 1.0
C      1  0.3971370000000  0.4497030000000  0.4790910000000 1.0
C      1  0.5041210000000  0.6072020000000  0.4780250000000 1.0
C      1  0.4732910000000  0.4606720000000  0.4994300000000 1.0
C      1  0.4930470000000  0.4174520000000  0.4207450000000 1.0
C      1  0.4317500000000  0.5149290000000  0.5315390000000 1.0
C      1  0.5647650000000  0.4404390000000  0.4466530000000 1.0
C      1  0.4707860000000  0.5081110000000  0.4755770000000 1.0
C      1  0.5022140000000  0.6061160000000  0.4485980000000 1.0
C      1  0.4189450000000  0.4630800000000  0.5583740000000 1.0
C      1  0.5557730000000  0.4452280000000  0.5041360000000 1.0
C      1  0.5350070000000  0.5820360000000  0.4105260000000 1.0
C      1  0.4891230000000  0.5108960000000  0.5026210000000 1.0
C      1  0.4661240000000  0.5493980000000  0.5667660000000 1.0
C      1  0.5227290000000  0.4424160000000  0.5701640000000 1.0
C      1  0.5466680000000  0.5798420000000  0.5750670000000 1.0
C      1  0.4542540000000  0.5865790000000  0.4517660000000 1.0
C      1  0.4604050000000  0.5953830000000  0.5383930000000 1.0
C      1  0.4391430000000  0.4706330000000  0.4292910000000 1.0
C      1  0.4823720000000  0.4145170000000  0.4720970000000 1.0
C      1  0.4389520000000  0.5776710000000  0.4714980000000 1.0
C      1  0.5884690000000  0.4078800000000  0.4915720000000 1.0
C      1  0.5052130000000  0.5259310000000  0.6116920000000 1.0
C      1  0.4397230000000  0.5097220000000  0.4838050000000 1.0
C      1  0.5568120000000  0.5669130000000  0.5492000000000 1.0
C      1  0.5212810000000  0.4924860000000  0.5501800000000 1.0
C      1  0.4648340000000  0.4327650000000  0.5672440000000 1.0
C      1  0.5241200000000  0.6030070000000  0.4290900000000 1.0
C      1  0.4381830000000  0.5335930000000  0.5094320000000 1.0
C      1  0.5611350000000  0.4311350000000  0.4745990000000 1.0
C      1  0.4233140000000  0.4135080000000  0.5095600000000 1.0
C      1  0.5247070000000  0.5595780000000  0.4816180000000 1.0
C      1  0.5278210000000  0.4505480000000  0.5134450000000 1.0
C      1  0.5170510000000  0.4409030000000  0.4445010000000 1.0
C      1  0.5428380000000  0.5367380000000  0.4729820000000 1.0
C      1  0.4798320000000  0.4852020000000  0.5122080000000 1.0
C      1  0.4639260000000  0.4871620000000  0.4158070000000 1.0
C      1  0.5124200000000  0.4509910000000  0.4895090000000 1.0
C      1  0.5200930000000  0.5844260000000  0.5628880000000 1.0
C      1  0.5218860000000  0.3763180000000  0.4999600000000 1.0
C      1  0.4846340000000  0.5943620000000  0.4952390000000 1.0
C      1  0.4367430000000  0.5878800000000  0.5519830000000 1.0
C      1  0.5655230000000  0.4702870000000  0.5077560000000 1.0
C      1  0.5491000000000  0.5305050000000  0.4160340000000 1.0
C      1  0.5840480000000  0.4994280000000  0.4656840000000 1.0
C      1  0.5141990000000  0.5077250000000  0.4922510000000 1.0
C      1  0.5284080000000  0.4071960000000  0.5411320000000 1.0
C      1  0.4250480000000  0.5756590000000  0.5298590000000 1.0
C      1  0.5072140000000  0.4296700000000  0.4702090000000 1.0
C      1  0.4445440000000  0.4534000000000  0.5722780000000 1.0
C      1  0.5115990000000  0.3924460000000  0.5258030000000 1.0
C      1  0.5396630000000  0.3837390000000  0.4780630000000 1.0
C      1  0.5480570000000  0.4754710000000  0.5978260000000 1.0
C      1  0.4834830000000  0.6012820000000  0.5240830000000 1.0
C      1  0.4993240000000  0.3755570000000  0.4824340000000 1.0
C      1  0.4959340000000  0.5662680000000  0.4334610000000 1.0
C      1  0.5349840000000  0.5528890000000  0.4045170000000 1.0
C      1  0.5731020000000  0.5332460000000  0.4322190000000 1.0
C      1  0.5855330000000  0.4824830000000  0.4198960000000 1.0
C      1  0.5638770000000  0.4020820000000  0.4791380000000 1.0
C      1  0.5518230000000  0.5938850000000  0.4309010000000 1.0
C      1  0.5368840000000  0.5607470000000  0.5295500000000 1.0
C      1  0.5128960000000  0.5555880000000  0.5661430000000 1.0
C      1  0.4791910000000  0.5907870000000  0.4386330000000 1.0
C      1  0.5450760000000  0.5830370000000  0.4778470000000 1.0
C      1  0.6091150000000  0.5053650000000  0.4834160000000 1.0
C      1  0.4658680000000  0.4489300000000  0.5245440000000 1.0
C      1  0.6074430000000  0.4582060000000  0.4870010000000 1.0
C      1  0.4264390000000  0.4740930000000  0.3801480000000 1.0
C      1  0.4982940000000  0.4962420000000  0.5689780000000 1.0
C      1  0.5856170000000  0.5471510000000  0.4802600000000 1.0
C      1  0.5162050000000  0.5546070000000  0.5127240000000 1.0
C      1  0.4820770000000  0.5572330000000  0.4094900000000 1.0
C      1  0.4650150000000  0.4062890000000  0.4498340000000 1.0
C      1  0.4358880000000  0.4067830000000  0.5338300000000 1.0
C      1  0.4939190000000  0.5025560000000  0.5978490000000 1.0
C      1  0.6029270000000  0.4940940000000  0.5245320000000 1.0
C      1  0.4824120000000  0.5507800000000  0.4679870000000 1.0
C      1  0.5866220000000  0.5072770000000  0.4358790000000 1.0
C      1  0.5429370000000  0.4229180000000  0.5564620000000 1.0
C      1  0.4830950000000  0.4250440000000  0.6029310000000 1.0
C      1  0.4420910000000  0.5655040000000  0.5742170000000 1.0
C      1  0.5348740000000  0.4580180000000  0.5906990000000 1.0
C      1  0.4892320000000  0.4707750000000  0.4034540000000 1.0
C      1  0.5770110000000  0.4599920000000  0.5613640000000 1.0
C      1  0.4565570000000  0.4306280000000  0.4323890000000 1.0
C      1  0.4520730000000  0.4826940000000  0.3894080000000 1.0
C      1  0.5904220000000  0.5270230000000  0.5568020000000 1.0
C      1  0.4905170000000  0.5418350000000  0.3876390000000 1.0
C      1  0.5121280000000  0.4684760000000  0.4417550000000 1.0
C      1  0.4765970000000  0.3953320000000  0.4949790000000 1.0
C      1  0.5746170000000  0.4958300000000  0.5133010000000 1.0
C      1  0.4870860000000  0.5489080000000  0.6118590000000 1.0
C      1  0.4749360000000  0.5017010000000  0.5523800000000 1.0
C      1  0.3857340000000  0.4729730000000  0.4734140000000 1.0
END
