TITL C-4164237-1827-370 -3.20297759545154 125000 -12084.2648919619 0 0 82 (C1) n - 1
REM
REM in /home/nfs/bkarasulu/CARBON/AIRSS/Generating-Clusters/ReaxFF-fromJPCA2015/Units_Real/with-SteepDescent/Only-C1/SD-CG/Try1-3A/FIRE-CG
REM
REM
REM
REM
REM
REM ./C.cell (11c1c37f851c82e70ff6c80c92926a4b)
REM
REM compiler GCC version 9.2.1 20190827 (Red Hat 9.2.1-1)
REM options -cpp -mtune=generic -march=x86-64 -g -O0 -fpre-include=/usr/include/finclude/math-vector-fortran.h
REM seed -432422609 -1466281463 1047436828 -1326541158 -1332714660 -1579370497 1786586099 750610474 2059251421 -1492395252 989063229 906019089 1621150706 1096367302 1686933049 -15032678 1782847224 -1775751347 -874630640 -1124300182 -1338784853 -528395040 -1043875303 1770490669 -1612827662 -83786687 -231971566 1002484683 -1277256134 -1241157066 -513164012 -528515223 890983191
REM
CELL 1.54180   50.00000   50.00000   50.00000   90.00000   90.00000   90.00000
LATT -1
SFAC C  
C      1  0.4556420000000  0.5253450000000  0.5572830000000 1.0
C      1  0.5452660000000  0.4764350000000  0.4541450000000 1.0
C      1  0.5284350000000  0.4860030000000  0.4760110000000 1.0
C      1  0.5547240000000  0.5307100000000  0.5453950000000 1.0
C      1  0.4772530000000  0.4214910000000  0.4780500000000 1.0
C      1  0.5259680000000  0.4280600000000  0.4989500000000 1.0
C      1  0.4456760000000  0.4752660000000  0.5428890000000 1.0
C      1  0.4649090000000  0.4633240000000  0.5613480000000 1.0
C      1  0.4661650000000  0.4843330000000  0.5230280000000 1.0
C      1  0.5050100000000  0.5009010000000  0.4717100000000 1.0
C      1  0.5305570000000  0.4381790000000  0.5258650000000 1.0
C      1  0.5822980000000  0.5477850000000  0.5086740000000 1.0
C      1  0.4882440000000  0.4456710000000  0.4642920000000 1.0
C      1  0.4516240000000  0.5122950000000  0.4441960000000 1.0
C      1  0.5103820000000  0.5172160000000  0.4014860000000 1.0
C      1  0.5054180000000  0.5120540000000  0.5274750000000 1.0
C      1  0.4780590000000  0.5141310000000  0.5717850000000 1.0
C      1  0.5068930000000  0.5700610000000  0.4611590000000 1.0
C      1  0.4861850000000  0.5330170000000  0.4112660000000 1.0
C      1  0.5124950000000  0.4783500000000  0.5795230000000 1.0
C      1  0.5767370000000  0.4952980000000  0.5178750000000 1.0
C      1  0.4648050000000  0.5716000000000  0.4773620000000 1.0
C      1  0.4504240000000  0.4306000000000  0.4856800000000 1.0
C      1  0.5245480000000  0.4671870000000  0.4350600000000 1.0
C      1  0.5104530000000  0.5802520000000  0.5067040000000 1.0
C      1  0.5603170000000  0.4835760000000  0.5385290000000 1.0
C      1  0.4796500000000  0.5596560000000  0.4561960000000 1.0
C      1  0.4287330000000  0.5165670000000  0.5170660000000 1.0
C      1  0.5361820000000  0.4843090000000  0.5043690000000 1.0
C      1  0.5121890000000  0.5934010000000  0.4802130000000 1.0
C      1  0.5101950000000  0.5499690000000  0.5585200000000 1.0
C      1  0.5346900000000  0.5174330000000  0.4377110000000 1.0
C      1  0.4615280000000  0.4998720000000  0.4996500000000 1.0
C      1  0.5303050000000  0.5116120000000  0.5123380000000 1.0
C      1  0.4408680000000  0.4295510000000  0.5131140000000 1.0
C      1  0.4973060000000  0.4199830000000  0.4994420000000 1.0
C      1  0.5487780000000  0.5049520000000  0.5566310000000 1.0
C      1  0.4279860000000  0.4749990000000  0.4813230000000 1.0
C      1  0.5575820000000  0.5601100000000  0.4973940000000 1.0
C      1  0.4754550000000  0.4729610000000  0.4262420000000 1.0
C      1  0.4364390000000  0.4475070000000  0.5357100000000 1.0
C      1  0.5188790000000  0.5317640000000  0.4947480000000 1.0
C      1  0.5613210000000  0.4617660000000  0.4735630000000 1.0
C      1  0.4872060000000  0.4600350000000  0.4914470000000 1.0
C      1  0.5041600000000  0.5111030000000  0.4449460000000 1.0
C      1  0.5377130000000  0.4423760000000  0.4758500000000 1.0
C      1  0.5046030000000  0.5250000000000  0.5722170000000 1.0
C      1  0.5758420000000  0.4844000000000  0.4891030000000 1.0
C      1  0.4409140000000  0.4534660000000  0.4695880000000 1.0
C      1  0.4841760000000  0.4885370000000  0.4869230000000 1.0
C      1  0.5253130000000  0.5034990000000  0.5739610000000 1.0
C      1  0.5684720000000  0.5047290000000  0.4728700000000 1.0
C      1  0.5007980000000  0.4843950000000  0.4299310000000 1.0
C      1  0.4595020000000  0.5546150000000  0.5533130000000 1.0
C      1  0.4790500000000  0.4409350000000  0.5469950000000 1.0
C      1  0.5112460000000  0.4367480000000  0.5483680000000 1.0
C      1  0.5181450000000  0.4460550000000  0.4546370000000 1.0
C      1  0.4958760000000  0.5314160000000  0.5090090000000 1.0
C      1  0.5253410000000  0.5487490000000  0.4710910000000 1.0
C      1  0.4789360000000  0.5727030000000  0.5088120000000 1.0
C      1  0.5585020000000  0.5245090000000  0.4559120000000 1.0
C      1  0.4508260000000  0.5271530000000  0.5010920000000 1.0
C      1  0.5317470000000  0.5021930000000  0.4142060000000 1.0
C      1  0.4376130000000  0.5076340000000  0.5427160000000 1.0
C      1  0.5761510000000  0.5239310000000  0.5259860000000 1.0
C      1  0.4208740000000  0.5014890000000  0.4886780000000 1.0
C      1  0.4694110000000  0.5739640000000  0.5355670000000 1.0
C      1  0.4561720000000  0.4268490000000  0.5364450000000 1.0
C      1  0.4733470000000  0.5448200000000  0.5058280000000 1.0
C      1  0.4893260000000  0.4903410000000  0.5368370000000 1.0
C      1  0.5458720000000  0.4633030000000  0.5229280000000 1.0
C      1  0.4773710000000  0.5313770000000  0.4392810000000 1.0
C      1  0.4865260000000  0.4429860000000  0.5144490000000 1.0
C      1  0.5544080000000  0.5506880000000  0.4695550000000 1.0
C      1  0.4840030000000  0.4847770000000  0.5679980000000 1.0
C      1  0.4854910000000  0.5658770000000  0.5564650000000 1.0
C      1  0.4341480000000  0.5118080000000  0.4656620000000 1.0
C      1  0.5343100000000  0.5666950000000  0.5167970000000 1.0
C      1  0.5215070000000  0.4509100000000  0.5724910000000 1.0
C      1  0.4534950000000  0.4849420000000  0.4346900000000 1.0
C      1  0.5341320000000  0.5519620000000  0.5417970000000 1.0
C      1  0.4609010000000  0.4574810000000  0.4455870000000 1.0
END
