TITL C-4164232-771-598 -17.3537066398039 125000 -13099.1778819865 0 0 88 (C1) n - 1
REM
REM in /home/nfs/bkarasulu/CARBON/AIRSS/Generating-Clusters/ReaxFF-fromJPCA2015/Units_Real/with-SteepDescent/Only-C1/SD-CG/Try1-3A/FIRE-CG
REM
REM
REM
REM
REM
REM ./C.cell (11c1c37f851c82e70ff6c80c92926a4b)
REM
REM compiler GCC version 9.2.1 20190827 (Red Hat 9.2.1-1)
REM options -cpp -mtune=generic -march=x86-64 -g -O0 -fpre-include=/usr/include/finclude/math-vector-fortran.h
REM seed -643930393 1832175564 -1719893821 201133274 -265654554 1140896595 199800049 95159712 576333794 2088297395 -968502819 1684796858 -658528593 -584551 -2135033143 926229914 1544679223 2065353254 -1624535487 -2021068290 229184812 -1936037584 -385853573 -2032181372 1170681560 -1840230996 -97915555 -554556814 -1996429380 -1697353768 -1902795593 978571421 775535602
REM
CELL 1.54180   50.00000   50.00000   50.00000   90.00000   90.00000   90.00000
LATT -1
SFAC C  
C      1  0.4745080000000  0.4757940000000  0.5758980000000 1.0
C      1  0.5459880000000  0.4489110000000  0.4538880000000 1.0
C      1  0.4891520000000  0.4468720000000  0.4172430000000 1.0
C      1  0.5731480000000  0.5001840000000  0.5516160000000 1.0
C      1  0.5176720000000  0.4457460000000  0.5683100000000 1.0
C      1  0.4886980000000  0.4526090000000  0.5680470000000 1.0
C      1  0.4655550000000  0.5699780000000  0.5192610000000 1.0
C      1  0.5456100000000  0.4542190000000  0.5618750000000 1.0
C      1  0.4205900000000  0.5118110000000  0.4785660000000 1.0
C      1  0.4843490000000  0.4294770000000  0.4388040000000 1.0
C      1  0.5903130000000  0.4965850000000  0.5270350000000 1.0
C      1  0.4221050000000  0.5409730000000  0.5238140000000 1.0
C      1  0.4824710000000  0.5002980000000  0.5887210000000 1.0
C      1  0.4812510000000  0.5491700000000  0.5321230000000 1.0
C      1  0.5317360000000  0.4760390000000  0.5242460000000 1.0
C      1  0.4504450000000  0.4567980000000  0.5339090000000 1.0
C      1  0.4232600000000  0.5024770000000  0.4514950000000 1.0
C      1  0.5530070000000  0.5447080000000  0.5427880000000 1.0
C      1  0.5064840000000  0.5198370000000  0.5526220000000 1.0
C      1  0.4496230000000  0.4643040000000  0.4539330000000 1.0
C      1  0.4963560000000  0.4704880000000  0.4047660000000 1.0
C      1  0.4534860000000  0.5443840000000  0.4545800000000 1.0
C      1  0.5273870000000  0.5174850000000  0.5736110000000 1.0
C      1  0.4562640000000  0.4828200000000  0.5511090000000 1.0
C      1  0.5786450000000  0.4699810000000  0.5222110000000 1.0
C      1  0.5656640000000  0.4723290000000  0.5503290000000 1.0
C      1  0.4929130000000  0.4278050000000  0.5296210000000 1.0
C      1  0.6048760000000  0.5248350000000  0.4801870000000 1.0
C      1  0.4981670000000  0.4960110000000  0.4251740000000 1.0
C      1  0.4244770000000  0.5229540000000  0.5453490000000 1.0
C      1  0.5503710000000  0.4373430000000  0.5057140000000 1.0
C      1  0.4918810000000  0.4646910000000  0.4936120000000 1.0
C      1  0.5312570000000  0.5690690000000  0.5173360000000 1.0
C      1  0.4212690000000  0.4723440000000  0.4918240000000 1.0
C      1  0.4436320000000  0.5083560000000  0.5597070000000 1.0
C      1  0.5574920000000  0.5459950000000  0.4943460000000 1.0
C      1  0.4828400000000  0.5368960000000  0.5585250000000 1.0
C      1  0.5172750000000  0.4277440000000  0.5458960000000 1.0
C      1  0.5001620000000  0.4376120000000  0.5029820000000 1.0
C      1  0.5579580000000  0.5620670000000  0.5212990000000 1.0
C      1  0.5189120000000  0.5220130000000  0.5259640000000 1.0
C      1  0.5380890000000  0.5024200000000  0.5146000000000 1.0
C      1  0.4390150000000  0.5837110000000  0.4891230000000 1.0
C      1  0.4723710000000  0.4418260000000  0.5449990000000 1.0
C      1  0.4983930000000  0.5360030000000  0.5115010000000 1.0
C      1  0.5059820000000  0.4799670000000  0.5367920000000 1.0
C      1  0.5087500000000  0.4880430000000  0.4540040000000 1.0
C      1  0.5401460000000  0.4444580000000  0.5337320000000 1.0
C      1  0.5215540000000  0.5692070000000  0.4701240000000 1.0
C      1  0.4653060000000  0.5857700000000  0.4763960000000 1.0
C      1  0.4688430000000  0.5025180000000  0.4367440000000 1.0
C      1  0.5475840000000  0.5116410000000  0.4379390000000 1.0
C      1  0.5127430000000  0.5771760000000  0.4976280000000 1.0
C      1  0.4531380000000  0.5370700000000  0.4823000000000 1.0
C      1  0.5476420000000  0.5555060000000  0.4683570000000 1.0
C      1  0.4652210000000  0.5202830000000  0.5747430000000 1.0
C      1  0.5600250000000  0.5374300000000  0.4480610000000 1.0
C      1  0.5869230000000  0.5115570000000  0.5022010000000 1.0
C      1  0.4413540000000  0.5553310000000  0.5050890000000 1.0
C      1  0.5052630000000  0.5136450000000  0.4672420000000 1.0
C      1  0.4398840000000  0.4542760000000  0.5067490000000 1.0
C      1  0.5203140000000  0.5168650000000  0.4256580000000 1.0
C      1  0.4233990000000  0.4744680000000  0.4619770000000 1.0
C      1  0.5588900000000  0.5167180000000  0.4987840000000 1.0
C      1  0.4787960000000  0.4909110000000  0.5042110000000 1.0
C      1  0.4799070000000  0.4943500000000  0.5334210000000 1.0
C      1  0.5677690000000  0.4583860000000  0.4976010000000 1.0
C      1  0.5118830000000  0.4286600000000  0.4445480000000 1.0
C      1  0.5262510000000  0.4291880000000  0.4921720000000 1.0
C      1  0.5009650000000  0.5620610000000  0.4507950000000 1.0
C      1  0.5557960000000  0.4881010000000  0.4514670000000 1.0
C      1  0.5551050000000  0.5231630000000  0.5600650000000 1.0
C      1  0.4451930000000  0.5191080000000  0.4386350000000 1.0
C      1  0.5643970000000  0.4658750000000  0.4668520000000 1.0
C      1  0.5062440000000  0.4648200000000  0.4704750000000 1.0
C      1  0.4722940000000  0.5668880000000  0.4538750000000 1.0
C      1  0.4502070000000  0.5081970000000  0.4831550000000 1.0
C      1  0.4535250000000  0.4361900000000  0.4861420000000 1.0
C      1  0.5070310000000  0.5335130000000  0.4454040000000 1.0
C      1  0.4827380000000  0.5831800000000  0.5003780000000 1.0
C      1  0.4610200000000  0.4374310000000  0.4581260000000 1.0
C      1  0.4087210000000  0.5158660000000  0.5230380000000 1.0
C      1  0.4906720000000  0.5152410000000  0.4923580000000 1.0
C      1  0.5121280000000  0.5055720000000  0.5953390000000 1.0
C      1  0.4633060000000  0.4899850000000  0.4621450000000 1.0
C      1  0.5835610000000  0.5333460000000  0.4623930000000 1.0
C      1  0.5257370000000  0.4372250000000  0.4636900000000 1.0
C      1  0.4086800000000  0.4968380000000  0.5006350000000 1.0
END
