TITL C-4164234-2335-728 12.1933326971503 125000 -8484.58395507706 0 0 59 (C1) n - 1
REM
REM in /home/nfs/bkarasulu/CARBON/AIRSS/Generating-Clusters/ReaxFF-fromJPCA2015/Units_Real/with-SteepDescent/Only-C1/SD-CG/Try1-3A/FIRE-CG
REM
REM
REM
REM
REM
REM ./C.cell (11c1c37f851c82e70ff6c80c92926a4b)
REM
REM compiler GCC version 9.2.1 20190827 (Red Hat 9.2.1-1)
REM options -cpp -mtune=generic -march=x86-64 -g -O0 -fpre-include=/usr/include/finclude/math-vector-fortran.h
REM seed -684164242 -541906024 -1852946520 745435820 -2144156251 -60705972 1521222286 -1335689447 -677331071 -1147451221 363863000 1380834107 740090274 591349449 -699163526 1485659 1353305816 186311175 -924465915 393755054 203259523 2135908413 -884189722 -2140975326 -767164075 204440749 -28747592 109366815 1430091028 -1159773852 22628978 960502498 -632848254
REM
CELL 1.54180   50.00000   50.00000   50.00000   90.00000   90.00000   90.00000
LATT -1
SFAC C  
C      1  0.4847250000000  0.5190630000000  0.5191640000000 1.0
C      1  0.4255370000000  0.4498580000000  0.5323110000000 1.0
C      1  0.5555240000000  0.5524010000000  0.5144040000000 1.0
C      1  0.4525690000000  0.4799850000000  0.5442770000000 1.0
C      1  0.4811670000000  0.4452980000000  0.4932930000000 1.0
C      1  0.5570020000000  0.4550930000000  0.4994660000000 1.0
C      1  0.4812770000000  0.5721710000000  0.4570000000000 1.0
C      1  0.4652380000000  0.5377570000000  0.4809660000000 1.0
C      1  0.5040860000000  0.4790080000000  0.5379040000000 1.0
C      1  0.4917650000000  0.4999820000000  0.4383580000000 1.0
C      1  0.4661410000000  0.5411170000000  0.5475220000000 1.0
C      1  0.5746060000000  0.4796370000000  0.4954420000000 1.0
C      1  0.4831840000000  0.5477360000000  0.5229130000000 1.0
C      1  0.5029150000000  0.4808760000000  0.4180020000000 1.0
C      1  0.5129810000000  0.5379220000000  0.4867530000000 1.0
C      1  0.4313880000000  0.4607730000000  0.5063150000000 1.0
C      1  0.4421040000000  0.5074320000000  0.4981690000000 1.0
C      1  0.5341570000000  0.4439330000000  0.4855160000000 1.0
C      1  0.4447480000000  0.4899260000000  0.4508870000000 1.0
C      1  0.5690780000000  0.5271290000000  0.5250570000000 1.0
C      1  0.4486850000000  0.4507740000000  0.5492130000000 1.0
C      1  0.5270630000000  0.5315620000000  0.5491000000000 1.0
C      1  0.4335460000000  0.4899160000000  0.4775510000000 1.0
C      1  0.4634310000000  0.5612150000000  0.4469360000000 1.0
C      1  0.4552380000000  0.4400620000000  0.5057530000000 1.0
C      1  0.4789100000000  0.4486730000000  0.4445430000000 1.0
C      1  0.5104660000000  0.5088050000000  0.5276790000000 1.0
C      1  0.4928230000000  0.4372640000000  0.4674930000000 1.0
C      1  0.5209610000000  0.4375620000000  0.5113870000000 1.0
C      1  0.4643020000000  0.5096010000000  0.4402450000000 1.0
C      1  0.4947300000000  0.4494970000000  0.5206430000000 1.0
C      1  0.5275850000000  0.5797020000000  0.4800280000000 1.0
C      1  0.5559510000000  0.4912680000000  0.5431530000000 1.0
C      1  0.4878060000000  0.5526570000000  0.4938380000000 1.0
C      1  0.5173930000000  0.4541170000000  0.4610970000000 1.0
C      1  0.5357170000000  0.5583170000000  0.5341840000000 1.0
C      1  0.4369360000000  0.4874350000000  0.5192040000000 1.0
C      1  0.5371850000000  0.5414640000000  0.4696070000000 1.0
C      1  0.5170600000000  0.5357290000000  0.5780080000000 1.0
C      1  0.5490500000000  0.5628200000000  0.4857940000000 1.0
C      1  0.5207910000000  0.5141920000000  0.5005710000000 1.0
C      1  0.5048800000000  0.4542620000000  0.4317530000000 1.0
C      1  0.4826350000000  0.4868040000000  0.4767250000000 1.0
C      1  0.5725660000000  0.4982250000000  0.5186590000000 1.0
C      1  0.4683810000000  0.4369290000000  0.5318070000000 1.0
C      1  0.5429760000000  0.4504990000000  0.5259360000000 1.0
C      1  0.4607050000000  0.5372800000000  0.4529640000000 1.0
C      1  0.5700260000000  0.4997430000000  0.4762280000000 1.0
C      1  0.4652090000000  0.4701210000000  0.4600000000000 1.0
C      1  0.5550380000000  0.5199170000000  0.5498270000000 1.0
C      1  0.5077920000000  0.4861280000000  0.4646190000000 1.0
C      1  0.4749180000000  0.5170190000000  0.5634570000000 1.0
C      1  0.5026020000000  0.5821270000000  0.4704660000000 1.0
C      1  0.5330720000000  0.4729000000000  0.5423500000000 1.0
C      1  0.4729550000000  0.5104640000000  0.4934690000000 1.0
C      1  0.4922280000000  0.5251190000000  0.5883380000000 1.0
C      1  0.5498600000000  0.5146100000000  0.4636800000000 1.0
C      1  0.5293990000000  0.4980870000000  0.4781150000000 1.0
C      1  0.4789390000000  0.4900390000000  0.5518610000000 1.0
END
