TITL C-4164242-3624-173 1.94320892091785e-08 125000 -2122.3968301606 0 0 16 (C1) n - 1
REM
REM in /home/nfs/bkarasulu/CARBON/AIRSS/Generating-Clusters/ReaxFF-fromJPCA2015/Units_Real/with-SteepDescent/Only-C1/SD-CG/Try1-3A/FIRE-CG
REM
REM
REM
REM
REM
REM ./C.cell (11c1c37f851c82e70ff6c80c92926a4b)
REM
REM compiler GCC version 9.2.1 20190827 (Red Hat 9.2.1-1)
REM options -cpp -mtune=generic -march=x86-64 -g -O0 -fpre-include=/usr/include/finclude/math-vector-fortran.h
REM seed 1181507674 -1935371467 1103271060 1691704555 765990556 -575714547 1194243966 667990647 373395828 1978239109 -481870456 -105613262 1204010091 474019447 -1036422807 2049312482 74808081 593687449 -2042776217 -1377168265 -2087126053 1687948386 -638210855 -495588147 -681614340 -746347760 207970481 1638533591 1936555199 -1165667184 -917107180 1026731650 -1173997362
REM
CELL 1.54180   50.00000   50.00000   50.00000   90.00000   90.00000   90.00000
LATT -1
SFAC C  
C      1  0.4436030000000  0.4787740000000  0.5170720000000 1.0
C      1  0.5259260000000  0.5230480000000  0.4872480000000 1.0
C      1  0.4697100000000  0.4827280000000  0.5107220000000 1.0
C      1  0.5196370000000  0.4702770000000  0.5047950000000 1.0
C      1  0.4949360000000  0.4893910000000  0.5037090000000 1.0
C      1  0.5520280000000  0.5046470000000  0.4877520000000 1.0
C      1  0.5748430000000  0.5132740000000  0.4803530000000 1.0
C      1  0.4143780000000  0.4944450000000  0.5180000000000 1.0
C      1  0.4683570000000  0.5620800000000  0.4865790000000 1.0
C      1  0.5466400000000  0.4747920000000  0.4981200000000 1.0
C      1  0.5739590000000  0.4538180000000  0.5180030000000 1.0
C      1  0.4999500000000  0.5167100000000  0.4943200000000 1.0
C      1  0.4458580000000  0.5322160000000  0.5001910000000 1.0
C      1  0.4282130000000  0.5166600000000  0.5084460000000 1.0
C      1  0.4739510000000  0.5378820000000  0.4929210000000 1.0
C      1  0.5680110000000  0.4492590000000  0.4917670000000 1.0
END
