TITL C-4164240-4114-330 -5.76054825828622 125000 -24672.160546079 0 0 165 (C1) n - 1
REM
REM in /home/nfs/bkarasulu/CARBON/AIRSS/Generating-Clusters/ReaxFF-fromJPCA2015/Units_Real/with-SteepDescent/Only-C1/SD-CG/Try1-3A/FIRE-CG
REM
REM
REM
REM
REM
REM ./C.cell (11c1c37f851c82e70ff6c80c92926a4b)
REM
REM compiler GCC version 9.2.1 20190827 (Red Hat 9.2.1-1)
REM options -cpp -mtune=generic -march=x86-64 -g -O0 -fpre-include=/usr/include/finclude/math-vector-fortran.h
REM seed 1826490465 -674789446 -1193448427 -1998696 -2137778422 -1950235527 -1376380293 -1547896929 -1960158278 1941132355 1882970596 324317833 1522103788 1743543034 461631960 -1214288825 279858602 -297196979 90260125 906695306 -1419367956 -884250073 -263339233 873947489 1333974346 1677406380 -1591332969 -1849597022 1590525416 1561652253 -1480625103 -242095467 1745705333
REM
CELL 1.54180   50.00000   50.00000   50.00000   90.00000   90.00000   90.00000
LATT -1
SFAC C  
C      1  0.4578320000000  0.5079270000000  0.4467400000000 1.0
C      1  0.4263390000000  0.4606230000000  0.4397350000000 1.0
C      1  0.5277120000000  0.4678920000000  0.4795410000000 1.0
C      1  0.6148390000000  0.4997370000000  0.5138640000000 1.0
C      1  0.5769330000000  0.4540250000000  0.5202720000000 1.0
C      1  0.5258720000000  0.5590070000000  0.4285860000000 1.0
C      1  0.5963990000000  0.4834500000000  0.4502780000000 1.0
C      1  0.5085380000000  0.4115030000000  0.4394430000000 1.0
C      1  0.5752460000000  0.5624800000000  0.4403330000000 1.0
C      1  0.5728100000000  0.4732040000000  0.4362520000000 1.0
C      1  0.4793940000000  0.4519990000000  0.5203910000000 1.0
C      1  0.5522140000000  0.5055990000000  0.6054750000000 1.0
C      1  0.4810140000000  0.5505320000000  0.4679200000000 1.0
C      1  0.4699560000000  0.4632810000000  0.5867840000000 1.0
C      1  0.4884210000000  0.4220780000000  0.4208550000000 1.0
C      1  0.4952260000000  0.4489140000000  0.4141920000000 1.0
C      1  0.5118550000000  0.5903410000000  0.5751980000000 1.0
C      1  0.4208220000000  0.5473670000000  0.4467620000000 1.0
C      1  0.4576000000000  0.4204080000000  0.4207590000000 1.0
C      1  0.5578960000000  0.4757930000000  0.5272460000000 1.0
C      1  0.5150870000000  0.5414620000000  0.6003770000000 1.0
C      1  0.5075900000000  0.5127410000000  0.4418540000000 1.0
C      1  0.6060780000000  0.5265010000000  0.5227020000000 1.0
C      1  0.5692280000000  0.5037740000000  0.3954240000000 1.0
C      1  0.4429450000000  0.4434420000000  0.4584170000000 1.0
C      1  0.4178680000000  0.4417640000000  0.5276220000000 1.0
C      1  0.4772260000000  0.4306510000000  0.5004860000000 1.0
C      1  0.4218140000000  0.4729530000000  0.5373370000000 1.0
C      1  0.5860000000000  0.5113070000000  0.4523160000000 1.0
C      1  0.4713600000000  0.4129020000000  0.5618510000000 1.0
C      1  0.4862550000000  0.4769650000000  0.4639690000000 1.0
C      1  0.4840120000000  0.5869450000000  0.5645910000000 1.0
C      1  0.4640220000000  0.4065310000000  0.5123800000000 1.0
C      1  0.5605010000000  0.4982960000000  0.5446540000000 1.0
C      1  0.4754320000000  0.5266860000000  0.3969410000000 1.0
C      1  0.4823730000000  0.5577100000000  0.5704920000000 1.0
C      1  0.4762240000000  0.4713610000000  0.4153920000000 1.0
C      1  0.5521000000000  0.4782380000000  0.5939820000000 1.0
C      1  0.5184900000000  0.4552290000000  0.5498310000000 1.0
C      1  0.4122720000000  0.4645050000000  0.4884240000000 1.0
C      1  0.5249310000000  0.5643210000000  0.5849780000000 1.0
C      1  0.5213710000000  0.6016610000000  0.5516210000000 1.0
C      1  0.4128970000000  0.4337210000000  0.5006360000000 1.0
C      1  0.4360650000000  0.5579030000000  0.4261300000000 1.0
C      1  0.5326390000000  0.5016710000000  0.4317800000000 1.0
C      1  0.4094760000000  0.5246430000000  0.5288500000000 1.0
C      1  0.4621060000000  0.5278250000000  0.4685000000000 1.0
C      1  0.5786240000000  0.4592960000000  0.5684650000000 1.0
C      1  0.4955360000000  0.4974660000000  0.5489520000000 1.0
C      1  0.3962640000000  0.4976300000000  0.4572570000000 1.0
C      1  0.4133500000000  0.5203920000000  0.5575000000000 1.0
C      1  0.5082720000000  0.5546420000000  0.4812110000000 1.0
C      1  0.5460170000000  0.5736150000000  0.4665850000000 1.0
C      1  0.4410090000000  0.5335170000000  0.5866110000000 1.0
C      1  0.4931790000000  0.4322900000000  0.4764250000000 1.0
C      1  0.5006650000000  0.5715900000000  0.4296320000000 1.0
C      1  0.4466510000000  0.4898970000000  0.5335100000000 1.0
C      1  0.5281750000000  0.4551130000000  0.5040900000000 1.0
C      1  0.5090820000000  0.6042420000000  0.4863950000000 1.0
C      1  0.4441150000000  0.4800010000000  0.5831020000000 1.0
C      1  0.5408120000000  0.5589060000000  0.5610360000000 1.0
C      1  0.4557630000000  0.5062250000000  0.3891240000000 1.0
C      1  0.5668310000000  0.5856730000000  0.5342810000000 1.0
C      1  0.5463990000000  0.5680160000000  0.4971000000000 1.0
C      1  0.5231700000000  0.6064340000000  0.5112540000000 1.0
C      1  0.5540460000000  0.5757950000000  0.4258060000000 1.0
C      1  0.5743820000000  0.5209140000000  0.5975790000000 1.0
C      1  0.4672100000000  0.5049190000000  0.5471560000000 1.0
C      1  0.4746230000000  0.5313580000000  0.5353780000000 1.0
C      1  0.4689230000000  0.3987180000000  0.4660130000000 1.0
C      1  0.5040780000000  0.4936950000000  0.5199460000000 1.0
C      1  0.4557790000000  0.5710970000000  0.4118700000000 1.0
C      1  0.4285370000000  0.4228560000000  0.5464530000000 1.0
C      1  0.4061620000000  0.4699390000000  0.4587200000000 1.0
C      1  0.5624540000000  0.5222130000000  0.4977800000000 1.0
C      1  0.4758670000000  0.4870190000000  0.4390890000000 1.0
C      1  0.4989520000000  0.4048340000000  0.4672020000000 1.0
C      1  0.5901100000000  0.5346540000000  0.4357660000000 1.0
C      1  0.5418950000000  0.6050130000000  0.5324980000000 1.0
C      1  0.4267030000000  0.5655730000000  0.4937360000000 1.0
C      1  0.4134440000000  0.5174140000000  0.4461480000000 1.0
C      1  0.5184960000000  0.5066650000000  0.5643170000000 1.0
C      1  0.4730280000000  0.5892590000000  0.5376860000000 1.0
C      1  0.5837500000000  0.5212580000000  0.4119810000000 1.0
C      1  0.4407890000000  0.4741280000000  0.4892520000000 1.0
C      1  0.4522290000000  0.4159260000000  0.4493390000000 1.0
C      1  0.4824000000000  0.5887280000000  0.4854960000000 1.0
C      1  0.4810310000000  0.4788660000000  0.5108780000000 1.0
C      1  0.4885640000000  0.5270750000000  0.6055710000000 1.0
C      1  0.5931450000000  0.5543240000000  0.5667460000000 1.0
C      1  0.4316740000000  0.5591410000000  0.5405790000000 1.0
C      1  0.5322390000000  0.5208380000000  0.4835150000000 1.0
C      1  0.6035960000000  0.5358560000000  0.5493110000000 1.0
C      1  0.5763480000000  0.4998570000000  0.4980710000000 1.0
C      1  0.4242390000000  0.4659910000000  0.5682310000000 1.0
C      1  0.5556880000000  0.4319980000000  0.4540540000000 1.0
C      1  0.4547530000000  0.4928180000000  0.5062680000000 1.0
C      1  0.4235030000000  0.5463860000000  0.5657780000000 1.0
C      1  0.4527750000000  0.4073330000000  0.5399020000000 1.0
C      1  0.5393820000000  0.4940430000000  0.4749270000000 1.0
C      1  0.4969290000000  0.4727990000000  0.5947230000000 1.0
C      1  0.5765920000000  0.4401980000000  0.4720700000000 1.0
C      1  0.4573630000000  0.4796580000000  0.3961830000000 1.0
C      1  0.5064110000000  0.3943390000000  0.5230440000000 1.0
C      1  0.5374650000000  0.5162230000000  0.5447110000000 1.0
C      1  0.5269780000000  0.5158800000000  0.5931610000000 1.0
C      1  0.5957630000000  0.4781770000000  0.5010520000000 1.0
C      1  0.5208380000000  0.4050820000000  0.4989720000000 1.0
C      1  0.4554380000000  0.5259530000000  0.4974450000000 1.0
C      1  0.5040950000000  0.5155850000000  0.4949890000000 1.0
C      1  0.5812190000000  0.4408190000000  0.5479400000000 1.0
C      1  0.5342630000000  0.4263300000000  0.4371130000000 1.0
C      1  0.5076040000000  0.4558410000000  0.4630790000000 1.0
C      1  0.4356900000000  0.4951290000000  0.4063790000000 1.0
C      1  0.5221480000000  0.4302380000000  0.5151360000000 1.0
C      1  0.5705630000000  0.4314660000000  0.5000390000000 1.0
C      1  0.5562990000000  0.4271260000000  0.5561340000000 1.0
C      1  0.4329710000000  0.5002390000000  0.4348480000000 1.0
C      1  0.4674170000000  0.5540880000000  0.3895200000000 1.0
C      1  0.4583020000000  0.4629190000000  0.4732820000000 1.0
C      1  0.5237440000000  0.5372230000000  0.4051110000000 1.0
C      1  0.4966030000000  0.5445380000000  0.5486450000000 1.0
C      1  0.4343640000000  0.5649630000000  0.4664480000000 1.0
C      1  0.4283500000000  0.4121110000000  0.4925800000000 1.0
C      1  0.3965860000000  0.5077730000000  0.4825540000000 1.0
C      1  0.5339860000000  0.4420180000000  0.5704770000000 1.0
C      1  0.5725430000000  0.5686180000000  0.5114860000000 1.0
C      1  0.4969630000000  0.5048740000000  0.4685570000000 1.0
C      1  0.5936620000000  0.4647480000000  0.4722460000000 1.0
C      1  0.4353700000000  0.4396250000000  0.4176980000000 1.0
C      1  0.5697500000000  0.4853620000000  0.5704860000000 1.0
C      1  0.5629880000000  0.4775270000000  0.4092510000000 1.0
C      1  0.5348060000000  0.4767600000000  0.4165930000000 1.0
C      1  0.4662490000000  0.5765760000000  0.4623990000000 1.0
C      1  0.5199320000000  0.4535010000000  0.4304090000000 1.0
C      1  0.5542680000000  0.4084750000000  0.5057450000000 1.0
C      1  0.5252180000000  0.5449570000000  0.5377640000000 1.0
C      1  0.5462670000000  0.5234620000000  0.3930400000000 1.0
C      1  0.4618450000000  0.4365600000000  0.5781160000000 1.0
C      1  0.4754680000000  0.5735850000000  0.5096790000000 1.0
C      1  0.4454420000000  0.5829440000000  0.5075060000000 1.0
C      1  0.4965080000000  0.4109940000000  0.5461870000000 1.0
C      1  0.5444060000000  0.4177010000000  0.5311490000000 1.0
C      1  0.5904310000000  0.5339830000000  0.5867630000000 1.0
C      1  0.5274860000000  0.4626710000000  0.5896540000000 1.0
C      1  0.5232870000000  0.5567210000000  0.5066610000000 1.0
C      1  0.5815500000000  0.5411140000000  0.5087630000000 1.0
C      1  0.4291280000000  0.5426000000000  0.5150520000000 1.0
C      1  0.4950070000000  0.4409920000000  0.5430130000000 1.0
C      1  0.4332430000000  0.5066470000000  0.5773240000000 1.0
C      1  0.4026430000000  0.4787220000000  0.5137820000000 1.0
C      1  0.5292130000000  0.5484970000000  0.4619050000000 1.0
C      1  0.5676190000000  0.5702610000000  0.5582610000000 1.0
C      1  0.3948430000000  0.5062000000000  0.5103310000000 1.0
C      1  0.4680410000000  0.5432470000000  0.5918780000000 1.0
C      1  0.4894210000000  0.4982840000000  0.6008160000000 1.0
C      1  0.4440250000000  0.5854310000000  0.5365820000000 1.0
C      1  0.5298090000000  0.4710630000000  0.5263510000000 1.0
C      1  0.4761220000000  0.5813550000000  0.4325030000000 1.0
C      1  0.4502910000000  0.3944860000000  0.4888250000000 1.0
C      1  0.4798110000000  0.5383750000000  0.5080580000000 1.0
C      1  0.5567980000000  0.4973850000000  0.4508610000000 1.0
C      1  0.4336480000000  0.4386010000000  0.5709850000000 1.0
C      1  0.5298060000000  0.5988340000000  0.4654870000000 1.0
C      1  0.5001190000000  0.5222350000000  0.4144680000000 1.0
END
