TITL C-4164239-2837-730 25.9003855241922 125000 -13920.9156014764 0 0 94 (C1) n - 1
REM
REM in /home/nfs/bkarasulu/CARBON/AIRSS/Generating-Clusters/ReaxFF-fromJPCA2015/Units_Real/with-SteepDescent/Only-C1/SD-CG/Try1-3A/FIRE-CG
REM
REM
REM
REM
REM
REM ./C.cell (11c1c37f851c82e70ff6c80c92926a4b)
REM
REM compiler GCC version 9.2.1 20190827 (Red Hat 9.2.1-1)
REM options -cpp -mtune=generic -march=x86-64 -g -O0 -fpre-include=/usr/include/finclude/math-vector-fortran.h
REM seed -405797645 447707707 -331133068 -131345202 994934381 -1997160060 558030503 -118771979 927432353 1161643217 2136745357 947093546 624286242 -686345404 1864536573 777343568 -637347460 358806034 425479095 -767542795 -1265513702 -179475218 1030369864 -1727901739 -1524502877 -1704074721 766872768 1814668801 1860603920 -548924987 783158538 105390564 1192885057
REM
CELL 1.54180   50.00000   50.00000   50.00000   90.00000   90.00000   90.00000
LATT -1
SFAC C  
C      1  0.5616360000000  0.5250540000000  0.5595420000000 1.0
C      1  0.5564060000000  0.4559120000000  0.4502170000000 1.0
C      1  0.5578180000000  0.4952140000000  0.5609200000000 1.0
C      1  0.4213490000000  0.5194620000000  0.5273750000000 1.0
C      1  0.4849500000000  0.5879220000000  0.5012670000000 1.0
C      1  0.4953630000000  0.5288020000000  0.5823850000000 1.0
C      1  0.4974540000000  0.4085960000000  0.5002730000000 1.0
C      1  0.4717290000000  0.4843730000000  0.4813470000000 1.0
C      1  0.5348450000000  0.4542470000000  0.4323150000000 1.0
C      1  0.5909460000000  0.4479610000000  0.5031290000000 1.0
C      1  0.5674840000000  0.4304860000000  0.4957970000000 1.0
C      1  0.5545630000000  0.5480260000000  0.4841700000000 1.0
C      1  0.4815000000000  0.5764160000000  0.5277260000000 1.0
C      1  0.5517730000000  0.4254460000000  0.5190290000000 1.0
C      1  0.4223850000000  0.4739690000000  0.4841290000000 1.0
C      1  0.5063440000000  0.4334980000000  0.5449670000000 1.0
C      1  0.4642840000000  0.4596090000000  0.5459860000000 1.0
C      1  0.4466080000000  0.4938470000000  0.4947390000000 1.0
C      1  0.4523400000000  0.4644920000000  0.4419530000000 1.0
C      1  0.6128810000000  0.5429950000000  0.5221340000000 1.0
C      1  0.5501080000000  0.5449310000000  0.4127370000000 1.0
C      1  0.4537890000000  0.5348120000000  0.4347050000000 1.0
C      1  0.4588350000000  0.4372150000000  0.4508800000000 1.0
C      1  0.5219870000000  0.5255380000000  0.5713560000000 1.0
C      1  0.5358850000000  0.4369570000000  0.5387340000000 1.0
C      1  0.4615790000000  0.5816250000000  0.4837470000000 1.0
C      1  0.4984430000000  0.5675150000000  0.5496330000000 1.0
C      1  0.5119850000000  0.5109070000000  0.4654940000000 1.0
C      1  0.5109040000000  0.5797530000000  0.4913670000000 1.0
C      1  0.4612550000000  0.5066690000000  0.5668490000000 1.0
C      1  0.5423040000000  0.4636030000000  0.5263720000000 1.0
C      1  0.5759080000000  0.5095240000000  0.4616400000000 1.0
C      1  0.4367260000000  0.4516250000000  0.5004610000000 1.0
C      1  0.5901640000000  0.4689220000000  0.5228840000000 1.0
C      1  0.4475710000000  0.5231670000000  0.4865620000000 1.0
C      1  0.4758470000000  0.5160310000000  0.4380490000000 1.0
C      1  0.5029450000000  0.4122400000000  0.4719530000000 1.0
C      1  0.5350010000000  0.4983050000000  0.4594250000000 1.0
C      1  0.5651100000000  0.4824490000000  0.5332380000000 1.0
C      1  0.5988880000000  0.4754070000000  0.4956070000000 1.0
C      1  0.5646520000000  0.5373710000000  0.4606640000000 1.0
C      1  0.4398340000000  0.5621800000000  0.5208800000000 1.0
C      1  0.5153400000000  0.5538950000000  0.4450700000000 1.0
C      1  0.5036900000000  0.4876700000000  0.5289640000000 1.0
C      1  0.4916660000000  0.5077100000000  0.5147980000000 1.0
C      1  0.4564830000000  0.5350520000000  0.5598460000000 1.0
C      1  0.5259920000000  0.5647210000000  0.5406560000000 1.0
C      1  0.5189580000000  0.4712500000000  0.5131600000000 1.0
C      1  0.4744330000000  0.4852250000000  0.4460750000000 1.0
C      1  0.5257450000000  0.5391540000000  0.5098360000000 1.0
C      1  0.5451070000000  0.5495280000000  0.4377180000000 1.0
C      1  0.5045200000000  0.4781880000000  0.5720450000000 1.0
C      1  0.4344380000000  0.5416610000000  0.5413220000000 1.0
C      1  0.5501180000000  0.4382560000000  0.4726870000000 1.0
C      1  0.4492170000000  0.4442830000000  0.5260010000000 1.0
C      1  0.5213210000000  0.4354740000000  0.4780610000000 1.0
C      1  0.5069760000000  0.5277100000000  0.5262880000000 1.0
C      1  0.4773480000000  0.4579220000000  0.4909500000000 1.0
C      1  0.5051120000000  0.5737430000000  0.4633540000000 1.0
C      1  0.4625330000000  0.5637700000000  0.4359680000000 1.0
C      1  0.4549740000000  0.4065550000000  0.4975490000000 1.0
C      1  0.4009600000000  0.4949400000000  0.4925960000000 1.0
C      1  0.5719520000000  0.5103400000000  0.5127890000000 1.0
C      1  0.5527380000000  0.5328210000000  0.5073770000000 1.0
C      1  0.4914190000000  0.4550880000000  0.5567640000000 1.0
C      1  0.4754440000000  0.5782960000000  0.4577390000000 1.0
C      1  0.5013760000000  0.5277610000000  0.4432860000000 1.0
C      1  0.4281620000000  0.4766300000000  0.4525340000000 1.0
C      1  0.5343150000000  0.4819440000000  0.5737320000000 1.0
C      1  0.5297390000000  0.5666010000000  0.5104940000000 1.0
C      1  0.5178880000000  0.5081930000000  0.5460300000000 1.0
C      1  0.5579900000000  0.4867350000000  0.4530360000000 1.0
C      1  0.5133040000000  0.4565180000000  0.4211140000000 1.0
C      1  0.4518690000000  0.4860850000000  0.5479760000000 1.0
C      1  0.4676860000000  0.5522480000000  0.5169640000000 1.0
C      1  0.4922760000000  0.4142230000000  0.5274560000000 1.0
C      1  0.5949850000000  0.5275540000000  0.5184980000000 1.0
C      1  0.4724810000000  0.5348130000000  0.4935100000000 1.0
C      1  0.5396920000000  0.5463030000000  0.5595570000000 1.0
C      1  0.4279620000000  0.5301360000000  0.4495350000000 1.0
C      1  0.4814520000000  0.5488420000000  0.5662830000000 1.0
C      1  0.4081180000000  0.5216620000000  0.5002280000000 1.0
C      1  0.4383590000000  0.4964910000000  0.5248130000000 1.0
C      1  0.4614280000000  0.4165260000000  0.5235920000000 1.0
C      1  0.4862110000000  0.5009200000000  0.5799020000000 1.0
C      1  0.4888610000000  0.5070470000000  0.4879430000000 1.0
C      1  0.4246380000000  0.5409560000000  0.4794550000000 1.0
C      1  0.4282430000000  0.5036250000000  0.4487550000000 1.0
C      1  0.5863870000000  0.5006820000000  0.4874070000000 1.0
C      1  0.4818230000000  0.4222750000000  0.4545950000000 1.0
C      1  0.4960720000000  0.4697590000000  0.4330630000000 1.0
C      1  0.4375960000000  0.5670650000000  0.4922400000000 1.0
C      1  0.4562570000000  0.4372490000000  0.4836470000000 1.0
C      1  0.5059720000000  0.4548310000000  0.4941070000000 1.0
END
