TITL C-4164247-2821-645 154.654394308192 125000 -18726.1275697424 0 0 129 (C1) n - 1
REM
REM in /home/nfs/bkarasulu/CARBON/AIRSS/Generating-Clusters/ReaxFF-fromJPCA2015/Units_Real/with-SteepDescent/Only-C1/SD-CG/Try1-3A/FIRE-CG
REM
REM
REM
REM
REM
REM ./C.cell (11c1c37f851c82e70ff6c80c92926a4b)
REM
REM compiler GCC version 9.2.1 20190827 (Red Hat 9.2.1-1)
REM options -cpp -mtune=generic -march=x86-64 -g -O0 -fpre-include=/usr/include/finclude/math-vector-fortran.h
REM seed 2060680879 970739959 334070244 -1480841334 1382757401 -1127606090 -1851688210 -583440068 321740456 818073750 670559781 22797679 -578502293 1755431257 -820590194 1017507482 581690120 409897249 3021419 -1019727567 1464161290 -7533336 1133117421 -1283180337 293848467 -392182269 -462185317 1587112587 -283591845 1970302991 908739565 1117371378 1439331881
REM
CELL 1.54180   50.00000   50.00000   50.00000   90.00000   90.00000   90.00000
LATT -1
SFAC C  
C      1  0.4806060000000  0.5648000000000  0.5679630000000 1.0
C      1  0.5040320000000  0.4494820000000  0.5705810000000 1.0
C      1  0.4920010000000  0.5368760000000  0.4424080000000 1.0
C      1  0.5234020000000  0.5585600000000  0.5048840000000 1.0
C      1  0.4312170000000  0.4229810000000  0.4978780000000 1.0
C      1  0.5633670000000  0.4455100000000  0.5392120000000 1.0
C      1  0.5118290000000  0.4776210000000  0.5703000000000 1.0
C      1  0.5574710000000  0.4753170000000  0.4207090000000 1.0
C      1  0.5579950000000  0.5322900000000  0.5586390000000 1.0
C      1  0.5085620000000  0.5486220000000  0.5245890000000 1.0
C      1  0.5116970000000  0.5574060000000  0.4438140000000 1.0
C      1  0.4887240000000  0.5400280000000  0.4712210000000 1.0
C      1  0.5363240000000  0.4642780000000  0.5076230000000 1.0
C      1  0.5107350000000  0.5284360000000  0.4838840000000 1.0
C      1  0.5052190000000  0.5092600000000  0.5049690000000 1.0
C      1  0.5737370000000  0.5252500000000  0.5284080000000 1.0
C      1  0.4389180000000  0.4774340000000  0.5754920000000 1.0
C      1  0.4608600000000  0.5023130000000  0.4832960000000 1.0
C      1  0.4486820000000  0.5286710000000  0.4233970000000 1.0
C      1  0.5233580000000  0.5093930000000  0.4658220000000 1.0
C      1  0.4604320000000  0.4596780000000  0.4665040000000 1.0
C      1  0.4323940000000  0.4583450000000  0.4758400000000 1.0
C      1  0.4168670000000  0.4825570000000  0.4689450000000 1.0
C      1  0.5418040000000  0.4082030000000  0.5189190000000 1.0
C      1  0.4682090000000  0.6008900000000  0.4801510000000 1.0
C      1  0.5561750000000  0.5616040000000  0.5545490000000 1.0
C      1  0.5489830000000  0.4408050000000  0.4488550000000 1.0
C      1  0.5350190000000  0.4970750000000  0.5735560000000 1.0
C      1  0.4366910000000  0.4947670000000  0.5260880000000 1.0
C      1  0.4897480000000  0.5418410000000  0.5895720000000 1.0
C      1  0.5032370000000  0.3984070000000  0.4878340000000 1.0
C      1  0.5565560000000  0.4186330000000  0.4958370000000 1.0
C      1  0.4451880000000  0.4158600000000  0.5370030000000 1.0
C      1  0.5106280000000  0.4165070000000  0.4650640000000 1.0
C      1  0.4488850000000  0.4524920000000  0.4220030000000 1.0
C      1  0.4401250000000  0.5671250000000  0.5026380000000 1.0
C      1  0.5983590000000  0.4929690000000  0.5037820000000 1.0
C      1  0.4978190000000  0.5785670000000  0.4600730000000 1.0
C      1  0.4280200000000  0.4532810000000  0.5616770000000 1.0
C      1  0.5108450000000  0.4898650000000  0.4833580000000 1.0
C      1  0.5137240000000  0.4631560000000  0.4921100000000 1.0
C      1  0.5756770000000  0.5705750000000  0.5331250000000 1.0
C      1  0.4016360000000  0.5041060000000  0.4861600000000 1.0
C      1  0.5281710000000  0.5253860000000  0.5676060000000 1.0
C      1  0.4599960000000  0.4369190000000  0.4487680000000 1.0
C      1  0.5707870000000  0.4620270000000  0.4400070000000 1.0
C      1  0.5520810000000  0.5300170000000  0.4301850000000 1.0
C      1  0.5444640000000  0.5678270000000  0.4884190000000 1.0
C      1  0.4301600000000  0.5271280000000  0.4446810000000 1.0
C      1  0.4810870000000  0.5128410000000  0.5919480000000 1.0
C      1  0.4243310000000  0.5442910000000  0.5104890000000 1.0
C      1  0.4875030000000  0.4290820000000  0.4436900000000 1.0
C      1  0.5174760000000  0.5421000000000  0.5945410000000 1.0
C      1  0.5624540000000  0.5033760000000  0.5685070000000 1.0
C      1  0.5437200000000  0.4890340000000  0.4007820000000 1.0
C      1  0.5144460000000  0.3977740000000  0.5150840000000 1.0
C      1  0.5526990000000  0.5226390000000  0.5064290000000 1.0
C      1  0.4758200000000  0.6010290000000  0.5077220000000 1.0
C      1  0.4964920000000  0.5095960000000  0.4313610000000 1.0
C      1  0.5121040000000  0.4469150000000  0.4699790000000 1.0
C      1  0.5027820000000  0.5817600000000  0.5609960000000 1.0
C      1  0.5440810000000  0.4217680000000  0.4695890000000 1.0
C      1  0.5005520000000  0.4532550000000  0.4308520000000 1.0
C      1  0.5886640000000  0.4987070000000  0.5300390000000 1.0
C      1  0.4376780000000  0.5062540000000  0.5720390000000 1.0
C      1  0.5860420000000  0.4788950000000  0.4592990000000 1.0
C      1  0.4654840000000  0.4965550000000  0.4036390000000 1.0
C      1  0.5149800000000  0.5948620000000  0.5383660000000 1.0
C      1  0.4426350000000  0.5677700000000  0.4734690000000 1.0
C      1  0.4860830000000  0.5126280000000  0.5458040000000 1.0
C      1  0.5321400000000  0.5082340000000  0.5177890000000 1.0
C      1  0.4743340000000  0.4454660000000  0.5691040000000 1.0
C      1  0.5157680000000  0.4288070000000  0.5539150000000 1.0
C      1  0.4248650000000  0.4597320000000  0.4213650000000 1.0
C      1  0.4123850000000  0.4531610000000  0.5373830000000 1.0
C      1  0.4416550000000  0.5544790000000  0.5584300000000 1.0
C      1  0.5081260000000  0.5918160000000  0.4831670000000 1.0
C      1  0.5090110000000  0.5297140000000  0.5467690000000 1.0
C      1  0.4217290000000  0.4279800000000  0.5236140000000 1.0
C      1  0.5608350000000  0.4604740000000  0.4935260000000 1.0
C      1  0.5329630000000  0.5790470000000  0.5554840000000 1.0
C      1  0.4931430000000  0.4832650000000  0.4438100000000 1.0
C      1  0.5383690000000  0.5175790000000  0.4075210000000 1.0
C      1  0.4336330000000  0.4292230000000  0.4709770000000 1.0
C      1  0.5713200000000  0.4401080000000  0.5106760000000 1.0
C      1  0.4268040000000  0.5300330000000  0.5582700000000 1.0
C      1  0.5505640000000  0.5398940000000  0.4809890000000 1.0
C      1  0.5603490000000  0.5764410000000  0.5104510000000 1.0
C      1  0.5050630000000  0.6013350000000  0.5098020000000 1.0
C      1  0.4831630000000  0.5502260000000  0.5096640000000 1.0
C      1  0.5086160000000  0.5128710000000  0.4039310000000 1.0
C      1  0.6012740000000  0.5150960000000  0.4845420000000 1.0
C      1  0.3995050000000  0.4977650000000  0.5082270000000 1.0
C      1  0.4893710000000  0.4845030000000  0.5881600000000 1.0
C      1  0.4802010000000  0.4714800000000  0.5208300000000 1.0
C      1  0.4958700000000  0.4639840000000  0.4017620000000 1.0
C      1  0.4335050000000  0.5244980000000  0.5304880000000 1.0
C      1  0.4643530000000  0.5733170000000  0.5188240000000 1.0
C      1  0.4106570000000  0.5323130000000  0.4877970000000 1.0
C      1  0.5763730000000  0.4830280000000  0.5516470000000 1.0
C      1  0.5325570000000  0.5353980000000  0.4525730000000 1.0
C      1  0.4099550000000  0.4808480000000  0.5280890000000 1.0
C      1  0.4655050000000  0.5154010000000  0.5676320000000 1.0
C      1  0.5326080000000  0.4809250000000  0.5307890000000 1.0
C      1  0.5134800000000  0.4855300000000  0.3941750000000 1.0
C      1  0.5250900000000  0.4572130000000  0.4460730000000 1.0
C      1  0.5424890000000  0.4253230000000  0.5424060000000 1.0
C      1  0.4989660000000  0.4870340000000  0.5386560000000 1.0
C      1  0.4731530000000  0.4192720000000  0.5264660000000 1.0
C      1  0.4655330000000  0.4693320000000  0.5825400000000 1.0
C      1  0.4727800000000  0.5299120000000  0.4916850000000 1.0
C      1  0.4586320000000  0.5683040000000  0.5516030000000 1.0
C      1  0.4472380000000  0.4313130000000  0.5616530000000 1.0
C      1  0.5904980000000  0.5490170000000  0.5187960000000 1.0
C      1  0.4241250000000  0.5465510000000  0.4657770000000 1.0
C      1  0.4345830000000  0.5035600000000  0.4630980000000 1.0
C      1  0.5951840000000  0.5430590000000  0.4906320000000 1.0
C      1  0.4663360000000  0.5813590000000  0.4604220000000 1.0
C      1  0.4685470000000  0.5231240000000  0.4059330000000 1.0
C      1  0.4765640000000  0.4466940000000  0.5351080000000 1.0
C      1  0.4674040000000  0.4688930000000  0.4023890000000 1.0
C      1  0.5750580000000  0.5477820000000  0.4697340000000 1.0
C      1  0.4748980000000  0.4825970000000  0.4648860000000 1.0
C      1  0.4575640000000  0.4852990000000  0.5081790000000 1.0
C      1  0.4991540000000  0.4106770000000  0.5374510000000 1.0
C      1  0.5767340000000  0.5303190000000  0.4460650000000 1.0
C      1  0.5912770000000  0.5075170000000  0.4579990000000 1.0
C      1  0.5519300000000  0.4692570000000  0.5498570000000 1.0
C      1  0.5876820000000  0.4703530000000  0.4874040000000 1.0
END
