TITL C-4164238-4211-79 -14.2829603013715 125000 -26913.4626255459 0 0 176 (C1) n - 1
REM
REM in /home/nfs/bkarasulu/CARBON/AIRSS/Generating-Clusters/ReaxFF-fromJPCA2015/Units_Real/with-SteepDescent/Only-C1/SD-CG/Try1-3A/FIRE-CG
REM
REM
REM
REM
REM
REM ./C.cell (11c1c37f851c82e70ff6c80c92926a4b)
REM
REM compiler GCC version 9.2.1 20190827 (Red Hat 9.2.1-1)
REM options -cpp -mtune=generic -march=x86-64 -g -O0 -fpre-include=/usr/include/finclude/math-vector-fortran.h
REM seed -1141929959 -1423113600 -1809194642 -835431901 -821749692 -1934847922 1120696496 -1256547813 -895884838 856480327 1384498441 1025127653 984844290 1366004540 1130692768 -1136280661 -535950515 -417852106 -1748688095 -1517066597 -666397340 1919202148 1210584836 -1723391102 -352686967 -31785815 -1358953026 -1474314427 2003592882 -529018069 -534580961 -1805874478 -762125683
REM
CELL 1.54180   50.00000   50.00000   50.00000   90.00000   90.00000   90.00000
LATT -1
SFAC C  
C      1  0.4454750000000  0.4565180000000  0.4958150000000 1.0
C      1  0.4450220000000  0.4900080000000  0.4079360000000 1.0
C      1  0.5394840000000  0.6061010000000  0.5123030000000 1.0
C      1  0.5001640000000  0.4761520000000  0.3906320000000 1.0
C      1  0.5141580000000  0.5256250000000  0.5378490000000 1.0
C      1  0.4638650000000  0.5610870000000  0.4233640000000 1.0
C      1  0.5807580000000  0.4958490000000  0.5340880000000 1.0
C      1  0.4638320000000  0.3973690000000  0.5451070000000 1.0
C      1  0.3950660000000  0.5297230000000  0.4545880000000 1.0
C      1  0.4382210000000  0.3954280000000  0.5561570000000 1.0
C      1  0.5146220000000  0.4599420000000  0.5301230000000 1.0
C      1  0.5906140000000  0.5735570000000  0.5196810000000 1.0
C      1  0.4809710000000  0.6080270000000  0.4839570000000 1.0
C      1  0.4975650000000  0.5457850000000  0.3896720000000 1.0
C      1  0.4799460000000  0.5152570000000  0.4205880000000 1.0
C      1  0.5112630000000  0.5642660000000  0.5223530000000 1.0
C      1  0.5949420000000  0.5392960000000  0.5441860000000 1.0
C      1  0.4203470000000  0.5548570000000  0.4729090000000 1.0
C      1  0.4737750000000  0.4834730000000  0.5525560000000 1.0
C      1  0.3980550000000  0.5243430000000  0.5492860000000 1.0
C      1  0.4857610000000  0.5957540000000  0.4584510000000 1.0
C      1  0.5540940000000  0.5732710000000  0.4446590000000 1.0
C      1  0.5380740000000  0.4872960000000  0.4910430000000 1.0
C      1  0.4690180000000  0.4944130000000  0.6051800000000 1.0
C      1  0.4545950000000  0.5866550000000  0.5438810000000 1.0
C      1  0.5311820000000  0.5119680000000  0.4022880000000 1.0
C      1  0.4901690000000  0.4225570000000  0.5819410000000 1.0
C      1  0.5658050000000  0.4719170000000  0.5461190000000 1.0
C      1  0.4431810000000  0.5030370000000  0.5941600000000 1.0
C      1  0.5068570000000  0.4328560000000  0.5390100000000 1.0
C      1  0.4915850000000  0.4616990000000  0.4147210000000 1.0
C      1  0.4313820000000  0.4079590000000  0.5103940000000 1.0
C      1  0.5391940000000  0.5894820000000  0.4625140000000 1.0
C      1  0.5409030000000  0.4020960000000  0.5547350000000 1.0
C      1  0.4660070000000  0.4137920000000  0.4664000000000 1.0
C      1  0.4267610000000  0.4309970000000  0.4894190000000 1.0
C      1  0.5138220000000  0.4808350000000  0.4560140000000 1.0
C      1  0.4953710000000  0.4978460000000  0.3762950000000 1.0
C      1  0.4638100000000  0.4679530000000  0.4746960000000 1.0
C      1  0.4767470000000  0.5805860000000  0.4944730000000 1.0
C      1  0.4084500000000  0.4527330000000  0.5614570000000 1.0
C      1  0.4706950000000  0.4874170000000  0.4259900000000 1.0
C      1  0.4933290000000  0.4643360000000  0.4729890000000 1.0
C      1  0.4902740000000  0.4966220000000  0.5092920000000 1.0
C      1  0.4658010000000  0.5091210000000  0.5017510000000 1.0
C      1  0.3828920000000  0.4727900000000  0.5346480000000 1.0
C      1  0.6005160000000  0.4258570000000  0.4917020000000 1.0
C      1  0.5486060000000  0.5896790000000  0.4895410000000 1.0
C      1  0.4388330000000  0.4221980000000  0.4630680000000 1.0
C      1  0.4061570000000  0.5602840000000  0.4483800000000 1.0
C      1  0.5127350000000  0.6138500000000  0.5109820000000 1.0
C      1  0.4496870000000  0.5122080000000  0.5234250000000 1.0
C      1  0.5357370000000  0.4785510000000  0.5460470000000 1.0
C      1  0.6054750000000  0.5484030000000  0.5184100000000 1.0
C      1  0.5330150000000  0.5680080000000  0.5804070000000 1.0
C      1  0.4755320000000  0.5444030000000  0.4646290000000 1.0
C      1  0.4998560000000  0.5313740000000  0.4577310000000 1.0
C      1  0.4379080000000  0.4629940000000  0.4105950000000 1.0
C      1  0.5474880000000  0.4121210000000  0.4922690000000 1.0
C      1  0.4292130000000  0.4348950000000  0.4389900000000 1.0
C      1  0.5090940000000  0.4394310000000  0.5679080000000 1.0
C      1  0.4567830000000  0.5329580000000  0.4193250000000 1.0
C      1  0.5205070000000  0.4063550000000  0.4823950000000 1.0
C      1  0.4899080000000  0.4742390000000  0.6014530000000 1.0
C      1  0.3872770000000  0.4740230000000  0.5621960000000 1.0
C      1  0.5216630000000  0.4658120000000  0.4245350000000 1.0
C      1  0.5751040000000  0.5566090000000  0.4531000000000 1.0
C      1  0.3973170000000  0.4537230000000  0.4660600000000 1.0
C      1  0.5523380000000  0.5221240000000  0.5874940000000 1.0
C      1  0.4235010000000  0.4012690000000  0.5362070000000 1.0
C      1  0.3967070000000  0.4421510000000  0.4895240000000 1.0
C      1  0.5462960000000  0.5190150000000  0.4552360000000 1.0
C      1  0.5653920000000  0.4769960000000  0.5761460000000 1.0
C      1  0.5185680000000  0.4836610000000  0.5989230000000 1.0
C      1  0.4651300000000  0.5705580000000  0.4522250000000 1.0
C      1  0.5129800000000  0.4112770000000  0.4542210000000 1.0
C      1  0.5846290000000  0.4267100000000  0.4666730000000 1.0
C      1  0.5348070000000  0.4404140000000  0.5825870000000 1.0
C      1  0.4854620000000  0.5332780000000  0.5480940000000 1.0
C      1  0.4774750000000  0.4477120000000  0.5927440000000 1.0
C      1  0.4290830000000  0.4916670000000  0.5682090000000 1.0
C      1  0.4250420000000  0.4858420000000  0.4484620000000 1.0
C      1  0.6007060000000  0.4980730000000  0.4481230000000 1.0
C      1  0.4311340000000  0.5305480000000  0.4819150000000 1.0
C      1  0.6038280000000  0.5390810000000  0.4896210000000 1.0
C      1  0.4803480000000  0.5190110000000  0.5908980000000 1.0
C      1  0.5740490000000  0.5046360000000  0.5785110000000 1.0
C      1  0.4606710000000  0.4600340000000  0.5726640000000 1.0
C      1  0.4889240000000  0.4020710000000  0.5609320000000 1.0
C      1  0.5407740000000  0.4911000000000  0.4639450000000 1.0
C      1  0.4896070000000  0.5257040000000  0.3681670000000 1.0
C      1  0.5912990000000  0.5124000000000  0.5553490000000 1.0
C      1  0.4782210000000  0.4352470000000  0.4225220000000 1.0
C      1  0.5738290000000  0.5816760000000  0.5418860000000 1.0
C      1  0.5676250000000  0.5675290000000  0.4991760000000 1.0
C      1  0.4388830000000  0.5747860000000  0.4698610000000 1.0
C      1  0.5883850000000  0.4484150000000  0.4482860000000 1.0
C      1  0.5663450000000  0.4796210000000  0.4144360000000 1.0
C      1  0.5470570000000  0.5347120000000  0.4081260000000 1.0
C      1  0.5672510000000  0.5522510000000  0.5481320000000 1.0
C      1  0.5522030000000  0.4196420000000  0.5739090000000 1.0
C      1  0.5417090000000  0.4429070000000  0.4277880000000 1.0
C      1  0.5137030000000  0.5084660000000  0.4958760000000 1.0
C      1  0.5510180000000  0.4362020000000  0.5080110000000 1.0
C      1  0.5303820000000  0.5891880000000  0.5594040000000 1.0
C      1  0.4163760000000  0.4483690000000  0.5335160000000 1.0
C      1  0.4498810000000  0.5747610000000  0.4962290000000 1.0
C      1  0.4877090000000  0.5672450000000  0.4078180000000 1.0
C      1  0.5135220000000  0.4050880000000  0.5449100000000 1.0
C      1  0.4492840000000  0.4377290000000  0.4170390000000 1.0
C      1  0.5852420000000  0.5008980000000  0.4229100000000 1.0
C      1  0.4444240000000  0.5631710000000  0.5226650000000 1.0
C      1  0.5263470000000  0.5374540000000  0.4493480000000 1.0
C      1  0.5643620000000  0.4177330000000  0.5495420000000 1.0
C      1  0.5852580000000  0.5575960000000  0.4784900000000 1.0
C      1  0.5961410000000  0.4344590000000  0.5181550000000 1.0
C      1  0.6043880000000  0.4713690000000  0.4575800000000 1.0
C      1  0.5058700000000  0.5312310000000  0.5996810000000 1.0
C      1  0.4589220000000  0.4022160000000  0.5147770000000 1.0
C      1  0.4386430000000  0.4645070000000  0.5214960000000 1.0
C      1  0.4688500000000  0.6086860000000  0.5335620000000 1.0
C      1  0.5387150000000  0.4191850000000  0.4436890000000 1.0
C      1  0.4753630000000  0.4092240000000  0.4932240000000 1.0
C      1  0.3907800000000  0.5250850000000  0.4824200000000 1.0
C      1  0.5686310000000  0.4535140000000  0.4270050000000 1.0
C      1  0.5548580000000  0.5421410000000  0.5179380000000 1.0
C      1  0.5502360000000  0.5979220000000  0.5399970000000 1.0
C      1  0.4591600000000  0.5706790000000  0.5676740000000 1.0
C      1  0.5057380000000  0.5256030000000  0.4096640000000 1.0
C      1  0.5068660000000  0.5771320000000  0.5490960000000 1.0
C      1  0.4465850000000  0.4888810000000  0.5392470000000 1.0
C      1  0.4858240000000  0.4190160000000  0.4452120000000 1.0
C      1  0.4591780000000  0.5277370000000  0.4811410000000 1.0
C      1  0.4324030000000  0.5152330000000  0.4179490000000 1.0
C      1  0.5305940000000  0.4567810000000  0.5024770000000 1.0
C      1  0.5249080000000  0.5022230000000  0.5419340000000 1.0
C      1  0.5266040000000  0.5117990000000  0.5988600000000 1.0
C      1  0.4155480000000  0.5465670000000  0.5569030000000 1.0
C      1  0.6149250000000  0.4473790000000  0.5030500000000 1.0
C      1  0.5685280000000  0.5155020000000  0.5148370000000 1.0
C      1  0.4964700000000  0.5668370000000  0.5046290000000 1.0
C      1  0.5383950000000  0.4838740000000  0.4067710000000 1.0
C      1  0.4109460000000  0.4591380000000  0.4424820000000 1.0
C      1  0.5710700000000  0.5305360000000  0.4459760000000 1.0
C      1  0.4861600000000  0.6203860000000  0.5110000000000 1.0
C      1  0.5075720000000  0.5566060000000  0.5883610000000 1.0
C      1  0.5109070000000  0.5766420000000  0.4229540000000 1.0
C      1  0.4812270000000  0.5098570000000  0.5634180000000 1.0
C      1  0.4613990000000  0.5373150000000  0.5303380000000 1.0
C      1  0.5349210000000  0.5578620000000  0.4271540000000 1.0
C      1  0.5586370000000  0.4133700000000  0.4653570000000 1.0
C      1  0.4489870000000  0.5305780000000  0.5934150000000 1.0
C      1  0.5057070000000  0.4463740000000  0.4910660000000 1.0
C      1  0.4322070000000  0.4624140000000  0.5759090000000 1.0
C      1  0.5531480000000  0.5478650000000  0.5749290000000 1.0
C      1  0.5016670000000  0.5044110000000  0.4691130000000 1.0
C      1  0.6115370000000  0.5178970000000  0.4697220000000 1.0
C      1  0.5728530000000  0.5270760000000  0.4182880000000 1.0
C      1  0.6160000000000  0.4986530000000  0.4875600000000 1.0
C      1  0.4911380000000  0.4770320000000  0.5293740000000 1.0
C      1  0.5119060000000  0.5918720000000  0.4473370000000 1.0
C      1  0.4890030000000  0.5616040000000  0.5663100000000 1.0
C      1  0.4014600000000  0.4983300000000  0.5605430000000 1.0
C      1  0.3997860000000  0.5337870000000  0.5211590000000 1.0
C      1  0.5704190000000  0.4400120000000  0.5307570000000 1.0
C      1  0.3909600000000  0.4521240000000  0.5177010000000 1.0
C      1  0.5414680000000  0.4671780000000  0.5909400000000 1.0
C      1  0.5005790000000  0.4192720000000  0.5005980000000 1.0
C      1  0.4391550000000  0.5511620000000  0.5753750000000 1.0
C      1  0.6162070000000  0.4712120000000  0.4856050000000 1.0
C      1  0.4164300000000  0.5560970000000  0.5298970000000 1.0
C      1  0.4111030000000  0.5185490000000  0.4997740000000 1.0
C      1  0.5604610000000  0.4955700000000  0.4988790000000 1.0
C      1  0.5248440000000  0.5388200000000  0.5132510000000 1.0
C      1  0.4131190000000  0.5108710000000  0.4392120000000 1.0
C      1  0.4538180000000  0.4821010000000  0.4517040000000 1.0
END
