TITL C-4164242-3624-334 -0.162236733131968 125000 -9612.57157944917 0 0 65 (C1) n - 1
REM
REM in /home/nfs/bkarasulu/CARBON/AIRSS/Generating-Clusters/ReaxFF-fromJPCA2015/Units_Real/with-SteepDescent/Only-C1/SD-CG/Try1-3A/FIRE-CG
REM
REM
REM
REM
REM
REM ./C.cell (11c1c37f851c82e70ff6c80c92926a4b)
REM
REM compiler GCC version 9.2.1 20190827 (Red Hat 9.2.1-1)
REM options -cpp -mtune=generic -march=x86-64 -g -O0 -fpre-include=/usr/include/finclude/math-vector-fortran.h
REM seed -3313113 1354689802 -488257800 884689239 2062053768 -403266094 2034530182 -144102915 -1036749548 1011344691 1793853111 670729889 -1204203363 567381420 166348813 -1583400457 290008815 1222194053 -2109727265 999949879 105531103 9827853 -188275238 -341841421 726546401 -401129906 1252132796 923244480 599344029 -102575755 -580429484 -1823603890 1314634347
REM
CELL 1.54180   50.00000   50.00000   50.00000   90.00000   90.00000   90.00000
LATT -1
SFAC C  
C      1  0.4811490000000  0.5579350000000  0.5606060000000 1.0
C      1  0.4722910000000  0.5316340000000  0.5623150000000 1.0
C      1  0.4763760000000  0.4585230000000  0.5555380000000 1.0
C      1  0.4582780000000  0.5784930000000  0.5164740000000 1.0
C      1  0.5372860000000  0.5531940000000  0.4439890000000 1.0
C      1  0.5541040000000  0.4742940000000  0.4609240000000 1.0
C      1  0.5592320000000  0.5462210000000  0.4934740000000 1.0
C      1  0.4443520000000  0.5753700000000  0.4911970000000 1.0
C      1  0.5195590000000  0.5576420000000  0.4662950000000 1.0
C      1  0.5504210000000  0.5066560000000  0.4347370000000 1.0
C      1  0.4863380000000  0.4837660000000  0.5668380000000 1.0
C      1  0.5250300000000  0.5052490000000  0.5131790000000 1.0
C      1  0.4582080000000  0.4728290000000  0.4455930000000 1.0
C      1  0.5651460000000  0.5016890000000  0.4601620000000 1.0
C      1  0.4664730000000  0.5341630000000  0.4629410000000 1.0
C      1  0.5523340000000  0.4653060000000  0.5080100000000 1.0
C      1  0.5498820000000  0.5489450000000  0.5223680000000 1.0
C      1  0.5071310000000  0.5211350000000  0.5302540000000 1.0
C      1  0.4649190000000  0.5045930000000  0.5641050000000 1.0
C      1  0.4814950000000  0.5306770000000  0.5205310000000 1.0
C      1  0.5330450000000  0.5145590000000  0.4875440000000 1.0
C      1  0.4622560000000  0.4999270000000  0.4394830000000 1.0
C      1  0.4679500000000  0.5575760000000  0.4803770000000 1.0
C      1  0.5639690000000  0.4501990000000  0.5296630000000 1.0
C      1  0.4874210000000  0.4904070000000  0.4833540000000 1.0
C      1  0.4777660000000  0.5778800000000  0.5369370000000 1.0
C      1  0.5300280000000  0.5275640000000  0.4313340000000 1.0
C      1  0.5002000000000  0.5731900000000  0.5182260000000 1.0
C      1  0.4652540000000  0.4384470000000  0.4754150000000 1.0
C      1  0.5210910000000  0.4587540000000  0.5548420000000 1.0
C      1  0.4306710000000  0.4625840000000  0.4942010000000 1.0
C      1  0.4744780000000  0.4854430000000  0.5073100000000 1.0
C      1  0.4940780000000  0.4309440000000  0.5171490000000 1.0
C      1  0.5040560000000  0.5132330000000  0.4309230000000 1.0
C      1  0.4888960000000  0.4405950000000  0.4577600000000 1.0
C      1  0.5618240000000  0.5185780000000  0.4841050000000 1.0
C      1  0.5146370000000  0.4863110000000  0.5633370000000 1.0
C      1  0.4879510000000  0.5180420000000  0.4752470000000 1.0
C      1  0.4981480000000  0.4435920000000  0.5436390000000 1.0
C      1  0.4868860000000  0.5522170000000  0.5020890000000 1.0
C      1  0.4870620000000  0.4648930000000  0.4416560000000 1.0
C      1  0.5516760000000  0.4556980000000  0.4818530000000 1.0
C      1  0.4762100000000  0.5238170000000  0.4359710000000 1.0
C      1  0.4505670000000  0.4632440000000  0.5424910000000 1.0
C      1  0.5261660000000  0.4769500000000  0.5145620000000 1.0
C      1  0.4345650000000  0.5075490000000  0.5249840000000 1.0
C      1  0.4457960000000  0.4490970000000  0.5170810000000 1.0
C      1  0.5082250000000  0.4845420000000  0.4349410000000 1.0
C      1  0.5123900000000  0.5311550000000  0.4771460000000 1.0
C      1  0.5374390000000  0.4802400000000  0.4371580000000 1.0
C      1  0.4677080000000  0.4343460000000  0.5048650000000 1.0
C      1  0.5451790000000  0.5293120000000  0.5424730000000 1.0
C      1  0.5237190000000  0.5136050000000  0.5533680000000 1.0
C      1  0.5142380000000  0.4217540000000  0.4977030000000 1.0
C      1  0.5008210000000  0.4738740000000  0.5024590000000 1.0
C      1  0.4623440000000  0.5102610000000  0.5143410000000 1.0
C      1  0.5256220000000  0.5650710000000  0.5327040000000 1.0
C      1  0.5362740000000  0.4318600000000  0.4811820000000 1.0
C      1  0.5111510000000  0.4248550000000  0.4686020000000 1.0
C      1  0.5480530000000  0.5613460000000  0.4709820000000 1.0
C      1  0.5112870000000  0.5629170000000  0.5588690000000 1.0
C      1  0.4265090000000  0.4855520000000  0.5095900000000 1.0
C      1  0.5476460000000  0.4508770000000  0.5459980000000 1.0
C      1  0.4456090000000  0.4578330000000  0.4684820000000 1.0
C      1  0.4431350000000  0.4909960000000  0.5480770000000 1.0
END
