TITL C-4164238-4211-696 137.991103483323 125000 -24280.8170122275 0 0 166 (C1) n - 1
REM
REM in /home/nfs/bkarasulu/CARBON/AIRSS/Generating-Clusters/ReaxFF-fromJPCA2015/Units_Real/with-SteepDescent/Only-C1/SD-CG/Try1-3A/FIRE-CG
REM
REM
REM
REM
REM
REM ./C.cell (11c1c37f851c82e70ff6c80c92926a4b)
REM
REM compiler GCC version 9.2.1 20190827 (Red Hat 9.2.1-1)
REM options -cpp -mtune=generic -march=x86-64 -g -O0 -fpre-include=/usr/include/finclude/math-vector-fortran.h
REM seed 1535130049 223012446 637925413 -969212185 -29712858 -1222146403 -969587479 -1561564696 171456468 1330136857 -196883421 -1600311859 -1071074440 -1372199338 -1723642670 837595394 -746372523 -1044270635 -1299310925 1516816320 1239876857 -1726141564 359079871 -1375834649 1988367000 238560838 -621686218 -360837444 923922755 -1457622757 1246050465 1673435419 -1247092724
REM
CELL 1.54180   50.00000   50.00000   50.00000   90.00000   90.00000   90.00000
LATT -1
SFAC C  
C      1  0.6025990000000  0.5060230000000  0.4642580000000 1.0
C      1  0.3995530000000  0.4609260000000  0.4572690000000 1.0
C      1  0.5529320000000  0.4771200000000  0.4599210000000 1.0
C      1  0.5337670000000  0.4358700000000  0.5674040000000 1.0
C      1  0.4566450000000  0.5774150000000  0.4293220000000 1.0
C      1  0.4309440000000  0.4067000000000  0.4772990000000 1.0
C      1  0.5019470000000  0.6134500000000  0.4767070000000 1.0
C      1  0.4952540000000  0.4339270000000  0.5821570000000 1.0
C      1  0.5328370000000  0.5646800000000  0.5183540000000 1.0
C      1  0.4521960000000  0.5854630000000  0.5757250000000 1.0
C      1  0.5323730000000  0.4511180000000  0.5285180000000 1.0
C      1  0.5519920000000  0.4288340000000  0.5306860000000 1.0
C      1  0.5593110000000  0.5508360000000  0.4278010000000 1.0
C      1  0.5508920000000  0.5100810000000  0.5022080000000 1.0
C      1  0.5245430000000  0.5419810000000  0.5336560000000 1.0
C      1  0.5421480000000  0.4458310000000  0.4214000000000 1.0
C      1  0.4876910000000  0.5701520000000  0.4746520000000 1.0
C      1  0.4172740000000  0.5029780000000  0.4279600000000 1.0
C      1  0.5565100000000  0.6042460000000  0.5219310000000 1.0
C      1  0.5568630000000  0.5322070000000  0.5099270000000 1.0
C      1  0.4161460000000  0.5033180000000  0.5210340000000 1.0
C      1  0.4366850000000  0.5754080000000  0.5246660000000 1.0
C      1  0.4600660000000  0.4832920000000  0.6035850000000 1.0
C      1  0.5326100000000  0.4122040000000  0.4944030000000 1.0
C      1  0.4392140000000  0.4782760000000  0.5192110000000 1.0
C      1  0.4436620000000  0.5758230000000  0.4964210000000 1.0
C      1  0.5798660000000  0.5533960000000  0.5481800000000 1.0
C      1  0.4223490000000  0.4194050000000  0.5146480000000 1.0
C      1  0.5708170000000  0.5429420000000  0.5733790000000 1.0
C      1  0.4256400000000  0.5173380000000  0.5751980000000 1.0
C      1  0.4563780000000  0.5782150000000  0.5461230000000 1.0
C      1  0.4595000000000  0.4954450000000  0.5593570000000 1.0
C      1  0.5356380000000  0.5875910000000  0.5367180000000 1.0
C      1  0.5289530000000  0.5181980000000  0.4644550000000 1.0
C      1  0.5161810000000  0.5174960000000  0.5199980000000 1.0
C      1  0.5086180000000  0.4794870000000  0.3968620000000 1.0
C      1  0.5122910000000  0.5576020000000  0.4900520000000 1.0
C      1  0.4723670000000  0.3901900000000  0.4625710000000 1.0
C      1  0.5708430000000  0.4224670000000  0.5087310000000 1.0
C      1  0.4942340000000  0.5187240000000  0.5812260000000 1.0
C      1  0.5673960000000  0.4772250000000  0.4346090000000 1.0
C      1  0.5098450000000  0.4116340000000  0.4500900000000 1.0
C      1  0.5357710000000  0.5266990000000  0.6058690000000 1.0
C      1  0.5737440000000  0.4680100000000  0.5717940000000 1.0
C      1  0.5384590000000  0.4995500000000  0.5919470000000 1.0
C      1  0.4800260000000  0.5857500000000  0.5865210000000 1.0
C      1  0.3916620000000  0.5547590000000  0.5115820000000 1.0
C      1  0.4565270000000  0.4670360000000  0.4707550000000 1.0
C      1  0.5612300000000  0.4303830000000  0.5582390000000 1.0
C      1  0.5917230000000  0.4534760000000  0.4795030000000 1.0
C      1  0.4379820000000  0.5564610000000  0.4293700000000 1.0
C      1  0.5523610000000  0.5048040000000  0.4697470000000 1.0
C      1  0.4760540000000  0.5385000000000  0.5648170000000 1.0
C      1  0.4749850000000  0.5459570000000  0.4637680000000 1.0
C      1  0.5679710000000  0.4474110000000  0.4353060000000 1.0
C      1  0.5009140000000  0.5070710000000  0.3916250000000 1.0
C      1  0.4412280000000  0.4260810000000  0.4552850000000 1.0
C      1  0.5067960000000  0.5846890000000  0.5726960000000 1.0
C      1  0.5807310000000  0.5156100000000  0.5693120000000 1.0
C      1  0.4949000000000  0.4069310000000  0.4766270000000 1.0
C      1  0.5045670000000  0.5049310000000  0.4690640000000 1.0
C      1  0.5724050000000  0.4387870000000  0.4637280000000 1.0
C      1  0.4167540000000  0.4455100000000  0.4975000000000 1.0
C      1  0.3984680000000  0.4667410000000  0.4869830000000 1.0
C      1  0.4774640000000  0.5904300000000  0.4362850000000 1.0
C      1  0.4522260000000  0.4811620000000  0.4236820000000 1.0
C      1  0.4655870000000  0.4384650000000  0.5243470000000 1.0
C      1  0.5185760000000  0.5119270000000  0.5658990000000 1.0
C      1  0.5096850000000  0.4980170000000  0.5415260000000 1.0
C      1  0.4118300000000  0.5094230000000  0.5515170000000 1.0
C      1  0.3981510000000  0.4942570000000  0.4954440000000 1.0
C      1  0.5025150000000  0.5951960000000  0.4521810000000 1.0
C      1  0.4514490000000  0.4123580000000  0.5216820000000 1.0
C      1  0.4123390000000  0.4724390000000  0.4338380000000 1.0
C      1  0.5220860000000  0.4601630000000  0.5548710000000 1.0
C      1  0.5958710000000  0.4583420000000  0.5308750000000 1.0
C      1  0.5264040000000  0.5387930000000  0.5602550000000 1.0
C      1  0.4332520000000  0.5267530000000  0.5148510000000 1.0
C      1  0.4695610000000  0.5848450000000  0.4893580000000 1.0
C      1  0.5285330000000  0.5838660000000  0.4407700000000 1.0
C      1  0.4664970000000  0.4900860000000  0.5157940000000 1.0
C      1  0.5855620000000  0.4484020000000  0.5568430000000 1.0
C      1  0.5811830000000  0.5649780000000  0.4926090000000 1.0
C      1  0.5924290000000  0.4428230000000  0.5070980000000 1.0
C      1  0.5558190000000  0.5760780000000  0.4459900000000 1.0
C      1  0.4948000000000  0.4605660000000  0.5676870000000 1.0
C      1  0.4552770000000  0.5159040000000  0.4964350000000 1.0
C      1  0.4758730000000  0.4307970000000  0.4776390000000 1.0
C      1  0.4666500000000  0.4321850000000  0.5890550000000 1.0
C      1  0.4285940000000  0.5567220000000  0.4806130000000 1.0
C      1  0.5479350000000  0.5501240000000  0.5926090000000 1.0
C      1  0.5268260000000  0.5454890000000  0.4661160000000 1.0
C      1  0.5118230000000  0.4802800000000  0.4930250000000 1.0
C      1  0.4828610000000  0.5323670000000  0.4343850000000 1.0
C      1  0.5256070000000  0.5620270000000  0.5779970000000 1.0
C      1  0.4872570000000  0.4141520000000  0.4309080000000 1.0
C      1  0.5380180000000  0.4726410000000  0.5102350000000 1.0
C      1  0.5339410000000  0.4727560000000  0.4083980000000 1.0
C      1  0.5105320000000  0.4178980000000  0.5627170000000 1.0
C      1  0.5230100000000  0.6106360000000  0.4959910000000 1.0
C      1  0.4447310000000  0.5129880000000  0.4688360000000 1.0
C      1  0.4211090000000  0.4359890000000  0.5371420000000 1.0
C      1  0.4595870000000  0.5262060000000  0.4098740000000 1.0
C      1  0.5463050000000  0.5239100000000  0.4145460000000 1.0
C      1  0.5101320000000  0.4060440000000  0.5089930000000 1.0
C      1  0.5027810000000  0.6076010000000  0.5181970000000 1.0
C      1  0.4889580000000  0.4863730000000  0.5905670000000 1.0
C      1  0.4702180000000  0.4023970000000  0.5419820000000 1.0
C      1  0.5652800000000  0.5806160000000  0.4740050000000 1.0
C      1  0.4017240000000  0.5461880000000  0.4853390000000 1.0
C      1  0.5060240000000  0.5455780000000  0.4210820000000 1.0
C      1  0.5102280000000  0.4596300000000  0.4732820000000 1.0
C      1  0.4609470000000  0.4223350000000  0.5618900000000 1.0
C      1  0.4387040000000  0.5020170000000  0.5977430000000 1.0
C      1  0.4801350000000  0.4843520000000  0.4262450000000 1.0
C      1  0.4903060000000  0.4429820000000  0.4303520000000 1.0
C      1  0.5735360000000  0.5388220000000  0.4442430000000 1.0
C      1  0.4199900000000  0.5510820000000  0.5241700000000 1.0
C      1  0.4059410000000  0.5102350000000  0.4514830000000 1.0
C      1  0.4485890000000  0.3818280000000  0.4784750000000 1.0
C      1  0.5978930000000  0.5388850000000  0.5312390000000 1.0
C      1  0.4858820000000  0.4615160000000  0.4073600000000 1.0
C      1  0.5599990000000  0.4880300000000  0.5152240000000 1.0
C      1  0.4923790000000  0.5049390000000  0.4417050000000 1.0
C      1  0.4606560000000  0.4078020000000  0.4424560000000 1.0
C      1  0.4514400000000  0.4619300000000  0.4036510000000 1.0
C      1  0.4862600000000  0.4729670000000  0.5052390000000 1.0
C      1  0.4818380000000  0.5257260000000  0.4843400000000 1.0
C      1  0.4992890000000  0.4065220000000  0.5370520000000 1.0
C      1  0.5781860000000  0.5151670000000  0.4574220000000 1.0
C      1  0.6096470000000  0.4940920000000  0.5024570000000 1.0
C      1  0.5066750000000  0.5211550000000  0.6089080000000 1.0
C      1  0.5521120000000  0.4949950000000  0.4155470000000 1.0
C      1  0.4711130000000  0.4465120000000  0.5507620000000 1.0
C      1  0.4811280000000  0.4921400000000  0.5403370000000 1.0
C      1  0.4817030000000  0.6083640000000  0.4976000000000 1.0
C      1  0.5200850000000  0.5275160000000  0.4034200000000 1.0
C      1  0.4513360000000  0.4577700000000  0.5915300000000 1.0
C      1  0.6045760000000  0.4800930000000  0.4775440000000 1.0
C      1  0.4738390000000  0.5145820000000  0.3953550000000 1.0
C      1  0.3954650000000  0.5158110000000  0.4762640000000 1.0
C      1  0.5205330000000  0.5578100000000  0.4410830000000 1.0
C      1  0.4515730000000  0.5231260000000  0.5592310000000 1.0
C      1  0.6092230000000  0.5199060000000  0.4884640000000 1.0
C      1  0.5633710000000  0.5563240000000  0.5183410000000 1.0
C      1  0.4292210000000  0.4618660000000  0.5437410000000 1.0
C      1  0.4807630000000  0.5629210000000  0.5503740000000 1.0
C      1  0.5346520000000  0.4550680000000  0.4627680000000 1.0
C      1  0.5294200000000  0.4327260000000  0.4443090000000 1.0
C      1  0.5995900000000  0.5443870000000  0.5009140000000 1.0
C      1  0.5944150000000  0.5134000000000  0.5443110000000 1.0
C      1  0.4993120000000  0.5346940000000  0.5033590000000 1.0
C      1  0.5124390000000  0.4921890000000  0.6071380000000 1.0
C      1  0.4410990000000  0.4612790000000  0.4949280000000 1.0
C      1  0.4423840000000  0.4724200000000  0.5676830000000 1.0
C      1  0.5515630000000  0.6010610000000  0.4927580000000 1.0
C      1  0.4847350000000  0.4528800000000  0.4593180000000 1.0
C      1  0.4782700000000  0.4467170000000  0.5019100000000 1.0
C      1  0.5583900000000  0.4197430000000  0.4826590000000 1.0
C      1  0.5669110000000  0.4914470000000  0.5827710000000 1.0
C      1  0.4379270000000  0.5185150000000  0.4128220000000 1.0
C      1  0.5899240000000  0.4875690000000  0.5252510000000 1.0
C      1  0.4441710000000  0.5418100000000  0.4600320000000 1.0
C      1  0.4474230000000  0.4888250000000  0.4552430000000 1.0
C      1  0.5062870000000  0.5897870000000  0.5423880000000 1.0
C      1  0.4208280000000  0.4458290000000  0.4441090000000 1.0
END
