TITL C-4164234-2335-474 27.1938781745407 125000 -16065.3524377427 0 0 110 (C1) n - 1
REM
REM in /home/nfs/bkarasulu/CARBON/AIRSS/Generating-Clusters/ReaxFF-fromJPCA2015/Units_Real/with-SteepDescent/Only-C1/SD-CG/Try1-3A/FIRE-CG
REM
REM
REM
REM
REM
REM ./C.cell (11c1c37f851c82e70ff6c80c92926a4b)
REM
REM compiler GCC version 9.2.1 20190827 (Red Hat 9.2.1-1)
REM options -cpp -mtune=generic -march=x86-64 -g -O0 -fpre-include=/usr/include/finclude/math-vector-fortran.h
REM seed 87019627 -229096249 1841588673 -1415197436 1116057737 749269786 1509676012 1622442151 -104857805 1152564053 -41910004 198206635 -1004193073 921669840 1115502614 -589479903 869632749 -2091878977 1990841191 -1808922559 -1814710268 -790650506 -535860791 -1804686789 1498665097 236160519 -136880623 1523549510 -1299395911 -1781189307 -1561103556 -1642815219 676784053
REM
CELL 1.54180   50.00000   50.00000   50.00000   90.00000   90.00000   90.00000
LATT -1
SFAC C  
C      1  0.5345080000000  0.4201340000000  0.5094990000000 1.0
C      1  0.5541370000000  0.5711630000000  0.4843550000000 1.0
C      1  0.5520870000000  0.5791050000000  0.5345600000000 1.0
C      1  0.4122950000000  0.5228250000000  0.4966380000000 1.0
C      1  0.5382530000000  0.4913340000000  0.5545980000000 1.0
C      1  0.5064700000000  0.5705290000000  0.4531910000000 1.0
C      1  0.4276100000000  0.4833320000000  0.5442260000000 1.0
C      1  0.4272740000000  0.5089430000000  0.4510760000000 1.0
C      1  0.5137610000000  0.4552340000000  0.4953530000000 1.0
C      1  0.4547250000000  0.5767100000000  0.5023270000000 1.0
C      1  0.4535440000000  0.4108720000000  0.5084890000000 1.0
C      1  0.4909160000000  0.5175960000000  0.5372020000000 1.0
C      1  0.5205620000000  0.5316010000000  0.4205330000000 1.0
C      1  0.4499010000000  0.4463460000000  0.4904670000000 1.0
C      1  0.5252470000000  0.5488820000000  0.5709930000000 1.0
C      1  0.4605950000000  0.4502900000000  0.5293170000000 1.0
C      1  0.4992370000000  0.5739630000000  0.5365140000000 1.0
C      1  0.4878360000000  0.4605180000000  0.5379280000000 1.0
C      1  0.5249920000000  0.5353980000000  0.5081960000000 1.0
C      1  0.5336900000000  0.5246640000000  0.5852870000000 1.0
C      1  0.4128810000000  0.4763740000000  0.5213720000000 1.0
C      1  0.4390870000000  0.5023050000000  0.5599450000000 1.0
C      1  0.5509860000000  0.5622950000000  0.4559590000000 1.0
C      1  0.4926690000000  0.5357490000000  0.4129100000000 1.0
C      1  0.5504190000000  0.4670620000000  0.5621240000000 1.0
C      1  0.5085770000000  0.4823870000000  0.4111620000000 1.0
C      1  0.5543500000000  0.4881750000000  0.5116400000000 1.0
C      1  0.5074550000000  0.4203110000000  0.5273250000000 1.0
C      1  0.5419570000000  0.5647950000000  0.5563310000000 1.0
C      1  0.4563660000000  0.5722580000000  0.4712390000000 1.0
C      1  0.4805860000000  0.5170200000000  0.5872090000000 1.0
C      1  0.4979640000000  0.4454800000000  0.5145000000000 1.0
C      1  0.5404960000000  0.4644830000000  0.5032980000000 1.0
C      1  0.5309370000000  0.5861930000000  0.4961220000000 1.0
C      1  0.5130990000000  0.4927190000000  0.5649110000000 1.0
C      1  0.5637360000000  0.5641090000000  0.5112250000000 1.0
C      1  0.5528900000000  0.4904120000000  0.4286220000000 1.0
C      1  0.4391630000000  0.5527070000000  0.4697570000000 1.0
C      1  0.4599850000000  0.4511070000000  0.4377610000000 1.0
C      1  0.4767580000000  0.5372190000000  0.4967270000000 1.0
C      1  0.4695610000000  0.5186790000000  0.5175120000000 1.0
C      1  0.4711870000000  0.4930120000000  0.5041200000000 1.0
C      1  0.4801120000000  0.5247560000000  0.4703140000000 1.0
C      1  0.4923160000000  0.4898510000000  0.5472810000000 1.0
C      1  0.5846500000000  0.4877530000000  0.4724940000000 1.0
C      1  0.5520400000000  0.4412660000000  0.5193440000000 1.0
C      1  0.4861150000000  0.4388450000000  0.4318590000000 1.0
C      1  0.5326460000000  0.4421150000000  0.4323050000000 1.0
C      1  0.5298080000000  0.5037490000000  0.4165810000000 1.0
C      1  0.5891320000000  0.5074380000000  0.4949390000000 1.0
C      1  0.5327210000000  0.5374720000000  0.4808270000000 1.0
C      1  0.6013820000000  0.4962020000000  0.5191200000000 1.0
C      1  0.4603400000000  0.4971740000000  0.5814520000000 1.0
C      1  0.5260570000000  0.4500230000000  0.5707340000000 1.0
C      1  0.5487600000000  0.5219020000000  0.4611110000000 1.0
C      1  0.5701050000000  0.4392160000000  0.4761750000000 1.0
C      1  0.5559910000000  0.4603260000000  0.4286730000000 1.0
C      1  0.4761940000000  0.5421920000000  0.5729410000000 1.0
C      1  0.4972850000000  0.4524040000000  0.4720060000000 1.0
C      1  0.4726160000000  0.5544850000000  0.4245370000000 1.0
C      1  0.4095920000000  0.4939880000000  0.4971080000000 1.0
C      1  0.5017300000000  0.5526270000000  0.5012070000000 1.0
C      1  0.5080160000000  0.5312640000000  0.4635570000000 1.0
C      1  0.5425620000000  0.4238620000000  0.4820070000000 1.0
C      1  0.5096420000000  0.5089960000000  0.5870470000000 1.0
C      1  0.4923890000000  0.4772360000000  0.4586470000000 1.0
C      1  0.5698310000000  0.4496010000000  0.4505420000000 1.0
C      1  0.4724020000000  0.4973440000000  0.4627550000000 1.0
C      1  0.4294990000000  0.5312270000000  0.5526460000000 1.0
C      1  0.4775820000000  0.5691090000000  0.4493350000000 1.0
C      1  0.5074310000000  0.4378360000000  0.5527890000000 1.0
C      1  0.5003460000000  0.4939780000000  0.4992350000000 1.0
C      1  0.5127570000000  0.5110190000000  0.5186490000000 1.0
C      1  0.5277320000000  0.4247500000000  0.4563000000000 1.0
C      1  0.5602320000000  0.5150020000000  0.5023090000000 1.0
C      1  0.4767330000000  0.5786620000000  0.5198100000000 1.0
C      1  0.4642940000000  0.5272350000000  0.4179430000000 1.0
C      1  0.5648420000000  0.5360050000000  0.5230490000000 1.0
C      1  0.4219470000000  0.5373150000000  0.5187610000000 1.0
C      1  0.4344680000000  0.5629190000000  0.5202600000000 1.0
C      1  0.4988400000000  0.4277320000000  0.4557870000000 1.0
C      1  0.5136570000000  0.4889200000000  0.4733970000000 1.0
C      1  0.5247040000000  0.5856790000000  0.5252140000000 1.0
C      1  0.4182010000000  0.4474110000000  0.5249190000000 1.0
C      1  0.5086660000000  0.4531660000000  0.4195770000000 1.0
C      1  0.4359170000000  0.5606540000000  0.5497090000000 1.0
C      1  0.4547490000000  0.4486130000000  0.4649040000000 1.0
C      1  0.5668250000000  0.5003350000000  0.4522190000000 1.0
C      1  0.4315010000000  0.4294260000000  0.5047590000000 1.0
C      1  0.4618980000000  0.4254520000000  0.5458300000000 1.0
C      1  0.5550330000000  0.5076880000000  0.5715590000000 1.0
C      1  0.4376940000000  0.4441580000000  0.5466520000000 1.0
C      1  0.4258000000000  0.4898780000000  0.4733140000000 1.0
C      1  0.4535720000000  0.4868620000000  0.4814820000000 1.0
C      1  0.5075110000000  0.5751530000000  0.4826360000000 1.0
C      1  0.5292720000000  0.5558520000000  0.4379180000000 1.0
C      1  0.5231560000000  0.5081670000000  0.4558680000000 1.0
C      1  0.4980020000000  0.5487200000000  0.5543490000000 1.0
C      1  0.5661470000000  0.4557450000000  0.5406390000000 1.0
C      1  0.5805280000000  0.4725090000000  0.5191540000000 1.0
C      1  0.4779250000000  0.4748650000000  0.5885870000000 1.0
C      1  0.4566420000000  0.4779420000000  0.4225810000000 1.0
C      1  0.5031300000000  0.4589710000000  0.5882250000000 1.0
C      1  0.5619260000000  0.5232680000000  0.5484010000000 1.0
C      1  0.4814780000000  0.4853490000000  0.4147360000000 1.0
C      1  0.4756610000000  0.4091120000000  0.5258290000000 1.0
C      1  0.4489360000000  0.5462970000000  0.5677900000000 1.0
C      1  0.5830930000000  0.4629000000000  0.4870830000000 1.0
C      1  0.4473770000000  0.5055550000000  0.4295080000000 1.0
C      1  0.4211100000000  0.5321870000000  0.4682020000000 1.0
END
