TITL C-4164238-4211-473 27.8483283405199 125000 -12431.4661169673 0 0 83 (C1) n - 1
REM
REM in /home/nfs/bkarasulu/CARBON/AIRSS/Generating-Clusters/ReaxFF-fromJPCA2015/Units_Real/with-SteepDescent/Only-C1/SD-CG/Try1-3A/FIRE-CG
REM
REM
REM
REM
REM
REM ./C.cell (11c1c37f851c82e70ff6c80c92926a4b)
REM
REM compiler GCC version 9.2.1 20190827 (Red Hat 9.2.1-1)
REM options -cpp -mtune=generic -march=x86-64 -g -O0 -fpre-include=/usr/include/finclude/math-vector-fortran.h
REM seed -1425420614 -1563672094 -1058398788 446873784 1615582386 -2079032515 -683008928 -971231788 -1515386825 -1051206725 -1034131820 -2123647356 228574983 223248610 -1022228548 930493082 815407884 -2087631001 1520885611 -822653208 1538475309 -727029129 -1733253301 806002524 -1435403727 -765659485 589533532 754732026 269012185 -1565655966 -1969286670 1594818216 976141029
REM
CELL 1.54180   50.00000   50.00000   50.00000   90.00000   90.00000   90.00000
LATT -1
SFAC C  
C      1  0.5253280000000  0.4738060000000  0.4287290000000 1.0
C      1  0.5647430000000  0.5015680000000  0.4462780000000 1.0
C      1  0.5624340000000  0.4340410000000  0.4733750000000 1.0
C      1  0.4113800000000  0.4884040000000  0.5206300000000 1.0
C      1  0.5377310000000  0.4180860000000  0.4748070000000 1.0
C      1  0.4392940000000  0.4526190000000  0.5561000000000 1.0
C      1  0.4819820000000  0.5125070000000  0.4289840000000 1.0
C      1  0.5796920000000  0.5325690000000  0.4849270000000 1.0
C      1  0.5001170000000  0.4198560000000  0.5096250000000 1.0
C      1  0.4995530000000  0.4654700000000  0.4250460000000 1.0
C      1  0.5000410000000  0.4435810000000  0.4451860000000 1.0
C      1  0.5614230000000  0.5450940000000  0.4660600000000 1.0
C      1  0.4424230000000  0.4784210000000  0.4618510000000 1.0
C      1  0.4822840000000  0.4832150000000  0.5757320000000 1.0
C      1  0.4099740000000  0.5127760000000  0.5067710000000 1.0
C      1  0.4575290000000  0.5132650000000  0.5099890000000 1.0
C      1  0.5131320000000  0.5574920000000  0.4326410000000 1.0
C      1  0.5515870000000  0.4757790000000  0.4376140000000 1.0
C      1  0.5488240000000  0.4800210000000  0.5247420000000 1.0
C      1  0.5439190000000  0.4712690000000  0.4980410000000 1.0
C      1  0.5244440000000  0.5305850000000  0.4362150000000 1.0
C      1  0.4457250000000  0.5025670000000  0.5679750000000 1.0
C      1  0.5756360000000  0.5055330000000  0.4733640000000 1.0
C      1  0.5537600000000  0.4976650000000  0.4909750000000 1.0
C      1  0.5587790000000  0.5582240000000  0.5216840000000 1.0
C      1  0.4274640000000  0.4686230000000  0.5286380000000 1.0
C      1  0.4652120000000  0.5354920000000  0.4884200000000 1.0
C      1  0.5773000000000  0.5369170000000  0.5137560000000 1.0
C      1  0.5269160000000  0.5644370000000  0.5490290000000 1.0
C      1  0.5113060000000  0.5771960000000  0.5117380000000 1.0
C      1  0.4924670000000  0.4362740000000  0.5587490000000 1.0
C      1  0.5116070000000  0.4728040000000  0.5011340000000 1.0
C      1  0.5141730000000  0.4983420000000  0.5477030000000 1.0
C      1  0.4928820000000  0.5088560000000  0.5660400000000 1.0
C      1  0.4174490000000  0.5173500000000  0.4778940000000 1.0
C      1  0.4557560000000  0.4570670000000  0.4679010000000 1.0
C      1  0.4465460000000  0.5299750000000  0.5642600000000 1.0
C      1  0.5598630000000  0.4457880000000  0.4996990000000 1.0
C      1  0.5028370000000  0.5747480000000  0.5407930000000 1.0
C      1  0.4884310000000  0.5767750000000  0.4931660000000 1.0
C      1  0.4623840000000  0.4331390000000  0.5586520000000 1.0
C      1  0.5736720000000  0.5151330000000  0.5338540000000 1.0
C      1  0.5485380000000  0.5479190000000  0.5475380000000 1.0
C      1  0.4412610000000  0.5291350000000  0.4452000000000 1.0
C      1  0.4359600000000  0.5422040000000  0.5392700000000 1.0
C      1  0.4656170000000  0.5620580000000  0.5030920000000 1.0
C      1  0.5431080000000  0.5185460000000  0.5379340000000 1.0
C      1  0.4772220000000  0.4305780000000  0.4921080000000 1.0
C      1  0.4558620000000  0.4428650000000  0.5075560000000 1.0
C      1  0.4713830000000  0.4908740000000  0.5185830000000 1.0
C      1  0.4843960000000  0.5602850000000  0.4399420000000 1.0
C      1  0.4938750000000  0.5308120000000  0.4758470000000 1.0
C      1  0.4988060000000  0.4856790000000  0.5233330000000 1.0
C      1  0.5020120000000  0.4616700000000  0.5717810000000 1.0
C      1  0.5100850000000  0.5171550000000  0.4960350000000 1.0
C      1  0.5264970000000  0.4327110000000  0.4514120000000 1.0
C      1  0.5520120000000  0.4477410000000  0.4486780000000 1.0
C      1  0.5526470000000  0.5275910000000  0.4434710000000 1.0
C      1  0.5288110000000  0.4175270000000  0.5032150000000 1.0
C      1  0.4791810000000  0.5582810000000  0.5492140000000 1.0
C      1  0.4770710000000  0.4864810000000  0.4181800000000 1.0
C      1  0.4331410000000  0.5229360000000  0.5201170000000 1.0
C      1  0.5445810000000  0.4347840000000  0.5213010000000 1.0
C      1  0.4480980000000  0.4319550000000  0.5343020000000 1.0
C      1  0.5702500000000  0.4884520000000  0.5335140000000 1.0
C      1  0.5371710000000  0.5129420000000  0.5087960000000 1.0
C      1  0.4375120000000  0.5378070000000  0.4721520000000 1.0
C      1  0.5058310000000  0.4280640000000  0.5355780000000 1.0
C      1  0.5031090000000  0.5163520000000  0.4514940000000 1.0
C      1  0.4766200000000  0.5333490000000  0.5645190000000 1.0
C      1  0.5210550000000  0.5743380000000  0.4559410000000 1.0
C      1  0.5032870000000  0.4921430000000  0.4827090000000 1.0
C      1  0.4531520000000  0.4770850000000  0.5711560000000 1.0
C      1  0.5425510000000  0.5660110000000  0.4746210000000 1.0
C      1  0.4661260000000  0.5378940000000  0.4331730000000 1.0
C      1  0.4566940000000  0.5610200000000  0.5309070000000 1.0
C      1  0.4776550000000  0.4399240000000  0.4646710000000 1.0
C      1  0.5445590000000  0.4590750000000  0.5412940000000 1.0
C      1  0.5382710000000  0.5696240000000  0.5030830000000 1.0
C      1  0.4928280000000  0.5768320000000  0.4636840000000 1.0
C      1  0.4282260000000  0.5011880000000  0.4554190000000 1.0
C      1  0.5247420000000  0.4726550000000  0.5589420000000 1.0
C      1  0.4521980000000  0.4721300000000  0.5114720000000 1.0
END
