TITL C-4164234-2335-456 15.652108748717 125000 -16613.0143294739 0 0 112 (C1) n - 1
REM
REM in /home/nfs/bkarasulu/CARBON/AIRSS/Generating-Clusters/ReaxFF-fromJPCA2015/Units_Real/with-SteepDescent/Only-C1/SD-CG/Try1-3A/FIRE-CG
REM
REM
REM
REM
REM
REM ./C.cell (11c1c37f851c82e70ff6c80c92926a4b)
REM
REM compiler GCC version 9.2.1 20190827 (Red Hat 9.2.1-1)
REM options -cpp -mtune=generic -march=x86-64 -g -O0 -fpre-include=/usr/include/finclude/math-vector-fortran.h
REM seed 2073751055 -955996392 -1635306996 -1257668628 826111326 -924723049 -1882702583 736024269 -137619146 1336383590 -887037866 -311238442 -1857413338 239708032 2092363381 1386308182 -787000585 998753516 -1792728021 -2101466249 1917750191 -1663770736 274745062 -1401697756 1901565430 -349055158 -1314497625 451203192 -689617939 1278916550 1803126340 1900761438 -324034722
REM
CELL 1.54180   50.00000   50.00000   50.00000   90.00000   90.00000   90.00000
LATT -1
SFAC C  
C      1  0.4342390000000  0.5595760000000  0.4880860000000 1.0
C      1  0.5462030000000  0.4926320000000  0.5092860000000 1.0
C      1  0.4927720000000  0.5987490000000  0.5116560000000 1.0
C      1  0.5204290000000  0.5813010000000  0.5495220000000 1.0
C      1  0.5202330000000  0.4593010000000  0.5080960000000 1.0
C      1  0.4355170000000  0.4875580000000  0.4304290000000 1.0
C      1  0.5185020000000  0.4180620000000  0.4591500000000 1.0
C      1  0.5883270000000  0.4753460000000  0.5070180000000 1.0
C      1  0.4173970000000  0.5148630000000  0.4672970000000 1.0
C      1  0.4758050000000  0.5337200000000  0.5137110000000 1.0
C      1  0.4605820000000  0.4550140000000  0.4215660000000 1.0
C      1  0.4550970000000  0.5138540000000  0.5123720000000 1.0
C      1  0.4834530000000  0.5415760000000  0.4643370000000 1.0
C      1  0.5064640000000  0.5300580000000  0.5889150000000 1.0
C      1  0.5428930000000  0.4810270000000  0.4832150000000 1.0
C      1  0.5022760000000  0.5611070000000  0.4484050000000 1.0
C      1  0.4111500000000  0.5045170000000  0.4927540000000 1.0
C      1  0.4974320000000  0.4545500000000  0.4749060000000 1.0
C      1  0.4798390000000  0.5148520000000  0.5809190000000 1.0
C      1  0.5212630000000  0.5280010000000  0.4165620000000 1.0
C      1  0.4770900000000  0.4177930000000  0.5344320000000 1.0
C      1  0.5369460000000  0.5663130000000  0.5651990000000 1.0
C      1  0.5537520000000  0.4965600000000  0.4637020000000 1.0
C      1  0.5842420000000  0.4713960000000  0.4299670000000 1.0
C      1  0.5994290000000  0.5022380000000  0.5123310000000 1.0
C      1  0.4256570000000  0.5193570000000  0.5160650000000 1.0
C      1  0.5056900000000  0.4228890000000  0.5325800000000 1.0
C      1  0.5671480000000  0.5190450000000  0.4753830000000 1.0
C      1  0.5598930000000  0.5621720000000  0.5171200000000 1.0
C      1  0.4495160000000  0.4432600000000  0.4462050000000 1.0
C      1  0.4223210000000  0.5516070000000  0.5131160000000 1.0
C      1  0.4410260000000  0.4437230000000  0.5152010000000 1.0
C      1  0.5697140000000  0.5269000000000  0.5527890000000 1.0
C      1  0.4816380000000  0.4279530000000  0.4843000000000 1.0
C      1  0.4012730000000  0.4793860000000  0.5313700000000 1.0
C      1  0.5438900000000  0.4579150000000  0.5583480000000 1.0
C      1  0.5312060000000  0.5368300000000  0.5008520000000 1.0
C      1  0.5049770000000  0.5843420000000  0.4652400000000 1.0
C      1  0.4632280000000  0.5025180000000  0.4876490000000 1.0
C      1  0.5333130000000  0.5201290000000  0.5869820000000 1.0
C      1  0.4635030000000  0.4774300000000  0.4719170000000 1.0
C      1  0.4620100000000  0.4783900000000  0.5448660000000 1.0
C      1  0.5463020000000  0.5594180000000  0.4556000000000 1.0
C      1  0.5401570000000  0.4877690000000  0.5614180000000 1.0
C      1  0.5152640000000  0.5562070000000  0.5801300000000 1.0
C      1  0.4760310000000  0.5662080000000  0.5448510000000 1.0
C      1  0.5323380000000  0.5776930000000  0.4729410000000 1.0
C      1  0.4481050000000  0.4411410000000  0.5676590000000 1.0
C      1  0.4541830000000  0.4829970000000  0.4114760000000 1.0
C      1  0.4687860000000  0.4239160000000  0.4559470000000 1.0
C      1  0.4316270000000  0.5417640000000  0.4659340000000 1.0
C      1  0.4425650000000  0.4567980000000  0.5427550000000 1.0
C      1  0.5537670000000  0.5198560000000  0.5012170000000 1.0
C      1  0.4938420000000  0.5433910000000  0.5357110000000 1.0
C      1  0.5177160000000  0.4530100000000  0.5672360000000 1.0
C      1  0.5924940000000  0.5197850000000  0.5358770000000 1.0
C      1  0.5493610000000  0.4506920000000  0.4386900000000 1.0
C      1  0.4763900000000  0.4808930000000  0.4982120000000 1.0
C      1  0.5932220000000  0.4641480000000  0.4573390000000 1.0
C      1  0.5254590000000  0.5483480000000  0.4364750000000 1.0
C      1  0.5692300000000  0.5475320000000  0.4693490000000 1.0
C      1  0.5832960000000  0.4564190000000  0.4838220000000 1.0
C      1  0.4946720000000  0.4239660000000  0.4419960000000 1.0
C      1  0.5235690000000  0.4154700000000  0.5100510000000 1.0
C      1  0.4644510000000  0.5344300000000  0.5704010000000 1.0
C      1  0.5198270000000  0.5318830000000  0.5413940000000 1.0
C      1  0.5539120000000  0.4735370000000  0.4231700000000 1.0
C      1  0.4715820000000  0.5085030000000  0.4102180000000 1.0
C      1  0.5199370000000  0.5031640000000  0.5449590000000 1.0
C      1  0.4210110000000  0.4892440000000  0.4531210000000 1.0
C      1  0.4975260000000  0.5162930000000  0.4689830000000 1.0
C      1  0.5001640000000  0.5089130000000  0.4189090000000 1.0
C      1  0.4844270000000  0.5934150000000  0.4843510000000 1.0
C      1  0.4608630000000  0.5265060000000  0.4277460000000 1.0
C      1  0.5411600000000  0.5128870000000  0.4216260000000 1.0
C      1  0.4359280000000  0.4629220000000  0.4663830000000 1.0
C      1  0.5031840000000  0.4524540000000  0.5281200000000 1.0
C      1  0.5085820000000  0.4125190000000  0.4853760000000 1.0
C      1  0.4886010000000  0.4492460000000  0.4285580000000 1.0
C      1  0.5390130000000  0.4951790000000  0.4390210000000 1.0
C      1  0.4255030000000  0.4564490000000  0.4938320000000 1.0
C      1  0.3845180000000  0.4991370000000  0.5484520000000 1.0
C      1  0.4895320000000  0.4700400000000  0.4517790000000 1.0
C      1  0.4069890000000  0.4768880000000  0.5025910000000 1.0
C      1  0.5789300000000  0.5523570000000  0.4974310000000 1.0
C      1  0.4124380000000  0.5046440000000  0.5407950000000 1.0
C      1  0.4637230000000  0.4268920000000  0.5102640000000 1.0
C      1  0.4537520000000  0.4649290000000  0.5827110000000 1.0
C      1  0.5969400000000  0.5314660000000  0.5095050000000 1.0
C      1  0.4737130000000  0.4836110000000  0.5737310000000 1.0
C      1  0.5564800000000  0.4470550000000  0.5327370000000 1.0
C      1  0.5456760000000  0.4314840000000  0.4584960000000 1.0
C      1  0.4547470000000  0.5425620000000  0.4478280000000 1.0
C      1  0.4283790000000  0.5600910000000  0.5400250000000 1.0
C      1  0.5176690000000  0.5883120000000  0.5231910000000 1.0
C      1  0.5615800000000  0.4368320000000  0.4841260000000 1.0
C      1  0.4518560000000  0.5570140000000  0.5591070000000 1.0
C      1  0.4752750000000  0.4297720000000  0.5616350000000 1.0
C      1  0.5343640000000  0.5688570000000  0.5030520000000 1.0
C      1  0.5564090000000  0.5097040000000  0.5735180000000 1.0
C      1  0.4813290000000  0.4712420000000  0.5244690000000 1.0
C      1  0.5175650000000  0.4997320000000  0.5164040000000 1.0
C      1  0.4914510000000  0.4517330000000  0.5728890000000 1.0
C      1  0.5235680000000  0.4610920000000  0.4828500000000 1.0
C      1  0.5494690000000  0.4298330000000  0.5095640000000 1.0
C      1  0.4703260000000  0.5845420000000  0.5227560000000 1.0
C      1  0.5100520000000  0.5185380000000  0.4950440000000 1.0
C      1  0.5506250000000  0.5471000000000  0.5425140000000 1.0
C      1  0.5669980000000  0.4726320000000  0.5260400000000 1.0
C      1  0.4628500000000  0.5745450000000  0.4943070000000 1.0
C      1  0.5039550000000  0.4981420000000  0.4468320000000 1.0
C      1  0.4774580000000  0.5504510000000  0.4906820000000 1.0
END
