TITL C-4164233-775-401 -6.73295970652794 125000 -18773.6463383571 0 0 125 (C1) n - 1
REM
REM in /home/nfs/bkarasulu/CARBON/AIRSS/Generating-Clusters/ReaxFF-fromJPCA2015/Units_Real/with-SteepDescent/Only-C1/SD-CG/Try1-3A/FIRE-CG
REM
REM
REM
REM
REM
REM ./C.cell (11c1c37f851c82e70ff6c80c92926a4b)
REM
REM compiler GCC version 9.2.1 20190827 (Red Hat 9.2.1-1)
REM options -cpp -mtune=generic -march=x86-64 -g -O0 -fpre-include=/usr/include/finclude/math-vector-fortran.h
REM seed -1334538691 -231697130 1504319553 1930133645 2128138036 -1187202968 -2119282474 706169239 978202159 901470035 -63674299 -517723474 1991783047 45182544 746684428 731500139 1700386326 -863418512 -999258949 353029678 -1054832676 2120362821 32033352 -1118191713 1251991924 1471083348 -1024821821 -1639090058 1703788771 -1116450726 -1361691303 1397552833 1916273256
REM
CELL 1.54180   50.00000   50.00000   50.00000   90.00000   90.00000   90.00000
LATT -1
SFAC C  
C      1  0.5029170000000  0.5053620000000  0.5053210000000 1.0
C      1  0.5325540000000  0.4470520000000  0.4504110000000 1.0
C      1  0.4576590000000  0.4141340000000  0.4754780000000 1.0
C      1  0.5419250000000  0.5599190000000  0.5498410000000 1.0
C      1  0.5168260000000  0.4336620000000  0.5411020000000 1.0
C      1  0.5045700000000  0.4897420000000  0.5980290000000 1.0
C      1  0.5274570000000  0.5073040000000  0.4069130000000 1.0
C      1  0.5311930000000  0.5895610000000  0.5053650000000 1.0
C      1  0.4518350000000  0.4429180000000  0.4779530000000 1.0
C      1  0.5625500000000  0.5247170000000  0.4460640000000 1.0
C      1  0.4215860000000  0.5461650000000  0.4442820000000 1.0
C      1  0.4759540000000  0.4670490000000  0.5247480000000 1.0
C      1  0.4513460000000  0.5122980000000  0.5269600000000 1.0
C      1  0.4215530000000  0.4795250000000  0.4580570000000 1.0
C      1  0.5751380000000  0.4657120000000  0.5207350000000 1.0
C      1  0.5668640000000  0.4364740000000  0.5166370000000 1.0
C      1  0.4362300000000  0.4974890000000  0.4756800000000 1.0
C      1  0.5905300000000  0.5040770000000  0.5337230000000 1.0
C      1  0.5372490000000  0.5135830000000  0.5682290000000 1.0
C      1  0.4263450000000  0.5062900000000  0.4156000000000 1.0
C      1  0.5487960000000  0.5240640000000  0.4178190000000 1.0
C      1  0.5568200000000  0.4927210000000  0.6047960000000 1.0
C      1  0.4898850000000  0.4826350000000  0.4622700000000 1.0
C      1  0.4715540000000  0.4933160000000  0.5377240000000 1.0
C      1  0.5452470000000  0.4666970000000  0.4322900000000 1.0
C      1  0.5044470000000  0.4394450000000  0.4340830000000 1.0
C      1  0.5708220000000  0.4749810000000  0.4452880000000 1.0
C      1  0.5548010000000  0.5340090000000  0.5558860000000 1.0
C      1  0.5025910000000  0.5231680000000  0.4000080000000 1.0
C      1  0.5160370000000  0.5577110000000  0.4329620000000 1.0
C      1  0.4654040000000  0.5279660000000  0.4774780000000 1.0
C      1  0.5112660000000  0.4084030000000  0.5284380000000 1.0
C      1  0.3896000000000  0.5222650000000  0.5062150000000 1.0
C      1  0.5385860000000  0.5424060000000  0.4910080000000 1.0
C      1  0.4390540000000  0.4566370000000  0.4546480000000 1.0
C      1  0.5311560000000  0.4495800000000  0.5880260000000 1.0
C      1  0.5411440000000  0.5275150000000  0.4657830000000 1.0
C      1  0.5312430000000  0.4846320000000  0.4788530000000 1.0
C      1  0.5040280000000  0.5344000000000  0.4514470000000 1.0
C      1  0.4802500000000  0.4474400000000  0.5804500000000 1.0
C      1  0.4501480000000  0.4921810000000  0.5016640000000 1.0
C      1  0.5436360000000  0.5521800000000  0.4218690000000 1.0
C      1  0.5711280000000  0.4602390000000  0.4704830000000 1.0
C      1  0.5276060000000  0.5047700000000  0.4630250000000 1.0
C      1  0.4433560000000  0.5497860000000  0.4853090000000 1.0
C      1  0.4998440000000  0.4491970000000  0.4956420000000 1.0
C      1  0.4839750000000  0.5266650000000  0.5776330000000 1.0
C      1  0.5517600000000  0.4820440000000  0.5156550000000 1.0
C      1  0.5925100000000  0.4871830000000  0.5093850000000 1.0
C      1  0.5043640000000  0.4615460000000  0.5914660000000 1.0
C      1  0.4578110000000  0.4559800000000  0.4317300000000 1.0
C      1  0.4732980000000  0.4679920000000  0.4073250000000 1.0
C      1  0.4955570000000  0.5759450000000  0.5630390000000 1.0
C      1  0.4442510000000  0.5287970000000  0.4320050000000 1.0
C      1  0.5184530000000  0.5003560000000  0.5501540000000 1.0
C      1  0.5117790000000  0.5559110000000  0.5486180000000 1.0
C      1  0.4540870000000  0.4896120000000  0.5850020000000 1.0
C      1  0.4909790000000  0.5077250000000  0.5546730000000 1.0
C      1  0.4592700000000  0.5886800000000  0.5436140000000 1.0
C      1  0.5796460000000  0.4997980000000  0.4577260000000 1.0
C      1  0.4577940000000  0.5597840000000  0.5532260000000 1.0
C      1  0.4370740000000  0.5634940000000  0.4608990000000 1.0
C      1  0.4016930000000  0.5264090000000  0.4518770000000 1.0
C      1  0.5645480000000  0.5720640000000  0.4641790000000 1.0
C      1  0.4787590000000  0.5042080000000  0.5954890000000 1.0
C      1  0.4570150000000  0.4081950000000  0.5286710000000 1.0
C      1  0.5420490000000  0.5763460000000  0.5271580000000 1.0
C      1  0.4340770000000  0.4692010000000  0.5216830000000 1.0
C      1  0.4469320000000  0.4325440000000  0.5359410000000 1.0
C      1  0.4765730000000  0.5549550000000  0.5744120000000 1.0
C      1  0.5128570000000  0.4642900000000  0.4730020000000 1.0
C      1  0.5019940000000  0.4616360000000  0.4102630000000 1.0
C      1  0.4661360000000  0.5667910000000  0.4491850000000 1.0
C      1  0.4569390000000  0.4635160000000  0.5731070000000 1.0
C      1  0.4652920000000  0.5434360000000  0.5291140000000 1.0
C      1  0.5121750000000  0.5328920000000  0.5054140000000 1.0
C      1  0.5246460000000  0.4073810000000  0.5013790000000 1.0
C      1  0.4657360000000  0.5500380000000  0.4238400000000 1.0
C      1  0.5160780000000  0.5781270000000  0.4562920000000 1.0
C      1  0.3946560000000  0.5252300000000  0.4782600000000 1.0
C      1  0.5649200000000  0.5380230000000  0.5069700000000 1.0
C      1  0.5307080000000  0.5043420000000  0.5955860000000 1.0
C      1  0.4817360000000  0.5446930000000  0.4634060000000 1.0
C      1  0.5904840000000  0.5035920000000  0.4841970000000 1.0
C      1  0.5533150000000  0.4365720000000  0.4698830000000 1.0
C      1  0.4784750000000  0.4983970000000  0.4906990000000 1.0
C      1  0.4416140000000  0.4556280000000  0.5480680000000 1.0
C      1  0.5376150000000  0.4339890000000  0.5619180000000 1.0
C      1  0.4825100000000  0.4214710000000  0.5664220000000 1.0
C      1  0.5894760000000  0.5332930000000  0.4913550000000 1.0
C      1  0.5365780000000  0.5740910000000  0.4780880000000 1.0
C      1  0.5849550000000  0.5568670000000  0.4762380000000 1.0
C      1  0.5224260000000  0.4868890000000  0.5235970000000 1.0
C      1  0.5491510000000  0.4246290000000  0.4954910000000 1.0
C      1  0.4849600000000  0.4051680000000  0.5423370000000 1.0
C      1  0.4103700000000  0.4993030000000  0.4380290000000 1.0
C      1  0.4416500000000  0.5899920000000  0.5191280000000 1.0
C      1  0.5056860000000  0.4048420000000  0.4817840000000 1.0
C      1  0.5705750000000  0.5259180000000  0.5328490000000 1.0
C      1  0.4253460000000  0.5129370000000  0.5442990000000 1.0
C      1  0.4966240000000  0.5455930000000  0.5262070000000 1.0
C      1  0.5824520000000  0.4924850000000  0.5883240000000 1.0
C      1  0.4933710000000  0.4109080000000  0.4357260000000 1.0
C      1  0.4852220000000  0.4031730000000  0.4629730000000 1.0
C      1  0.4516540000000  0.3997470000000  0.4998530000000 1.0
C      1  0.5056000000000  0.4582890000000  0.5238600000000 1.0
C      1  0.5024090000000  0.5965620000000  0.5139860000000 1.0
C      1  0.5266240000000  0.4784180000000  0.4133230000000 1.0
C      1  0.5939760000000  0.4944290000000  0.5613340000000 1.0
C      1  0.4916280000000  0.5469560000000  0.4128260000000 1.0
C      1  0.5039430000000  0.5053480000000  0.4489920000000 1.0
C      1  0.5584770000000  0.4358050000000  0.5434630000000 1.0
C      1  0.4478490000000  0.5617400000000  0.5101940000000 1.0
C      1  0.5506480000000  0.4674200000000  0.5964600000000 1.0
C      1  0.5665130000000  0.5555490000000  0.4396900000000 1.0
C      1  0.4008060000000  0.5059920000000  0.5295250000000 1.0
C      1  0.4715560000000  0.4539820000000  0.4979360000000 1.0
C      1  0.4925090000000  0.5930100000000  0.4887980000000 1.0
C      1  0.4319940000000  0.5046670000000  0.5715470000000 1.0
C      1  0.4505320000000  0.5145720000000  0.4585250000000 1.0
C      1  0.4822630000000  0.4576020000000  0.4467330000000 1.0
C      1  0.4880210000000  0.5935040000000  0.5405340000000 1.0
C      1  0.4898650000000  0.5868540000000  0.4622680000000 1.0
C      1  0.4054160000000  0.4770220000000  0.5225870000000 1.0
C      1  0.5560020000000  0.4795900000000  0.4879890000000 1.0
END
