TITL C-4164240-4114-257 9.03721539180289 125000 -20407.7628952986 0 0 135 (C1) n - 1
REM
REM in /home/nfs/bkarasulu/CARBON/AIRSS/Generating-Clusters/ReaxFF-fromJPCA2015/Units_Real/with-SteepDescent/Only-C1/SD-CG/Try1-3A/FIRE-CG
REM
REM
REM
REM
REM
REM ./C.cell (11c1c37f851c82e70ff6c80c92926a4b)
REM
REM compiler GCC version 9.2.1 20190827 (Red Hat 9.2.1-1)
REM options -cpp -mtune=generic -march=x86-64 -g -O0 -fpre-include=/usr/include/finclude/math-vector-fortran.h
REM seed -1248609069 -1214852103 -1704226715 1071178833 838275416 56657139 -1676689919 -1099478360 -7968118 1597415177 1042436625 -1568650562 956758968 199172057 972107000 1919418216 -762833087 -653696955 131723073 457007229 -846705660 1164308741 -1280871295 185887203 -1904610971 -2104690783 -351839528 -1134623985 -240249687 -1821297827 366427445 -2104321117 106077397
REM
CELL 1.54180   50.00000   50.00000   50.00000   90.00000   90.00000   90.00000
LATT -1
SFAC C  
C      1  0.4078050000000  0.4697640000000  0.5255700000000 1.0
C      1  0.4660970000000  0.5607220000000  0.4250340000000 1.0
C      1  0.5442010000000  0.5446570000000  0.5836050000000 1.0
C      1  0.4638410000000  0.3986380000000  0.4614760000000 1.0
C      1  0.4692200000000  0.4917390000000  0.6008750000000 1.0
C      1  0.3978480000000  0.5365830000000  0.4989180000000 1.0
C      1  0.5709370000000  0.4939540000000  0.5421290000000 1.0
C      1  0.4415500000000  0.4430630000000  0.5310940000000 1.0
C      1  0.4153090000000  0.4907890000000  0.4749850000000 1.0
C      1  0.4397420000000  0.4502270000000  0.5025410000000 1.0
C      1  0.4812390000000  0.5457810000000  0.5797500000000 1.0
C      1  0.4663630000000  0.4591700000000  0.4648620000000 1.0
C      1  0.5593400000000  0.4831570000000  0.5877100000000 1.0
C      1  0.5419560000000  0.5894670000000  0.5314790000000 1.0
C      1  0.4626720000000  0.4971970000000  0.4933130000000 1.0
C      1  0.4442800000000  0.5798330000000  0.4750800000000 1.0
C      1  0.4579390000000  0.5183820000000  0.4730180000000 1.0
C      1  0.4942020000000  0.4832290000000  0.5555990000000 1.0
C      1  0.5576490000000  0.5768450000000  0.4826540000000 1.0
C      1  0.5414150000000  0.5700950000000  0.5691190000000 1.0
C      1  0.4255380000000  0.4620130000000  0.5476580000000 1.0
C      1  0.4931440000000  0.4259410000000  0.5007360000000 1.0
C      1  0.5457510000000  0.4555320000000  0.5389490000000 1.0
C      1  0.4862840000000  0.5396640000000  0.4285400000000 1.0
C      1  0.4820750000000  0.4455730000000  0.4074610000000 1.0
C      1  0.5780760000000  0.4686760000000  0.4650280000000 1.0
C      1  0.4856720000000  0.4947800000000  0.4357400000000 1.0
C      1  0.5421490000000  0.4357780000000  0.4473930000000 1.0
C      1  0.4477860000000  0.5849400000000  0.5030850000000 1.0
C      1  0.4342690000000  0.5394600000000  0.5674590000000 1.0
C      1  0.5417530000000  0.4566520000000  0.5110640000000 1.0
C      1  0.5271310000000  0.5242030000000  0.5962110000000 1.0
C      1  0.5181650000000  0.5555370000000  0.5032850000000 1.0
C      1  0.4541490000000  0.5485300000000  0.5851720000000 1.0
C      1  0.4913370000000  0.5807340000000  0.4782070000000 1.0
C      1  0.4869270000000  0.4947990000000  0.4045000000000 1.0
C      1  0.5103880000000  0.5151840000000  0.3965720000000 1.0
C      1  0.4936920000000  0.4287530000000  0.4264970000000 1.0
C      1  0.5861440000000  0.4534840000000  0.4898550000000 1.0
C      1  0.5561190000000  0.4553500000000  0.5781690000000 1.0
C      1  0.5222470000000  0.5890000000000  0.5539390000000 1.0
C      1  0.5619670000000  0.5762920000000  0.5487130000000 1.0
C      1  0.5053000000000  0.4180970000000  0.4748710000000 1.0
C      1  0.4267020000000  0.5113170000000  0.5730390000000 1.0
C      1  0.4912720000000  0.4998700000000  0.4943400000000 1.0
C      1  0.4802950000000  0.5829210000000  0.4379060000000 1.0
C      1  0.4166360000000  0.5580250000000  0.5017690000000 1.0
C      1  0.5100760000000  0.5394800000000  0.4101890000000 1.0
C      1  0.5276630000000  0.5273990000000  0.4658490000000 1.0
C      1  0.4318110000000  0.5555210000000  0.4595080000000 1.0
C      1  0.4415470000000  0.5466960000000  0.4325440000000 1.0
C      1  0.5757730000000  0.4279110000000  0.5019310000000 1.0
C      1  0.4407810000000  0.5209970000000  0.4177770000000 1.0
C      1  0.5433420000000  0.4823690000000  0.4969050000000 1.0
C      1  0.5258030000000  0.5252930000000  0.5466450000000 1.0
C      1  0.4985910000000  0.4677380000000  0.4013310000000 1.0
C      1  0.4286770000000  0.5139570000000  0.4640080000000 1.0
C      1  0.5341500000000  0.4208840000000  0.4719000000000 1.0
C      1  0.4435460000000  0.4749600000000  0.4143330000000 1.0
C      1  0.5914470000000  0.5495620000000  0.5105800000000 1.0
C      1  0.4780700000000  0.5397940000000  0.5510160000000 1.0
C      1  0.4103780000000  0.4913170000000  0.5042800000000 1.0
C      1  0.5372000000000  0.5779210000000  0.5044850000000 1.0
C      1  0.4236400000000  0.4417000000000  0.4583270000000 1.0
C      1  0.5051500000000  0.5748460000000  0.4527710000000 1.0
C      1  0.5670120000000  0.5303480000000  0.5709840000000 1.0
C      1  0.5873150000000  0.4702620000000  0.5363670000000 1.0
C      1  0.4881770000000  0.4127120000000  0.4513900000000 1.0
C      1  0.5458040000000  0.4094050000000  0.5258550000000 1.0
C      1  0.5256260000000  0.5534560000000  0.4515860000000 1.0
C      1  0.5216830000000  0.4384470000000  0.4265960000000 1.0
C      1  0.4860930000000  0.4595430000000  0.5404560000000 1.0
C      1  0.5174390000000  0.4705000000000  0.5069420000000 1.0
C      1  0.5287100000000  0.4486920000000  0.5821420000000 1.0
C      1  0.5819530000000  0.4975910000000  0.4663010000000 1.0
C      1  0.5410250000000  0.4822040000000  0.4329030000000 1.0
C      1  0.4490160000000  0.5787140000000  0.5303940000000 1.0
C      1  0.4992350000000  0.5318470000000  0.6010280000000 1.0
C      1  0.5006580000000  0.5329970000000  0.5345140000000 1.0
C      1  0.4210190000000  0.4823650000000  0.4311750000000 1.0
C      1  0.5815560000000  0.5599670000000  0.4836150000000 1.0
C      1  0.5555580000000  0.5066100000000  0.5063470000000 1.0
C      1  0.4414710000000  0.4926190000000  0.5904370000000 1.0
C      1  0.4879990000000  0.4724990000000  0.4537980000000 1.0
C      1  0.5739870000000  0.5465520000000  0.4581310000000 1.0
C      1  0.5927660000000  0.4732590000000  0.5088160000000 1.0
C      1  0.4890860000000  0.5567990000000  0.4959820000000 1.0
C      1  0.4786930000000  0.5189130000000  0.4472840000000 1.0
C      1  0.5540180000000  0.5322940000000  0.5441750000000 1.0
C      1  0.4959850000000  0.4525400000000  0.5129690000000 1.0
C      1  0.4560400000000  0.4696300000000  0.4883510000000 1.0
C      1  0.4072310000000  0.5524370000000  0.4745530000000 1.0
C      1  0.5518810000000  0.5659710000000  0.4551240000000 1.0
C      1  0.4406700000000  0.5379330000000  0.5132950000000 1.0
C      1  0.4840810000000  0.4340700000000  0.5549610000000 1.0
C      1  0.5718330000000  0.5180440000000  0.4487520000000 1.0
C      1  0.5716360000000  0.4227460000000  0.5306350000000 1.0
C      1  0.5167800000000  0.4723550000000  0.5950990000000 1.0
C      1  0.4818700000000  0.5139700000000  0.6170560000000 1.0
C      1  0.4698190000000  0.4118100000000  0.5105630000000 1.0
C      1  0.5503600000000  0.4156140000000  0.4953010000000 1.0
C      1  0.5312690000000  0.5273900000000  0.4969590000000 1.0
C      1  0.4231380000000  0.5107070000000  0.4362760000000 1.0
C      1  0.5727010000000  0.5524410000000  0.5350260000000 1.0
C      1  0.5233570000000  0.4640570000000  0.4143880000000 1.0
C      1  0.4318520000000  0.4294480000000  0.4835120000000 1.0
C      1  0.4559760000000  0.4991300000000  0.4063080000000 1.0
C      1  0.5118550000000  0.4281360000000  0.5649110000000 1.0
C      1  0.4728640000000  0.5908110000000  0.5350260000000 1.0
C      1  0.5268660000000  0.4174600000000  0.5450630000000 1.0
C      1  0.4516220000000  0.4070110000000  0.4873720000000 1.0
C      1  0.5538660000000  0.5088820000000  0.4265290000000 1.0
C      1  0.4130500000000  0.4689240000000  0.4555290000000 1.0
C      1  0.5045930000000  0.4873660000000  0.4716450000000 1.0
C      1  0.4510020000000  0.4417460000000  0.4481480000000 1.0
C      1  0.4632560000000  0.4233790000000  0.5370550000000 1.0
C      1  0.5844360000000  0.5026830000000  0.4970620000000 1.0
C      1  0.5574180000000  0.4602050000000  0.4470400000000 1.0
C      1  0.5346210000000  0.4954100000000  0.5978320000000 1.0
C      1  0.4364690000000  0.4858570000000  0.5626920000000 1.0
C      1  0.5193890000000  0.4974440000000  0.5483840000000 1.0
C      1  0.5357870000000  0.5231920000000  0.4083490000000 1.0
C      1  0.6054340000000  0.5250690000000  0.5072320000000 1.0
C      1  0.5433360000000  0.4835660000000  0.5439130000000 1.0
C      1  0.5738600000000  0.5020520000000  0.5706610000000 1.0
C      1  0.5061860000000  0.5168860000000  0.5108350000000 1.0
C      1  0.4961950000000  0.5902830000000  0.5443750000000 1.0
C      1  0.5249530000000  0.5003620000000  0.4564250000000 1.0
C      1  0.5725310000000  0.4465940000000  0.5497170000000 1.0
C      1  0.4900560000000  0.4789640000000  0.5843240000000 1.0
C      1  0.4651940000000  0.5384900000000  0.4955530000000 1.0
C      1  0.4576740000000  0.4490670000000  0.4199390000000 1.0
C      1  0.4148050000000  0.5185070000000  0.5138010000000 1.0
C      1  0.4682630000000  0.5922420000000  0.4632690000000 1.0
C      1  0.4498210000000  0.5477830000000  0.5416240000000 1.0
END
