TITL C-4164232-771-550 85.9108363300591 125000 -26023.1940005833 0 0 175 (C1) n - 1
REM
REM in /home/nfs/bkarasulu/CARBON/AIRSS/Generating-Clusters/ReaxFF-fromJPCA2015/Units_Real/with-SteepDescent/Only-C1/SD-CG/Try1-3A/FIRE-CG
REM
REM
REM
REM
REM
REM ./C.cell (11c1c37f851c82e70ff6c80c92926a4b)
REM
REM compiler GCC version 9.2.1 20190827 (Red Hat 9.2.1-1)
REM options -cpp -mtune=generic -march=x86-64 -g -O0 -fpre-include=/usr/include/finclude/math-vector-fortran.h
REM seed -1662266846 -2081482500 -1041637339 -566039530 1021598804 2112592295 443370735 -927823350 803825456 1843424425 1304486893 -1188337698 -287117635 1953836634 1775653185 1564099142 -367990790 -1448513803 -1780947996 1075904950 1652175481 -1859718642 1348090987 688107502 2075175480 -1216589372 -2024929873 -1010162939 266661055 -1362634261 -1147095101 156138716 682328918
REM
CELL 1.54180   50.00000   50.00000   50.00000   90.00000   90.00000   90.00000
LATT -1
SFAC C  
C      1  0.4035090000000  0.4722020000000  0.5319370000000 1.0
C      1  0.4837560000000  0.4430180000000  0.4695280000000 1.0
C      1  0.4944430000000  0.4923930000000  0.5507650000000 1.0
C      1  0.4707800000000  0.5945820000000  0.5659100000000 1.0
C      1  0.5432010000000  0.5810730000000  0.4698680000000 1.0
C      1  0.5070720000000  0.5538510000000  0.5917910000000 1.0
C      1  0.4763820000000  0.5212820000000  0.4329100000000 1.0
C      1  0.3864120000000  0.5143930000000  0.5070420000000 1.0
C      1  0.5842750000000  0.4214290000000  0.4675950000000 1.0
C      1  0.5769880000000  0.5507500000000  0.4550260000000 1.0
C      1  0.4638050000000  0.4542890000000  0.5771150000000 1.0
C      1  0.5349350000000  0.4467220000000  0.4639490000000 1.0
C      1  0.5182120000000  0.5273840000000  0.5989920000000 1.0
C      1  0.5380350000000  0.3912070000000  0.4707640000000 1.0
C      1  0.5050260000000  0.4994820000000  0.5034630000000 1.0
C      1  0.4791710000000  0.5157170000000  0.5577060000000 1.0
C      1  0.4746140000000  0.5434650000000  0.4537370000000 1.0
C      1  0.4743440000000  0.5085670000000  0.3807740000000 1.0
C      1  0.5727920000000  0.5773930000000  0.4671760000000 1.0
C      1  0.5102270000000  0.3957370000000  0.4595650000000 1.0
C      1  0.4276130000000  0.5237620000000  0.5686200000000 1.0
C      1  0.5692790000000  0.4162110000000  0.5048450000000 1.0
C      1  0.4972370000000  0.5062540000000  0.4652480000000 1.0
C      1  0.4562490000000  0.3981400000000  0.4913660000000 1.0
C      1  0.5721870000000  0.5106760000000  0.4278720000000 1.0
C      1  0.5133350000000  0.5729650000000  0.4359900000000 1.0
C      1  0.5413750000000  0.4522270000000  0.5956800000000 1.0
C      1  0.4867170000000  0.5558740000000  0.5241020000000 1.0
C      1  0.4342840000000  0.5007700000000  0.4935100000000 1.0
C      1  0.4828140000000  0.4991860000000  0.5207630000000 1.0
C      1  0.5069590000000  0.4807410000000  0.4094780000000 1.0
C      1  0.5904700000000  0.4722070000000  0.5399040000000 1.0
C      1  0.5261450000000  0.4049770000000  0.5164330000000 1.0
C      1  0.5201440000000  0.5111890000000  0.4490940000000 1.0
C      1  0.5600250000000  0.4394890000000  0.5159170000000 1.0
C      1  0.4999820000000  0.5984900000000  0.5660140000000 1.0
C      1  0.4145370000000  0.4691240000000  0.4359940000000 1.0
C      1  0.5006340000000  0.4556500000000  0.4242910000000 1.0
C      1  0.5938900000000  0.4973200000000  0.4441610000000 1.0
C      1  0.5167070000000  0.4441170000000  0.5782890000000 1.0
C      1  0.5956730000000  0.5497510000000  0.5387360000000 1.0
C      1  0.5309050000000  0.5555780000000  0.4761240000000 1.0
C      1  0.4918760000000  0.4301720000000  0.4919290000000 1.0
C      1  0.5904680000000  0.5212650000000  0.5466160000000 1.0
C      1  0.4094280000000  0.5550310000000  0.5303950000000 1.0
C      1  0.4894050000000  0.5532080000000  0.4056450000000 1.0
C      1  0.5577940000000  0.5442300000000  0.5194860000000 1.0
C      1  0.4694580000000  0.4758870000000  0.4401660000000 1.0
C      1  0.5145650000000  0.5380320000000  0.4102840000000 1.0
C      1  0.5272130000000  0.4687170000000  0.6154460000000 1.0
C      1  0.5096670000000  0.6155140000000  0.5434900000000 1.0
C      1  0.4768980000000  0.3857100000000  0.5045650000000 1.0
C      1  0.4485170000000  0.5848700000000  0.4687600000000 1.0
C      1  0.4598040000000  0.4273290000000  0.5648850000000 1.0
C      1  0.5060130000000  0.4571900000000  0.4541370000000 1.0
C      1  0.3994240000000  0.5280290000000  0.5294830000000 1.0
C      1  0.4339930000000  0.5297100000000  0.4852440000000 1.0
C      1  0.5048250000000  0.5568950000000  0.4622930000000 1.0
C      1  0.5993880000000  0.4697120000000  0.4505940000000 1.0
C      1  0.5220880000000  0.5016260000000  0.5541250000000 1.0
C      1  0.5565210000000  0.5901690000000  0.5403790000000 1.0
C      1  0.3962490000000  0.4717400000000  0.4820510000000 1.0
C      1  0.5230510000000  0.5950450000000  0.4540700000000 1.0
C      1  0.5441520000000  0.4996890000000  0.4565340000000 1.0
C      1  0.4588600000000  0.5686790000000  0.4423820000000 1.0
C      1  0.4997060000000  0.3817870000000  0.4835040000000 1.0
C      1  0.5831810000000  0.5154180000000  0.5738330000000 1.0
C      1  0.5361500000000  0.5506950000000  0.4236300000000 1.0
C      1  0.5326700000000  0.4492920000000  0.5098340000000 1.0
C      1  0.4515120000000  0.5336210000000  0.5328900000000 1.0
C      1  0.6166950000000  0.4675540000000  0.4744140000000 1.0
C      1  0.5618220000000  0.4933590000000  0.5819950000000 1.0
C      1  0.4378290000000  0.5325220000000  0.4104490000000 1.0
C      1  0.4546230000000  0.6014010000000  0.5419220000000 1.0
C      1  0.4199680000000  0.4246920000000  0.5273290000000 1.0
C      1  0.4908110000000  0.4582060000000  0.5879810000000 1.0
C      1  0.3952120000000  0.5153960000000  0.4529680000000 1.0
C      1  0.4621280000000  0.4635880000000  0.5359200000000 1.0
C      1  0.5780100000000  0.4482890000000  0.4540940000000 1.0
C      1  0.5567650000000  0.5520370000000  0.5526290000000 1.0
C      1  0.4776320000000  0.4531620000000  0.4960750000000 1.0
C      1  0.5774040000000  0.5291840000000  0.5032360000000 1.0
C      1  0.4246550000000  0.5750930000000  0.4827040000000 1.0
C      1  0.4216980000000  0.5752730000000  0.5119900000000 1.0
C      1  0.4849860000000  0.6153990000000  0.4922600000000 1.0
C      1  0.4215550000000  0.5508220000000  0.5575070000000 1.0
C      1  0.5932500000000  0.4268630000000  0.4954760000000 1.0
C      1  0.5294830000000  0.5147580000000  0.5116990000000 1.0
C      1  0.5367290000000  0.6093720000000  0.5386700000000 1.0
C      1  0.3855640000000  0.5181350000000  0.4790080000000 1.0
C      1  0.5122040000000  0.4300480000000  0.4184440000000 1.0
C      1  0.4994140000000  0.6046080000000  0.4686930000000 1.0
C      1  0.4523990000000  0.4773710000000  0.3980140000000 1.0
C      1  0.5613290000000  0.5389260000000  0.4326220000000 1.0
C      1  0.5736910000000  0.4970940000000  0.5348000000000 1.0
C      1  0.4680040000000  0.5313330000000  0.4031610000000 1.0
C      1  0.5462020000000  0.4866000000000  0.5546410000000 1.0
C      1  0.4926760000000  0.5197670000000  0.4881620000000 1.0
C      1  0.6020170000000  0.5083540000000  0.4703360000000 1.0
C      1  0.5978500000000  0.5646310000000  0.5140060000000 1.0
C      1  0.5257960000000  0.3826020000000  0.4966290000000 1.0
C      1  0.4600140000000  0.5407350000000  0.4789840000000 1.0
C      1  0.5557140000000  0.4376690000000  0.5450940000000 1.0
C      1  0.4100470000000  0.5090370000000  0.5523150000000 1.0
C      1  0.5779360000000  0.4537190000000  0.5590840000000 1.0
C      1  0.4302840000000  0.5061120000000  0.4208580000000 1.0
C      1  0.4796100000000  0.4819630000000  0.3898800000000 1.0
C      1  0.4641450000000  0.5672370000000  0.5741450000000 1.0
C      1  0.4904560000000  0.4643880000000  0.5416720000000 1.0
C      1  0.4783020000000  0.5499920000000  0.5928450000000 1.0
C      1  0.5000780000000  0.4791430000000  0.6060480000000 1.0
C      1  0.5507630000000  0.4903070000000  0.4849300000000 1.0
C      1  0.5662800000000  0.4634020000000  0.5837980000000 1.0
C      1  0.4130950000000  0.5480760000000  0.4736780000000 1.0
C      1  0.4037240000000  0.4890000000000  0.5054420000000 1.0
C      1  0.5696020000000  0.5009590000000  0.5051630000000 1.0
C      1  0.4464420000000  0.4064950000000  0.4500130000000 1.0
C      1  0.4305640000000  0.4346080000000  0.4991230000000 1.0
C      1  0.5630610000000  0.5354060000000  0.5792860000000 1.0
C      1  0.4586750000000  0.6010620000000  0.4897140000000 1.0
C      1  0.3983740000000  0.4845020000000  0.4550270000000 1.0
C      1  0.4022860000000  0.4461050000000  0.4946100000000 1.0
C      1  0.5332380000000  0.4132090000000  0.5434350000000 1.0
C      1  0.5379210000000  0.5723760000000  0.5557900000000 1.0
C      1  0.6122610000000  0.4496150000000  0.4982580000000 1.0
C      1  0.4565080000000  0.5105670000000  0.5169230000000 1.0
C      1  0.5357220000000  0.4726870000000  0.4110270000000 1.0
C      1  0.6136340000000  0.4907510000000  0.4914630000000 1.0
C      1  0.4808000000000  0.3985580000000  0.5300520000000 1.0
C      1  0.5879890000000  0.5325970000000  0.4753230000000 1.0
C      1  0.4197330000000  0.4812100000000  0.5539350000000 1.0
C      1  0.4844980000000  0.4107170000000  0.5541660000000 1.0
C      1  0.4953350000000  0.5368790000000  0.5449210000000 1.0
C      1  0.4982150000000  0.4114020000000  0.4369410000000 1.0
C      1  0.5164750000000  0.4580830000000  0.5322900000000 1.0
C      1  0.4486890000000  0.4756870000000  0.5613340000000 1.0
C      1  0.5126430000000  0.4186210000000  0.5619710000000 1.0
C      1  0.5553520000000  0.4632950000000  0.4751570000000 1.0
C      1  0.4692550000000  0.4192730000000  0.4370720000000 1.0
C      1  0.5048450000000  0.5122630000000  0.4240940000000 1.0
C      1  0.5349040000000  0.5426720000000  0.5019770000000 1.0
C      1  0.5388930000000  0.4437790000000  0.4152110000000 1.0
C      1  0.5617270000000  0.4064410000000  0.4782600000000 1.0
C      1  0.5163050000000  0.5761130000000  0.5747940000000 1.0
C      1  0.4958560000000  0.5085970000000  0.6042180000000 1.0
C      1  0.4337230000000  0.4613040000000  0.4570030000000 1.0
C      1  0.4707420000000  0.5215590000000  0.5971340000000 1.0
C      1  0.4844550000000  0.5726630000000  0.4255930000000 1.0
C      1  0.4586420000000  0.4482990000000  0.4455490000000 1.0
C      1  0.5514900000000  0.4900670000000  0.4295030000000 1.0
C      1  0.5002360000000  0.5780960000000  0.5101520000000 1.0
C      1  0.3982080000000  0.4447690000000  0.5236980000000 1.0
C      1  0.5211040000000  0.5250990000000  0.5386660000000 1.0
C      1  0.5873660000000  0.5731800000000  0.4907820000000 1.0
C      1  0.4392920000000  0.4254100000000  0.5470520000000 1.0
C      1  0.4524060000000  0.5006360000000  0.4430550000000 1.0
C      1  0.4499670000000  0.5561320000000  0.5503710000000 1.0
C      1  0.4902710000000  0.4806600000000  0.4577580000000 1.0
C      1  0.4533180000000  0.4533460000000  0.5104060000000 1.0
C      1  0.4423280000000  0.5959720000000  0.5163160000000 1.0
C      1  0.4544690000000  0.5102150000000  0.5739420000000 1.0
C      1  0.5192840000000  0.4268960000000  0.4966760000000 1.0
C      1  0.5516490000000  0.4391060000000  0.4408720000000 1.0
C      1  0.4789200000000  0.5406940000000  0.4998740000000 1.0
C      1  0.4372870000000  0.4095560000000  0.4792420000000 1.0
C      1  0.5353260000000  0.4588300000000  0.5531880000000 1.0
C      1  0.4421960000000  0.4869860000000  0.4687140000000 1.0
C      1  0.5456850000000  0.5190630000000  0.5943860000000 1.0
C      1  0.5782970000000  0.5707960000000  0.5490550000000 1.0
C      1  0.5012100000000  0.6068460000000  0.5158060000000 1.0
C      1  0.4115140000000  0.5410730000000  0.4453610000000 1.0
C      1  0.4263230000000  0.4795770000000  0.4097500000000 1.0
C      1  0.4968810000000  0.5781830000000  0.4810960000000 1.0
C      1  0.4337340000000  0.5521340000000  0.4307170000000 1.0
C      1  0.6070020000000  0.4722080000000  0.5154330000000 1.0
END
