TITL C-4164241-3639-294 11.6854546560643 125000 -15659.2054476889 0 0 106 (C1) n - 1
REM
REM in /home/nfs/bkarasulu/CARBON/AIRSS/Generating-Clusters/ReaxFF-fromJPCA2015/Units_Real/with-SteepDescent/Only-C1/SD-CG/Try1-3A/FIRE-CG
REM
REM
REM
REM
REM
REM ./C.cell (11c1c37f851c82e70ff6c80c92926a4b)
REM
REM compiler GCC version 9.2.1 20190827 (Red Hat 9.2.1-1)
REM options -cpp -mtune=generic -march=x86-64 -g -O0 -fpre-include=/usr/include/finclude/math-vector-fortran.h
REM seed -306344645 -247797196 382026150 -513907788 -1051422399 -1373009798 -1774653056 -1879613736 -1546091465 -253975273 -362507373 -1565828153 -193317937 499717573 -1732245548 1635130086 580870297 -320290881 622011830 1761556297 1133094820 -190012933 -2121369003 421444529 -1791058684 -1529823904 1983264705 1522960686 1736462553 1434087905 -1232106973 -420803895 741979442
REM
CELL 1.54180   50.00000   50.00000   50.00000   90.00000   90.00000   90.00000
LATT -1
SFAC C  
C      1  0.5690780000000  0.5236360000000  0.4367090000000 1.0
C      1  0.5826740000000  0.4811350000000  0.4653560000000 1.0
C      1  0.5242870000000  0.4176630000000  0.5106450000000 1.0
C      1  0.5606200000000  0.5462600000000  0.4525480000000 1.0
C      1  0.5295160000000  0.5848200000000  0.5149780000000 1.0
C      1  0.5263600000000  0.4950490000000  0.4306510000000 1.0
C      1  0.5347050000000  0.4659670000000  0.5203640000000 1.0
C      1  0.5006320000000  0.5495080000000  0.5681700000000 1.0
C      1  0.4933610000000  0.4851420000000  0.4876160000000 1.0
C      1  0.4482780000000  0.4146030000000  0.5194520000000 1.0
C      1  0.4527170000000  0.4124630000000  0.4905340000000 1.0
C      1  0.4780660000000  0.5334750000000  0.5080430000000 1.0
C      1  0.4433620000000  0.4728300000000  0.5668030000000 1.0
C      1  0.5449610000000  0.5148120000000  0.4203650000000 1.0
C      1  0.5254900000000  0.5359100000000  0.4201760000000 1.0
C      1  0.5529260000000  0.4134170000000  0.5002380000000 1.0
C      1  0.4292480000000  0.4595600000000  0.5448100000000 1.0
C      1  0.5218610000000  0.4898460000000  0.5272980000000 1.0
C      1  0.5018450000000  0.5938300000000  0.5181190000000 1.0
C      1  0.4796710000000  0.5067590000000  0.4198230000000 1.0
C      1  0.4511370000000  0.5569100000000  0.4670010000000 1.0
C      1  0.5105780000000  0.5883840000000  0.4727650000000 1.0
C      1  0.5962590000000  0.4488410000000  0.5055370000000 1.0
C      1  0.5492460000000  0.5155630000000  0.5707170000000 1.0
C      1  0.4484780000000  0.4826920000000  0.4904860000000 1.0
C      1  0.4653330000000  0.5146740000000  0.5670480000000 1.0
C      1  0.5524200000000  0.5448820000000  0.5570200000000 1.0
C      1  0.4228670000000  0.4816590000000  0.4516180000000 1.0
C      1  0.5626110000000  0.4889050000000  0.5658990000000 1.0
C      1  0.5306130000000  0.5544610000000  0.5201840000000 1.0
C      1  0.5329660000000  0.4907950000000  0.4612700000000 1.0
C      1  0.4154510000000  0.5083670000000  0.4553100000000 1.0
C      1  0.5362510000000  0.5135300000000  0.4852470000000 1.0
C      1  0.4214650000000  0.5076840000000  0.5444070000000 1.0
C      1  0.5133290000000  0.5422130000000  0.5430740000000 1.0
C      1  0.5784580000000  0.4278780000000  0.5034200000000 1.0
C      1  0.5134310000000  0.4710390000000  0.4734030000000 1.0
C      1  0.5439690000000  0.4646230000000  0.5707330000000 1.0
C      1  0.5566670000000  0.5739890000000  0.4843980000000 1.0
C      1  0.4940070000000  0.4590250000000  0.4268160000000 1.0
C      1  0.4071990000000  0.5294430000000  0.4717070000000 1.0
C      1  0.4251200000000  0.5476260000000  0.4599170000000 1.0
C      1  0.4740360000000  0.5471580000000  0.4224030000000 1.0
C      1  0.4532780000000  0.4430520000000  0.4459940000000 1.0
C      1  0.5412020000000  0.5072210000000  0.5135030000000 1.0
C      1  0.4983710000000  0.4909410000000  0.5433160000000 1.0
C      1  0.5590360000000  0.5471840000000  0.5286080000000 1.0
C      1  0.5890840000000  0.5048130000000  0.4488880000000 1.0
C      1  0.4732140000000  0.4691560000000  0.5032550000000 1.0
C      1  0.5267960000000  0.5022230000000  0.5810460000000 1.0
C      1  0.4634100000000  0.5707990000000  0.5265830000000 1.0
C      1  0.4513480000000  0.5533630000000  0.5620960000000 1.0
C      1  0.5583680000000  0.4637610000000  0.5055390000000 1.0
C      1  0.5259410000000  0.5384610000000  0.4906570000000 1.0
C      1  0.4599870000000  0.5275430000000  0.4700870000000 1.0
C      1  0.4944730000000  0.5296730000000  0.4146610000000 1.0
C      1  0.5122750000000  0.5672430000000  0.4529810000000 1.0
C      1  0.5534670000000  0.4195240000000  0.4731000000000 1.0
C      1  0.4392190000000  0.5015600000000  0.5671210000000 1.0
C      1  0.5355350000000  0.5555300000000  0.4390390000000 1.0
C      1  0.4779890000000  0.5099690000000  0.5408430000000 1.0
C      1  0.5417670000000  0.4410710000000  0.5524600000000 1.0
C      1  0.4811510000000  0.4406540000000  0.4430880000000 1.0
C      1  0.5195970000000  0.4752280000000  0.5847120000000 1.0
C      1  0.4924430000000  0.4215610000000  0.5479670000000 1.0
C      1  0.4776280000000  0.4441990000000  0.5140060000000 1.0
C      1  0.5176120000000  0.4422210000000  0.4708140000000 1.0
C      1  0.4883810000000  0.5206870000000  0.4663530000000 1.0
C      1  0.4725590000000  0.5416490000000  0.5765340000000 1.0
C      1  0.4557880000000  0.5643820000000  0.4356950000000 1.0
C      1  0.5459890000000  0.4537970000000  0.4350730000000 1.0
C      1  0.5583440000000  0.4543120000000  0.5330080000000 1.0
C      1  0.5062790000000  0.5435790000000  0.4694970000000 1.0
C      1  0.4446000000000  0.4350790000000  0.5403290000000 1.0
C      1  0.5386460000000  0.4305530000000  0.4520760000000 1.0
C      1  0.4886810000000  0.5331650000000  0.5334610000000 1.0
C      1  0.4898410000000  0.5850410000000  0.4925530000000 1.0
C      1  0.5066720000000  0.5773630000000  0.5628190000000 1.0
C      1  0.4215720000000  0.4744730000000  0.4813690000000 1.0
C      1  0.5365360000000  0.5932130000000  0.4879410000000 1.0
C      1  0.4558890000000  0.4346580000000  0.4740330000000 1.0
C      1  0.5571730000000  0.4729930000000  0.4538460000000 1.0
C      1  0.5201210000000  0.4260260000000  0.5386210000000 1.0
C      1  0.4785430000000  0.4178370000000  0.4770580000000 1.0
C      1  0.4920030000000  0.5135230000000  0.4936710000000 1.0
C      1  0.5708190000000  0.5506960000000  0.4809500000000 1.0
C      1  0.4709560000000  0.4808130000000  0.4250200000000 1.0
C      1  0.5366310000000  0.5690630000000  0.5633590000000 1.0
C      1  0.4154020000000  0.4817030000000  0.5308360000000 1.0
C      1  0.5709480000000  0.5053440000000  0.5104730000000 1.0
C      1  0.4231160000000  0.5313300000000  0.5281350000000 1.0
C      1  0.4781350000000  0.4167480000000  0.5223500000000 1.0
C      1  0.4085350000000  0.4883870000000  0.5035040000000 1.0
C      1  0.5739340000000  0.5339720000000  0.5071030000000 1.0
C      1  0.4947470000000  0.4770910000000  0.5692290000000 1.0
C      1  0.4866330000000  0.5835530000000  0.5404030000000 1.0
C      1  0.5226870000000  0.4671310000000  0.4232010000000 1.0
C      1  0.4697720000000  0.4612270000000  0.5723540000000 1.0
C      1  0.4177880000000  0.5185180000000  0.5008030000000 1.0
C      1  0.5819390000000  0.4800470000000  0.4966330000000 1.0
C      1  0.4459830000000  0.4700570000000  0.4368560000000 1.0
C      1  0.4385500000000  0.5553410000000  0.5370740000000 1.0
C      1  0.4706910000000  0.5624600000000  0.4987790000000 1.0
C      1  0.4460080000000  0.5116040000000  0.4894420000000 1.0
C      1  0.4687080000000  0.4364590000000  0.5575900000000 1.0
C      1  0.5056570000000  0.4221550000000  0.4885220000000 1.0
END
