TITL C-4164236-1577-90 12.5170540854692 125000 -14001.9442073645 0 0 94 (C1) n - 1
REM
REM in /home/nfs/bkarasulu/CARBON/AIRSS/Generating-Clusters/ReaxFF-fromJPCA2015/Units_Real/with-SteepDescent/Only-C1/SD-CG/Try1-3A/FIRE-CG
REM
REM
REM
REM
REM
REM ./C.cell (11c1c37f851c82e70ff6c80c92926a4b)
REM
REM compiler GCC version 9.2.1 20190827 (Red Hat 9.2.1-1)
REM options -cpp -mtune=generic -march=x86-64 -g -O0 -fpre-include=/usr/include/finclude/math-vector-fortran.h
REM seed 477114024 44930647 1501544676 -832882130 884401439 -261577699 -514901088 -1223665375 356782932 1192414215 1513368253 1705546753 -1500725777 -1262476911 -782539966 2105011854 1289691252 660061633 -650853100 -708033460 754501701 1745886047 325606225 -1381401075 338685757 -558986176 -752212742 -1588915094 -984274941 -509613210 190438568 -798919871 475556300
REM
CELL 1.54180   50.00000   50.00000   50.00000   90.00000   90.00000   90.00000
LATT -1
SFAC C  
C      1  0.4595050000000  0.4854330000000  0.5128600000000 1.0
C      1  0.4722900000000  0.5052090000000  0.4935470000000 1.0
C      1  0.4951330000000  0.4590630000000  0.4278190000000 1.0
C      1  0.5090020000000  0.5433930000000  0.4620180000000 1.0
C      1  0.5807520000000  0.4762310000000  0.4999860000000 1.0
C      1  0.4722990000000  0.5804520000000  0.4842430000000 1.0
C      1  0.4667800000000  0.4698130000000  0.4261820000000 1.0
C      1  0.4537140000000  0.5151360000000  0.5685150000000 1.0
C      1  0.5646700000000  0.5077440000000  0.5360790000000 1.0
C      1  0.5676780000000  0.5487200000000  0.5267630000000 1.0
C      1  0.4309310000000  0.4555870000000  0.4669990000000 1.0
C      1  0.5163430000000  0.5188510000000  0.4766400000000 1.0
C      1  0.5271380000000  0.4321220000000  0.5225630000000 1.0
C      1  0.5075460000000  0.4801120000000  0.5044750000000 1.0
C      1  0.4986190000000  0.5362600000000  0.5880750000000 1.0
C      1  0.4891520000000  0.4389940000000  0.5572740000000 1.0
C      1  0.4903420000000  0.5637320000000  0.5847760000000 1.0
C      1  0.5451570000000  0.5083570000000  0.5127180000000 1.0
C      1  0.4822570000000  0.5323340000000  0.5352440000000 1.0
C      1  0.4686140000000  0.4223860000000  0.5443740000000 1.0
C      1  0.5276880000000  0.5430790000000  0.5863290000000 1.0
C      1  0.4497980000000  0.4416700000000  0.5320140000000 1.0
C      1  0.4561940000000  0.5358410000000  0.5489550000000 1.0
C      1  0.5043020000000  0.5837320000000  0.4583880000000 1.0
C      1  0.4775530000000  0.4483580000000  0.4715630000000 1.0
C      1  0.4130130000000  0.5051130000000  0.4766010000000 1.0
C      1  0.5243470000000  0.4786890000000  0.5797170000000 1.0
C      1  0.5305980000000  0.4982170000000  0.4176710000000 1.0
C      1  0.5352720000000  0.4872150000000  0.4959420000000 1.0
C      1  0.4470590000000  0.4600000000000  0.4441320000000 1.0
C      1  0.4624770000000  0.4993720000000  0.4284890000000 1.0
C      1  0.4201700000000  0.4781050000000  0.4839620000000 1.0
C      1  0.4722360000000  0.5563280000000  0.4305990000000 1.0
C      1  0.5648890000000  0.4864210000000  0.5569110000000 1.0
C      1  0.4173910000000  0.5186580000000  0.4501350000000 1.0
C      1  0.5271840000000  0.5274000000000  0.5023760000000 1.0
C      1  0.4942030000000  0.4395780000000  0.4486800000000 1.0
C      1  0.4814450000000  0.5529740000000  0.4764430000000 1.0
C      1  0.5442400000000  0.5673520000000  0.5264480000000 1.0
C      1  0.5536850000000  0.5391250000000  0.4392850000000 1.0
C      1  0.5660530000000  0.5331020000000  0.5508250000000 1.0
C      1  0.5621300000000  0.4832870000000  0.4495090000000 1.0
C      1  0.5210370000000  0.4717280000000  0.4185150000000 1.0
C      1  0.4606640000000  0.4688520000000  0.5371480000000 1.0
C      1  0.4944720000000  0.4549850000000  0.4948140000000 1.0
C      1  0.5455070000000  0.4635450000000  0.4329030000000 1.0
C      1  0.5150400000000  0.4199080000000  0.4617010000000 1.0
C      1  0.5205740000000  0.5536050000000  0.5146620000000 1.0
C      1  0.5771160000000  0.5337660000000  0.5007370000000 1.0
C      1  0.4477500000000  0.5719380000000  0.4993070000000 1.0
C      1  0.5855840000000  0.5048180000000  0.5005090000000 1.0
C      1  0.4697600000000  0.4075030000000  0.5186300000000 1.0
C      1  0.5682120000000  0.5451270000000  0.4766570000000 1.0
C      1  0.5053370000000  0.4834870000000  0.5331650000000 1.0
C      1  0.4272970000000  0.5451090000000  0.4563720000000 1.0
C      1  0.4925420000000  0.5566320000000  0.5239670000000 1.0
C      1  0.4510210000000  0.4371360000000  0.4793010000000 1.0
C      1  0.5482130000000  0.5264520000000  0.5741460000000 1.0
C      1  0.5315170000000  0.4574130000000  0.4585930000000 1.0
C      1  0.5615930000000  0.4559340000000  0.5169280000000 1.0
C      1  0.4212970000000  0.5085430000000  0.5229120000000 1.0
C      1  0.4498310000000  0.4258670000000  0.5066060000000 1.0
C      1  0.5267190000000  0.5686960000000  0.4644030000000 1.0
C      1  0.5316780000000  0.5715150000000  0.5510140000000 1.0
C      1  0.4965070000000  0.5078350000000  0.5445180000000 1.0
C      1  0.4648040000000  0.5328670000000  0.4883680000000 1.0
C      1  0.4924190000000  0.5367140000000  0.4372890000000 1.0
C      1  0.4441850000000  0.5455420000000  0.4325030000000 1.0
C      1  0.5133190000000  0.4523270000000  0.5440040000000 1.0
C      1  0.4804730000000  0.5797890000000  0.4449010000000 1.0
C      1  0.5424160000000  0.5196000000000  0.4265530000000 1.0
C      1  0.4837800000000  0.5099810000000  0.5742260000000 1.0
C      1  0.5211740000000  0.5705060000000  0.5764000000000 1.0
C      1  0.5383820000000  0.4337610000000  0.4738140000000 1.0
C      1  0.5551680000000  0.5610730000000  0.4573110000000 1.0
C      1  0.5589430000000  0.4602180000000  0.5457180000000 1.0
C      1  0.4718540000000  0.5758990000000  0.5144200000000 1.0
C      1  0.5782200000000  0.4777340000000  0.4720830000000 1.0
C      1  0.5477770000000  0.4358800000000  0.5022250000000 1.0
C      1  0.4302200000000  0.4822890000000  0.5112570000000 1.0
C      1  0.4173010000000  0.5235880000000  0.4987960000000 1.0
C      1  0.4355820000000  0.5458290000000  0.4875810000000 1.0
C      1  0.5352780000000  0.4569260000000  0.5635120000000 1.0
C      1  0.5035250000000  0.3987170000000  0.4789730000000 1.0
C      1  0.4927490000000  0.5020560000000  0.4721720000000 1.0
C      1  0.4848380000000  0.5102150000000  0.4441270000000 1.0
C      1  0.4385160000000  0.5165070000000  0.4284840000000 1.0
C      1  0.5029140000000  0.4335660000000  0.5096680000000 1.0
C      1  0.4947910000000  0.4824570000000  0.5789150000000 1.0
C      1  0.5374180000000  0.4852240000000  0.4671860000000 1.0
C      1  0.4976300000000  0.4058950000000  0.5076350000000 1.0
C      1  0.5466600000000  0.4976100000000  0.5773390000000 1.0
C      1  0.4324450000000  0.5183040000000  0.5486920000000 1.0
C      1  0.4781050000000  0.4649900000000  0.5622190000000 1.0
END
