TITL C-4164242-3624-156 62.7851363671337 125000 -28746.3354826017 0 0 195 (C1) n - 1
REM
REM in /home/nfs/bkarasulu/CARBON/AIRSS/Generating-Clusters/ReaxFF-fromJPCA2015/Units_Real/with-SteepDescent/Only-C1/SD-CG/Try1-3A/FIRE-CG
REM
REM
REM
REM
REM
REM ./C.cell (11c1c37f851c82e70ff6c80c92926a4b)
REM
REM compiler GCC version 9.2.1 20190827 (Red Hat 9.2.1-1)
REM options -cpp -mtune=generic -march=x86-64 -g -O0 -fpre-include=/usr/include/finclude/math-vector-fortran.h
REM seed -189354428 664440293 926408486 -1146918093 2000813192 -1501039807 658958495 -1009057573 -558238037 -1194735202 108264610 1954936740 1280588266 2066660786 -865189209 -1335969992 -1668001062 304131805 520537630 1788438786 1435815057 -1986824733 12340226 -1285284296 -807944628 1131413841 465719019 1882417312 -931865260 1516068046 -1407544755 -1414926359 -773407618
REM
CELL 1.54180   50.00000   50.00000   50.00000   90.00000   90.00000   90.00000
LATT -1
SFAC C  
C      1  0.4949460000000  0.4076540000000  0.4770920000000 1.0
C      1  0.4712850000000  0.6091980000000  0.5184020000000 1.0
C      1  0.5963230000000  0.4510060000000  0.4897350000000 1.0
C      1  0.5716910000000  0.5351790000000  0.4400830000000 1.0
C      1  0.3985860000000  0.5209520000000  0.4364290000000 1.0
C      1  0.4923210000000  0.5522980000000  0.5978560000000 1.0
C      1  0.4848520000000  0.4935290000000  0.4663820000000 1.0
C      1  0.5268550000000  0.5017840000000  0.4903790000000 1.0
C      1  0.5490710000000  0.4861830000000  0.4460660000000 1.0
C      1  0.5488820000000  0.5605470000000  0.5538740000000 1.0
C      1  0.5835990000000  0.4440090000000  0.5356900000000 1.0
C      1  0.4367100000000  0.5034790000000  0.4059590000000 1.0
C      1  0.4593450000000  0.4292470000000  0.4224440000000 1.0
C      1  0.4308800000000  0.5905890000000  0.5313910000000 1.0
C      1  0.5261660000000  0.4758400000000  0.5054010000000 1.0
C      1  0.4248230000000  0.4396970000000  0.5524250000000 1.0
C      1  0.4744950000000  0.5487750000000  0.4599760000000 1.0
C      1  0.3913690000000  0.5417690000000  0.4541550000000 1.0
C      1  0.4517010000000  0.3973800000000  0.5335960000000 1.0
C      1  0.4144170000000  0.5161940000000  0.5891950000000 1.0
C      1  0.5451580000000  0.4528120000000  0.4122620000000 1.0
C      1  0.4733440000000  0.5601950000000  0.5071140000000 1.0
C      1  0.4747970000000  0.4499390000000  0.4824440000000 1.0
C      1  0.5515590000000  0.5137380000000  0.5292370000000 1.0
C      1  0.4174910000000  0.5432960000000  0.5169820000000 1.0
C      1  0.5022550000000  0.4683730000000  0.4546760000000 1.0
C      1  0.5034370000000  0.4315810000000  0.5780570000000 1.0
C      1  0.4487710000000  0.4005730000000  0.4771410000000 1.0
C      1  0.5119300000000  0.3872920000000  0.4694530000000 1.0
C      1  0.5699230000000  0.4257800000000  0.4501500000000 1.0
C      1  0.5318720000000  0.4394690000000  0.5789970000000 1.0
C      1  0.4432710000000  0.5141340000000  0.4558000000000 1.0
C      1  0.4108460000000  0.4437840000000  0.4345210000000 1.0
C      1  0.5376220000000  0.5720950000000  0.4185930000000 1.0
C      1  0.4809130000000  0.6159150000000  0.4703120000000 1.0
C      1  0.4436310000000  0.6038830000000  0.5094330000000 1.0
C      1  0.4174880000000  0.4695550000000  0.4213890000000 1.0
C      1  0.4859160000000  0.5825770000000  0.5181780000000 1.0
C      1  0.5053070000000  0.5080040000000  0.5286480000000 1.0
C      1  0.4476180000000  0.4510080000000  0.5919010000000 1.0
C      1  0.5299340000000  0.5962350000000  0.5249230000000 1.0
C      1  0.4452110000000  0.4302160000000  0.5705570000000 1.0
C      1  0.4579430000000  0.5507090000000  0.4842640000000 1.0
C      1  0.5087970000000  0.5976430000000  0.5044330000000 1.0
C      1  0.5258990000000  0.3779000000000  0.4941160000000 1.0
C      1  0.5955120000000  0.4696100000000  0.5379810000000 1.0
C      1  0.4498250000000  0.4453770000000  0.4673800000000 1.0
C      1  0.4966050000000  0.5519150000000  0.3896920000000 1.0
C      1  0.5444740000000  0.5328540000000  0.3999860000000 1.0
C      1  0.3936010000000  0.4987660000000  0.5215640000000 1.0
C      1  0.6070200000000  0.5355570000000  0.5121790000000 1.0
C      1  0.5607660000000  0.5119670000000  0.6064810000000 1.0
C      1  0.5958040000000  0.4561390000000  0.4358620000000 1.0
C      1  0.5417730000000  0.4634940000000  0.5933460000000 1.0
C      1  0.5041900000000  0.4858320000000  0.3972410000000 1.0
C      1  0.4460260000000  0.5751000000000  0.5819190000000 1.0
C      1  0.4394220000000  0.4707000000000  0.4672530000000 1.0
C      1  0.4705900000000  0.6059870000000  0.5512490000000 1.0
C      1  0.5696930000000  0.4733820000000  0.5845780000000 1.0
C      1  0.5536620000000  0.3883540000000  0.4855910000000 1.0
C      1  0.3977360000000  0.4539340000000  0.4818920000000 1.0
C      1  0.5947290000000  0.5561250000000  0.5284780000000 1.0
C      1  0.4644340000000  0.4786250000000  0.4829820000000 1.0
C      1  0.5754410000000  0.4945990000000  0.6011780000000 1.0
C      1  0.5032690000000  0.4452170000000  0.4714890000000 1.0
C      1  0.5521690000000  0.4050590000000  0.4578290000000 1.0
C      1  0.5402810000000  0.4509750000000  0.5555090000000 1.0
C      1  0.4382290000000  0.5965020000000  0.4825020000000 1.0
C      1  0.4848130000000  0.5561720000000  0.5485640000000 1.0
C      1  0.4882980000000  0.4544490000000  0.5798510000000 1.0
C      1  0.5508340000000  0.4762790000000  0.3956540000000 1.0
C      1  0.4457600000000  0.4849110000000  0.5056090000000 1.0
C      1  0.4950060000000  0.4586390000000  0.4045570000000 1.0
C      1  0.4630240000000  0.4109070000000  0.5567620000000 1.0
C      1  0.4654650000000  0.3885280000000  0.5118650000000 1.0
C      1  0.5008730000000  0.5674280000000  0.5706870000000 1.0
C      1  0.4182020000000  0.5441940000000  0.5820860000000 1.0
C      1  0.4471090000000  0.5907930000000  0.5568970000000 1.0
C      1  0.4656400000000  0.5627550000000  0.5992390000000 1.0
C      1  0.5672390000000  0.3712440000000  0.4985500000000 1.0
C      1  0.5239580000000  0.6022500000000  0.4528710000000 1.0
C      1  0.4737820000000  0.4003170000000  0.4613920000000 1.0
C      1  0.5790960000000  0.5753020000000  0.5132030000000 1.0
C      1  0.4752910000000  0.4672480000000  0.5583760000000 1.0
C      1  0.5223630000000  0.5578640000000  0.4702270000000 1.0
C      1  0.5405340000000  0.5480400000000  0.5082670000000 1.0
C      1  0.5261120000000  0.4017060000000  0.4476800000000 1.0
C      1  0.5954820000000  0.5138920000000  0.5563680000000 1.0
C      1  0.5596930000000  0.5562340000000  0.5981230000000 1.0
C      1  0.4353400000000  0.5482620000000  0.4179100000000 1.0
C      1  0.5282050000000  0.5752530000000  0.5664370000000 1.0
C      1  0.4348270000000  0.5347770000000  0.4941040000000 1.0
C      1  0.4348550000000  0.5083490000000  0.4832470000000 1.0
C      1  0.5069730000000  0.5030550000000  0.4206420000000 1.0
C      1  0.5491670000000  0.5729420000000  0.5229420000000 1.0
C      1  0.5494790000000  0.5056240000000  0.3920470000000 1.0
C      1  0.4240520000000  0.4390500000000  0.5225720000000 1.0
C      1  0.5994640000000  0.5117520000000  0.5262410000000 1.0
C      1  0.4984200000000  0.6106270000000  0.4524340000000 1.0
C      1  0.4795570000000  0.5156960000000  0.5249430000000 1.0
C      1  0.4915450000000  0.4089480000000  0.5635160000000 1.0
C      1  0.6034600000000  0.4800620000000  0.4476080000000 1.0
C      1  0.5110160000000  0.4802240000000  0.5280610000000 1.0
C      1  0.5570790000000  0.4719120000000  0.4698510000000 1.0
C      1  0.4143800000000  0.5795240000000  0.4865930000000 1.0
C      1  0.5542420000000  0.5132560000000  0.4781450000000 1.0
C      1  0.5772900000000  0.4376320000000  0.5069130000000 1.0
C      1  0.5055430000000  0.5278950000000  0.6057310000000 1.0
C      1  0.4319080000000  0.4243870000000  0.4321060000000 1.0
C      1  0.5012020000000  0.4294310000000  0.5144360000000 1.0
C      1  0.5935330000000  0.4413580000000  0.4618380000000 1.0
C      1  0.4001640000000  0.4520800000000  0.5108810000000 1.0
C      1  0.4012620000000  0.5604890000000  0.4697230000000 1.0
C      1  0.4146570000000  0.5723880000000  0.5156370000000 1.0
C      1  0.4753250000000  0.5118400000000  0.5716480000000 1.0
C      1  0.5477520000000  0.5872190000000  0.4394200000000 1.0
C      1  0.4668150000000  0.4960660000000  0.5979470000000 1.0
C      1  0.5196960000000  0.4819450000000  0.4364670000000 1.0
C      1  0.5568060000000  0.5139950000000  0.4500000000000 1.0
C      1  0.5234520000000  0.4472100000000  0.4959960000000 1.0
C      1  0.4914260000000  0.4022580000000  0.5050880000000 1.0
C      1  0.5603010000000  0.5396700000000  0.4893510000000 1.0
C      1  0.4336200000000  0.4962280000000  0.5969990000000 1.0
C      1  0.4888960000000  0.4637280000000  0.5332840000000 1.0
C      1  0.4031680000000  0.5279620000000  0.5634440000000 1.0
C      1  0.4489940000000  0.5310610000000  0.4014560000000 1.0
C      1  0.5477390000000  0.5312990000000  0.5517220000000 1.0
C      1  0.6018750000000  0.5626080000000  0.4741760000000 1.0
C      1  0.5185540000000  0.5860910000000  0.4764710000000 1.0
C      1  0.3995910000000  0.4722490000000  0.5312090000000 1.0
C      1  0.5628850000000  0.5784860000000  0.4628910000000 1.0
C      1  0.5824800000000  0.5817790000000  0.4848410000000 1.0
C      1  0.4666540000000  0.5364080000000  0.5604040000000 1.0
C      1  0.4551780000000  0.4999720000000  0.5300060000000 1.0
C      1  0.4263500000000  0.5312800000000  0.4393020000000 1.0
C      1  0.5100290000000  0.3931330000000  0.5455670000000 1.0
C      1  0.5187400000000  0.4190040000000  0.5350230000000 1.0
C      1  0.5085370000000  0.4187170000000  0.4301970000000 1.0
C      1  0.5392270000000  0.5318000000000  0.6023500000000 1.0
C      1  0.4314030000000  0.4204950000000  0.4624070000000 1.0
C      1  0.5295310000000  0.4883220000000  0.3832680000000 1.0
C      1  0.4802110000000  0.4137950000000  0.4356090000000 1.0
C      1  0.4870310000000  0.5230720000000  0.4294300000000 1.0
C      1  0.4664450000000  0.4549520000000  0.4102050000000 1.0
C      1  0.5170240000000  0.5710120000000  0.3986090000000 1.0
C      1  0.5606860000000  0.4331370000000  0.5503690000000 1.0
C      1  0.4265140000000  0.4702220000000  0.5877930000000 1.0
C      1  0.4664780000000  0.5738210000000  0.4455080000000 1.0
C      1  0.4726260000000  0.4662360000000  0.5997990000000 1.0
C      1  0.3954410000000  0.4936110000000  0.4921270000000 1.0
C      1  0.4471260000000  0.5467260000000  0.5843500000000 1.0
C      1  0.5216850000000  0.5996490000000  0.5519730000000 1.0
C      1  0.5334760000000  0.4765720000000  0.5456200000000 1.0
C      1  0.4112830000000  0.4987900000000  0.4196190000000 1.0
C      1  0.5738110000000  0.4919450000000  0.4876210000000 1.0
C      1  0.4603120000000  0.5987130000000  0.4628480000000 1.0
C      1  0.4969050000000  0.4996600000000  0.6067170000000 1.0
C      1  0.6058610000000  0.4725620000000  0.5088270000000 1.0
C      1  0.6002440000000  0.5343540000000  0.4841870000000 1.0
C      1  0.5171210000000  0.4417290000000  0.4143110000000 1.0
C      1  0.4876510000000  0.5432820000000  0.5238420000000 1.0
C      1  0.6137110000000  0.4979620000000  0.4972080000000 1.0
C      1  0.5468370000000  0.4193700000000  0.5280150000000 1.0
C      1  0.4506170000000  0.5637900000000  0.4264370000000 1.0
C      1  0.5044770000000  0.5120990000000  0.4762970000000 1.0
C      1  0.4891310000000  0.6188940000000  0.4966870000000 1.0
C      1  0.4104180000000  0.4772380000000  0.4720470000000 1.0
C      1  0.5274630000000  0.5211490000000  0.5146020000000 1.0
C      1  0.5358330000000  0.5202650000000  0.5732850000000 1.0
C      1  0.4461450000000  0.4552750000000  0.5133970000000 1.0
C      1  0.5726460000000  0.5015340000000  0.5162150000000 1.0
C      1  0.4782260000000  0.5352910000000  0.4042940000000 1.0
C      1  0.4046290000000  0.4351220000000  0.4616840000000 1.0
C      1  0.5196590000000  0.4831430000000  0.5944310000000 1.0
C      1  0.5908970000000  0.5427980000000  0.5556040000000 1.0
C      1  0.4041690000000  0.5243010000000  0.5347620000000 1.0
C      1  0.4424830000000  0.3995130000000  0.5048860000000 1.0
C      1  0.5490890000000  0.4317030000000  0.5022950000000 1.0
C      1  0.4694480000000  0.5091390000000  0.4478830000000 1.0
C      1  0.4438940000000  0.4745450000000  0.4085870000000 1.0
C      1  0.4745900000000  0.4457540000000  0.5157320000000 1.0
C      1  0.5504260000000  0.5540160000000  0.4675020000000 1.0
C      1  0.5946690000000  0.5422150000000  0.4559300000000 1.0
C      1  0.4948820000000  0.5991530000000  0.5641450000000 1.0
C      1  0.5014350000000  0.5386920000000  0.4678440000000 1.0
C      1  0.5106730000000  0.3820920000000  0.5184400000000 1.0
C      1  0.4218180000000  0.4691380000000  0.5559920000000 1.0
C      1  0.5271980000000  0.4941030000000  0.5684760000000 1.0
C      1  0.5738800000000  0.5594090000000  0.5739330000000 1.0
C      1  0.5865340000000  0.4862440000000  0.5618390000000 1.0
C      1  0.5240010000000  0.5468270000000  0.3862480000000 1.0
C      1  0.4499520000000  0.4816680000000  0.5512280000000 1.0
C      1  0.5681670000000  0.4442940000000  0.4274550000000 1.0
C      1  0.6021470000000  0.4952380000000  0.4705200000000 1.0
C      1  0.5562020000000  0.5511540000000  0.4201480000000 1.0
END
