TITL C-4164236-1577-310 18.3684992842359 125000 -19442.5651132945 0 0 131 (C1) n - 1
REM
REM in /home/nfs/bkarasulu/CARBON/AIRSS/Generating-Clusters/ReaxFF-fromJPCA2015/Units_Real/with-SteepDescent/Only-C1/SD-CG/Try1-3A/FIRE-CG
REM
REM
REM
REM
REM
REM ./C.cell (11c1c37f851c82e70ff6c80c92926a4b)
REM
REM compiler GCC version 9.2.1 20190827 (Red Hat 9.2.1-1)
REM options -cpp -mtune=generic -march=x86-64 -g -O0 -fpre-include=/usr/include/finclude/math-vector-fortran.h
REM seed 202841582 -370803027 -699859305 407424353 -707512648 187246710 250776769 -841114231 -914276559 -1090976344 -746415249 -1696961139 1668669176 184595485 -1357321033 -2050849518 1907625026 -180614940 -16795028 -2071085534 -1351799659 1402123751 980576804 1023639154 1350065892 174181764 -2127416750 843953936 -1557872398 687608106 1244820530 1985230188 73562147
REM
CELL 1.54180   50.00000   50.00000   50.00000   90.00000   90.00000   90.00000
LATT -1
SFAC C  
C      1  0.5891780000000  0.4666560000000  0.5268880000000 1.0
C      1  0.5859830000000  0.5220390000000  0.4544210000000 1.0
C      1  0.4591180000000  0.5153610000000  0.4070460000000 1.0
C      1  0.4778280000000  0.5795950000000  0.5544990000000 1.0
C      1  0.5523810000000  0.4299540000000  0.4718420000000 1.0
C      1  0.4944100000000  0.4670980000000  0.5652220000000 1.0
C      1  0.4947380000000  0.5923610000000  0.4696730000000 1.0
C      1  0.4358190000000  0.5256870000000  0.4679340000000 1.0
C      1  0.4376000000000  0.5312790000000  0.4386090000000 1.0
C      1  0.4793610000000  0.4822530000000  0.4075550000000 1.0
C      1  0.4740040000000  0.4650110000000  0.5863400000000 1.0
C      1  0.5141180000000  0.4436060000000  0.4086500000000 1.0
C      1  0.4853360000000  0.4543810000000  0.5171640000000 1.0
C      1  0.5582310000000  0.4278070000000  0.5217320000000 1.0
C      1  0.5736000000000  0.5530450000000  0.5177880000000 1.0
C      1  0.5488080000000  0.4755620000000  0.4196890000000 1.0
C      1  0.5278320000000  0.4297200000000  0.4863110000000 1.0
C      1  0.5417250000000  0.4467030000000  0.4199640000000 1.0
C      1  0.4550790000000  0.4467180000000  0.5750720000000 1.0
C      1  0.4382350000000  0.4848530000000  0.4957210000000 1.0
C      1  0.5298400000000  0.5661810000000  0.5321850000000 1.0
C      1  0.5265510000000  0.5784480000000  0.5583120000000 1.0
C      1  0.4082520000000  0.5637400000000  0.4784720000000 1.0
C      1  0.3991520000000  0.4938760000000  0.5134010000000 1.0
C      1  0.6009990000000  0.5248180000000  0.4276600000000 1.0
C      1  0.4685540000000  0.4559120000000  0.4211640000000 1.0
C      1  0.4123850000000  0.4721840000000  0.4891540000000 1.0
C      1  0.4526640000000  0.5419750000000  0.5705590000000 1.0
C      1  0.4480900000000  0.4981070000000  0.4724720000000 1.0
C      1  0.5004410000000  0.4660720000000  0.3970870000000 1.0
C      1  0.5193120000000  0.4708830000000  0.5820270000000 1.0
C      1  0.5950810000000  0.5207810000000  0.5459330000000 1.0
C      1  0.6009000000000  0.4774720000000  0.4785460000000 1.0
C      1  0.5673660000000  0.5104090000000  0.5057980000000 1.0
C      1  0.5950110000000  0.4588330000000  0.4994950000000 1.0
C      1  0.3997800000000  0.4770090000000  0.5377970000000 1.0
C      1  0.5674920000000  0.4416880000000  0.4951630000000 1.0
C      1  0.4320400000000  0.4262790000000  0.5095060000000 1.0
C      1  0.5531950000000  0.4935540000000  0.4852860000000 1.0
C      1  0.5804160000000  0.4951840000000  0.5339270000000 1.0
C      1  0.4194860000000  0.4409290000000  0.4875190000000 1.0
C      1  0.4457910000000  0.5494410000000  0.5409840000000 1.0
C      1  0.4361440000000  0.4684100000000  0.5700010000000 1.0
C      1  0.4305900000000  0.4342750000000  0.5380890000000 1.0
C      1  0.4360300000000  0.4833190000000  0.4455140000000 1.0
C      1  0.4570980000000  0.5772060000000  0.5353120000000 1.0
C      1  0.4175590000000  0.4576290000000  0.5500080000000 1.0
C      1  0.4586790000000  0.5502440000000  0.4449010000000 1.0
C      1  0.5009320000000  0.5283650000000  0.4290640000000 1.0
C      1  0.5510550000000  0.4665370000000  0.4953610000000 1.0
C      1  0.4571130000000  0.5461680000000  0.4738090000000 1.0
C      1  0.4517780000000  0.4931540000000  0.5683260000000 1.0
C      1  0.5476650000000  0.5348570000000  0.4429220000000 1.0
C      1  0.4248180000000  0.5443340000000  0.5162250000000 1.0
C      1  0.5294120000000  0.5375090000000  0.4927960000000 1.0
C      1  0.5723980000000  0.5456280000000  0.4669700000000 1.0
C      1  0.4868150000000  0.5453240000000  0.5128680000000 1.0
C      1  0.5240740000000  0.4882070000000  0.4297750000000 1.0
C      1  0.5438100000000  0.5844560000000  0.4889260000000 1.0
C      1  0.4543770000000  0.4270980000000  0.5528450000000 1.0
C      1  0.4711330000000  0.4961570000000  0.5898470000000 1.0
C      1  0.5783320000000  0.4913640000000  0.4622130000000 1.0
C      1  0.5750510000000  0.5275280000000  0.4139700000000 1.0
C      1  0.4065740000000  0.5348280000000  0.4792260000000 1.0
C      1  0.5011310000000  0.5769620000000  0.4447300000000 1.0
C      1  0.5022190000000  0.4066020000000  0.5354160000000 1.0
C      1  0.4246880000000  0.4442140000000  0.4590200000000 1.0
C      1  0.4542720000000  0.5848510000000  0.5069240000000 1.0
C      1  0.5016570000000  0.5025940000000  0.4176640000000 1.0
C      1  0.4773750000000  0.4941000000000  0.4713810000000 1.0
C      1  0.5090100000000  0.5443010000000  0.5305430000000 1.0
C      1  0.5632100000000  0.4892490000000  0.5583860000000 1.0
C      1  0.5161630000000  0.5974620000000  0.4920360000000 1.0
C      1  0.5513020000000  0.5368850000000  0.5661780000000 1.0
C      1  0.5252650000000  0.4582020000000  0.4954680000000 1.0
C      1  0.5679030000000  0.4707970000000  0.4419050000000 1.0
C      1  0.5509600000000  0.5306000000000  0.4188890000000 1.0
C      1  0.4357670000000  0.5623280000000  0.4950460000000 1.0
C      1  0.4598520000000  0.4164650000000  0.5088280000000 1.0
C      1  0.4386780000000  0.5061340000000  0.4245970000000 1.0
C      1  0.5058330000000  0.4735910000000  0.5094020000000 1.0
C      1  0.4745550000000  0.5889710000000  0.4883480000000 1.0
C      1  0.5564960000000  0.4438500000000  0.4458810000000 1.0
C      1  0.4699820000000  0.5407850000000  0.4014100000000 1.0
C      1  0.4732260000000  0.4115340000000  0.5353550000000 1.0
C      1  0.4978350000000  0.5094820000000  0.4811950000000 1.0
C      1  0.5132890000000  0.4236420000000  0.4660290000000 1.0
C      1  0.5286290000000  0.4273590000000  0.5678300000000 1.0
C      1  0.5211370000000  0.5185270000000  0.5307180000000 1.0
C      1  0.4696040000000  0.5330570000000  0.5314030000000 1.0
C      1  0.5218090000000  0.5355400000000  0.4460140000000 1.0
C      1  0.4671410000000  0.5045260000000  0.5324860000000 1.0
C      1  0.4770640000000  0.5565790000000  0.5733480000000 1.0
C      1  0.4838570000000  0.5524830000000  0.4294510000000 1.0
C      1  0.5249240000000  0.4398360000000  0.5408490000000 1.0
C      1  0.5599210000000  0.4612480000000  0.5626410000000 1.0
C      1  0.5282820000000  0.5532740000000  0.5730230000000 1.0
C      1  0.5032760000000  0.5942210000000  0.5480250000000 1.0
C      1  0.5525000000000  0.5723380000000  0.4648140000000 1.0
C      1  0.5051620000000  0.4123190000000  0.5625960000000 1.0
C      1  0.4430180000000  0.4923230000000  0.5221760000000 1.0
C      1  0.5526900000000  0.5726870000000  0.5145360000000 1.0
C      1  0.4175880000000  0.4975990000000  0.5341260000000 1.0
C      1  0.5080760000000  0.4936390000000  0.5302850000000 1.0
C      1  0.5290800000000  0.5774410000000  0.4494650000000 1.0
C      1  0.4989670000000  0.5137620000000  0.5873290000000 1.0
C      1  0.5232820000000  0.4990100000000  0.5865090000000 1.0
C      1  0.5790960000000  0.5361810000000  0.4944370000000 1.0
C      1  0.5165900000000  0.4775850000000  0.4564870000000 1.0
C      1  0.4915710000000  0.4248320000000  0.4514730000000 1.0
C      1  0.5430420000000  0.5260170000000  0.5137510000000 1.0
C      1  0.4893870000000  0.4358410000000  0.4236190000000 1.0
C      1  0.4123980000000  0.4703540000000  0.4587810000000 1.0
C      1  0.5750040000000  0.5414040000000  0.5463020000000 1.0
C      1  0.4867850000000  0.4927760000000  0.5496650000000 1.0
C      1  0.4866330000000  0.5372590000000  0.4856910000000 1.0
C      1  0.5483810000000  0.5092820000000  0.5729710000000 1.0
C      1  0.4972410000000  0.4469090000000  0.5432510000000 1.0
C      1  0.5078250000000  0.6007520000000  0.5193860000000 1.0
C      1  0.4750510000000  0.4453420000000  0.4664550000000 1.0
C      1  0.4057200000000  0.5252650000000  0.5074980000000 1.0
C      1  0.4741350000000  0.4380230000000  0.4963610000000 1.0
C      1  0.5016630000000  0.5412520000000  0.5811010000000 1.0
C      1  0.5714860000000  0.4470590000000  0.5393290000000 1.0
C      1  0.5233100000000  0.4974500000000  0.4761050000000 1.0
C      1  0.4890100000000  0.4705260000000  0.4630410000000 1.0
C      1  0.5384820000000  0.4515660000000  0.5785300000000 1.0
C      1  0.4492180000000  0.5162530000000  0.5822100000000 1.0
C      1  0.4500400000000  0.4542620000000  0.4444450000000 1.0
C      1  0.5137790000000  0.5471350000000  0.4735010000000 1.0
C      1  0.5298540000000  0.4192420000000  0.5198170000000 1.0
END
