TITL C-4164233-775-463 30.9456381280556 125000 -26906.4168251027 0 0 180 (C1) n - 1
REM
REM in /home/nfs/bkarasulu/CARBON/AIRSS/Generating-Clusters/ReaxFF-fromJPCA2015/Units_Real/with-SteepDescent/Only-C1/SD-CG/Try1-3A/FIRE-CG
REM
REM
REM
REM
REM
REM ./C.cell (11c1c37f851c82e70ff6c80c92926a4b)
REM
REM compiler GCC version 9.2.1 20190827 (Red Hat 9.2.1-1)
REM options -cpp -mtune=generic -march=x86-64 -g -O0 -fpre-include=/usr/include/finclude/math-vector-fortran.h
REM seed 1259237061 1359900216 872214936 -520889424 -1621057409 -129357672 -1066487744 -1351795152 -136606312 1465566658 -547131702 2016615003 869100929 -1696430288 1732524268 505670567 1843421963 -475971044 -1524469838 1390583486 1318489656 1161173860 -1509149218 -476584493 -1657366900 -444795495 785359638 -1625187403 -451758989 1550194485 124181016 -548356713 -1272718099
REM
CELL 1.54180   50.00000   50.00000   50.00000   90.00000   90.00000   90.00000
LATT -1
SFAC C  
C      1  0.4713330000000  0.4761980000000  0.4992310000000 1.0
C      1  0.4739800000000  0.4490200000000  0.5117910000000 1.0
C      1  0.4496250000000  0.5415170000000  0.5263980000000 1.0
C      1  0.4258450000000  0.5566570000000  0.5442780000000 1.0
C      1  0.4629110000000  0.5569380000000  0.4133340000000 1.0
C      1  0.4646640000000  0.4527350000000  0.5435900000000 1.0
C      1  0.4678670000000  0.4317290000000  0.4076500000000 1.0
C      1  0.5388450000000  0.5534140000000  0.5866020000000 1.0
C      1  0.5193540000000  0.5427700000000  0.6067570000000 1.0
C      1  0.4889320000000  0.5394270000000  0.5966560000000 1.0
C      1  0.5360740000000  0.4544520000000  0.4740880000000 1.0
C      1  0.5398530000000  0.3942080000000  0.5297250000000 1.0
C      1  0.5363390000000  0.3943790000000  0.5014350000000 1.0
C      1  0.5746960000000  0.4589580000000  0.5724770000000 1.0
C      1  0.4439890000000  0.5144850000000  0.6020840000000 1.0
C      1  0.4841860000000  0.4829740000000  0.4517440000000 1.0
C      1  0.5136930000000  0.4634200000000  0.3893570000000 1.0
C      1  0.4536200000000  0.4714460000000  0.4020900000000 1.0
C      1  0.5508960000000  0.4280750000000  0.4447490000000 1.0
C      1  0.4931400000000  0.5222660000000  0.4257760000000 1.0
C      1  0.4933700000000  0.5144690000000  0.5819360000000 1.0
C      1  0.4289220000000  0.5820840000000  0.5258640000000 1.0
C      1  0.3985080000000  0.4753510000000  0.4707030000000 1.0
C      1  0.4688560000000  0.4045430000000  0.5328390000000 1.0
C      1  0.5345360000000  0.4093030000000  0.5539770000000 1.0
C      1  0.5513730000000  0.4296990000000  0.4692790000000 1.0
C      1  0.5514500000000  0.4397190000000  0.5225540000000 1.0
C      1  0.5630540000000  0.5682920000000  0.4351460000000 1.0
C      1  0.6015300000000  0.4652950000000  0.5229630000000 1.0
C      1  0.5237440000000  0.4467490000000  0.5282090000000 1.0
C      1  0.4098010000000  0.4315320000000  0.4877480000000 1.0
C      1  0.5589450000000  0.4205490000000  0.5650180000000 1.0
C      1  0.5835910000000  0.5660280000000  0.4547930000000 1.0
C      1  0.4718440000000  0.4266920000000  0.5787180000000 1.0
C      1  0.5052510000000  0.5947360000000  0.4790270000000 1.0
C      1  0.4746500000000  0.5736630000000  0.5758040000000 1.0
C      1  0.5879860000000  0.5357010000000  0.4534090000000 1.0
C      1  0.5740880000000  0.5527920000000  0.5543570000000 1.0
C      1  0.5477570000000  0.5878940000000  0.4506630000000 1.0
C      1  0.4804200000000  0.4556790000000  0.5846890000000 1.0
C      1  0.5163790000000  0.5404200000000  0.5429490000000 1.0
C      1  0.5333370000000  0.4393300000000  0.6027310000000 1.0
C      1  0.5470550000000  0.4980550000000  0.3952680000000 1.0
C      1  0.4356620000000  0.4233680000000  0.4796050000000 1.0
C      1  0.5350940000000  0.5393200000000  0.4008090000000 1.0
C      1  0.4731100000000  0.4750480000000  0.6090650000000 1.0
C      1  0.5172080000000  0.6108240000000  0.5035050000000 1.0
C      1  0.3947270000000  0.5363970000000  0.4883570000000 1.0
C      1  0.4232630000000  0.4311070000000  0.5394670000000 1.0
C      1  0.5142860000000  0.4311940000000  0.5535440000000 1.0
C      1  0.5639440000000  0.5385900000000  0.5768200000000 1.0
C      1  0.5424670000000  0.5842110000000  0.5523710000000 1.0
C      1  0.5082150000000  0.5683000000000  0.4367340000000 1.0
C      1  0.5575890000000  0.4749940000000  0.4049670000000 1.0
C      1  0.5448840000000  0.4810020000000  0.4793730000000 1.0
C      1  0.5226740000000  0.4779270000000  0.5913500000000 1.0
C      1  0.4678130000000  0.6083740000000  0.5021590000000 1.0
C      1  0.4013030000000  0.5351290000000  0.5424870000000 1.0
C      1  0.4922940000000  0.6152930000000  0.5188400000000 1.0
C      1  0.4058210000000  0.5150720000000  0.5632140000000 1.0
C      1  0.5060760000000  0.4991950000000  0.4170670000000 1.0
C      1  0.4469400000000  0.4115050000000  0.5747130000000 1.0
C      1  0.4715290000000  0.4760490000000  0.5602950000000 1.0
C      1  0.4421010000000  0.5359270000000  0.4120150000000 1.0
C      1  0.4092320000000  0.5519460000000  0.4526520000000 1.0
C      1  0.5091890000000  0.5676770000000  0.4971910000000 1.0
C      1  0.5928500000000  0.4376690000000  0.5249380000000 1.0
C      1  0.4353950000000  0.5497020000000  0.5025420000000 1.0
C      1  0.4292170000000  0.4929020000000  0.5112730000000 1.0
C      1  0.5116130000000  0.4095840000000  0.4312140000000 1.0
C      1  0.4159070000000  0.5357380000000  0.4300790000000 1.0
C      1  0.4870780000000  0.5472570000000  0.4968060000000 1.0
C      1  0.4031050000000  0.4860120000000  0.5685270000000 1.0
C      1  0.5802620000000  0.4336420000000  0.4742800000000 1.0
C      1  0.5834050000000  0.4234580000000  0.5016080000000 1.0
C      1  0.4825990000000  0.4135510000000  0.4269290000000 1.0
C      1  0.5343320000000  0.4282400000000  0.4226920000000 1.0
C      1  0.5030580000000  0.4785560000000  0.4344850000000 1.0
C      1  0.4992150000000  0.5619390000000  0.5326440000000 1.0
C      1  0.5042140000000  0.5159080000000  0.5549000000000 1.0
C      1  0.4745160000000  0.5536560000000  0.5211100000000 1.0
C      1  0.5437470000000  0.4937120000000  0.5049920000000 1.0
C      1  0.5814450000000  0.5762320000000  0.4820550000000 1.0
C      1  0.5267910000000  0.5138660000000  0.3859530000000 1.0
C      1  0.3869700000000  0.5328970000000  0.5174500000000 1.0
C      1  0.4032220000000  0.4852630000000  0.5005070000000 1.0
C      1  0.3912210000000  0.4639280000000  0.5180310000000 1.0
C      1  0.5359880000000  0.5626830000000  0.4876760000000 1.0
C      1  0.5445750000000  0.4934430000000  0.5494060000000 1.0
C      1  0.5767610000000  0.5206950000000  0.4247700000000 1.0
C      1  0.4374380000000  0.4320420000000  0.4506830000000 1.0
C      1  0.5405990000000  0.5347160000000  0.5278380000000 1.0
C      1  0.5026910000000  0.4447800000000  0.5084470000000 1.0
C      1  0.5278730000000  0.5759330000000  0.5722850000000 1.0
C      1  0.4346120000000  0.5504100000000  0.5714650000000 1.0
C      1  0.5020070000000  0.4953340000000  0.6039680000000 1.0
C      1  0.5629700000000  0.5246740000000  0.4634670000000 1.0
C      1  0.4729780000000  0.4002160000000  0.5025740000000 1.0
C      1  0.5537510000000  0.5861070000000  0.4835190000000 1.0
C      1  0.4534690000000  0.5128650000000  0.4018180000000 1.0
C      1  0.4346770000000  0.5202520000000  0.5737070000000 1.0
C      1  0.5027260000000  0.4919240000000  0.3894200000000 1.0
C      1  0.5573010000000  0.4119790000000  0.5125620000000 1.0
C      1  0.4534400000000  0.5623690000000  0.5909120000000 1.0
C      1  0.4839470000000  0.4360540000000  0.4465470000000 1.0
C      1  0.5019190000000  0.4938210000000  0.5363000000000 1.0
C      1  0.5365250000000  0.4534880000000  0.4043530000000 1.0
C      1  0.4023190000000  0.5634910000000  0.4775720000000 1.0
C      1  0.4107300000000  0.5093210000000  0.4372060000000 1.0
C      1  0.4688700000000  0.4925930000000  0.3920310000000 1.0
C      1  0.6102890000000  0.5312580000000  0.4718280000000 1.0
C      1  0.4222780000000  0.5746560000000  0.4986430000000 1.0
C      1  0.5827450000000  0.4803890000000  0.4502370000000 1.0
C      1  0.5275310000000  0.4809120000000  0.5289060000000 1.0
C      1  0.4453280000000  0.4856620000000  0.5983700000000 1.0
C      1  0.5103280000000  0.4562770000000  0.4843100000000 1.0
C      1  0.4749370000000  0.5952560000000  0.4772760000000 1.0
C      1  0.6110820000000  0.5439280000000  0.4978570000000 1.0
C      1  0.4681270000000  0.5440760000000  0.4693410000000 1.0
C      1  0.4508200000000  0.5090180000000  0.5286560000000 1.0
C      1  0.5145070000000  0.5578750000000  0.4077640000000 1.0
C      1  0.5183900000000  0.5178470000000  0.6205700000000 1.0
C      1  0.4949080000000  0.4443710000000  0.4009370000000 1.0
C      1  0.4541550000000  0.5976950000000  0.5266670000000 1.0
C      1  0.5966320000000  0.4858890000000  0.5439730000000 1.0
C      1  0.5123490000000  0.3989220000000  0.4601370000000 1.0
C      1  0.4432820000000  0.4810760000000  0.4899710000000 1.0
C      1  0.4616190000000  0.5372980000000  0.6067800000000 1.0
C      1  0.4452050000000  0.5250490000000  0.4675120000000 1.0
C      1  0.4362020000000  0.4532370000000  0.5536040000000 1.0
C      1  0.4281250000000  0.4714450000000  0.5768110000000 1.0
C      1  0.5371740000000  0.4036890000000  0.4750840000000 1.0
C      1  0.4584820000000  0.4778890000000  0.4482320000000 1.0
C      1  0.4930460000000  0.4801310000000  0.4773360000000 1.0
C      1  0.6073130000000  0.5163930000000  0.4938970000000 1.0
C      1  0.4890970000000  0.5440160000000  0.4063200000000 1.0
C      1  0.4057940000000  0.4839970000000  0.4444330000000 1.0
C      1  0.5768860000000  0.4911370000000  0.4232100000000 1.0
C      1  0.5601080000000  0.4387780000000  0.5878410000000 1.0
C      1  0.5326210000000  0.5209620000000  0.5027120000000 1.0
C      1  0.4958900000000  0.5825420000000  0.5597910000000 1.0
C      1  0.5615850000000  0.4968240000000  0.4619390000000 1.0
C      1  0.5200860000000  0.5915700000000  0.4516110000000 1.0
C      1  0.5594810000000  0.5164200000000  0.5403620000000 1.0
C      1  0.4421540000000  0.4085650000000  0.5445280000000 1.0
C      1  0.4555160000000  0.4998490000000  0.5560280000000 1.0
C      1  0.5842660000000  0.4861970000000  0.5713680000000 1.0
C      1  0.4586450000000  0.4251910000000  0.4977830000000 1.0
C      1  0.5677480000000  0.5090470000000  0.5818670000000 1.0
C      1  0.4007260000000  0.4474990000000  0.4638200000000 1.0
C      1  0.4991260000000  0.5194890000000  0.5012470000000 1.0
C      1  0.4051240000000  0.4375830000000  0.5164130000000 1.0
C      1  0.5707480000000  0.4404390000000  0.5446630000000 1.0
C      1  0.4437180000000  0.4961240000000  0.4647840000000 1.0
C      1  0.4836040000000  0.4238460000000  0.5510070000000 1.0
C      1  0.4597880000000  0.4500530000000  0.4525120000000 1.0
C      1  0.5015670000000  0.5081060000000  0.4754480000000 1.0
C      1  0.4922210000000  0.3965660000000  0.4808430000000 1.0
C      1  0.5001670000000  0.4526350000000  0.4289960000000 1.0
C      1  0.5576620000000  0.5928130000000  0.5316510000000 1.0
C      1  0.5920240000000  0.5646100000000  0.5057550000000 1.0
C      1  0.4174590000000  0.4498950000000  0.4394520000000 1.0
C      1  0.5840770000000  0.5010330000000  0.5005000000000 1.0
C      1  0.4751560000000  0.5718280000000  0.4344810000000 1.0
C      1  0.5440480000000  0.6034050000000  0.5077250000000 1.0
C      1  0.5955420000000  0.4740670000000  0.4959390000000 1.0
C      1  0.5388210000000  0.5387290000000  0.4727020000000 1.0
C      1  0.4234750000000  0.5289430000000  0.4864510000000 1.0
C      1  0.4949340000000  0.5277630000000  0.4548430000000 1.0
C      1  0.5161210000000  0.5458440000000  0.4559550000000 1.0
C      1  0.4642730000000  0.5730150000000  0.4611860000000 1.0
C      1  0.5787530000000  0.5699360000000  0.5321520000000 1.0
C      1  0.5132870000000  0.4506600000000  0.5823860000000 1.0
C      1  0.5590330000000  0.5425840000000  0.4185050000000 1.0
C      1  0.5845710000000  0.5072100000000  0.5292030000000 1.0
C      1  0.4810270000000  0.4992880000000  0.5171400000000 1.0
C      1  0.4793080000000  0.6029500000000  0.5419200000000 1.0
C      1  0.5914070000000  0.4605680000000  0.4702740000000 1.0
C      1  0.5430230000000  0.4940080000000  0.5771140000000 1.0
C      1  0.4444490000000  0.4481860000000  0.4138440000000 1.0
END
