TITL C-4164235-1454-497 -1.96835780004084 125000 -9389.7849716818 0 0 64 (C1) n - 1
REM
REM in /home/nfs/bkarasulu/CARBON/AIRSS/Generating-Clusters/ReaxFF-fromJPCA2015/Units_Real/with-SteepDescent/Only-C1/SD-CG/Try1-3A/FIRE-CG
REM
REM
REM
REM
REM
REM ./C.cell (11c1c37f851c82e70ff6c80c92926a4b)
REM
REM compiler GCC version 9.2.1 20190827 (Red Hat 9.2.1-1)
REM options -cpp -mtune=generic -march=x86-64 -g -O0 -fpre-include=/usr/include/finclude/math-vector-fortran.h
REM seed 1179617698 -301251314 6891840 -1060802844 1494335970 708484043 1187536360 682399547 -1689108012 1693621983 -789425393 -1298535860 -1271160947 793536330 1741234734 1302061643 549072689 951644337 265156420 1454960863 -1025790254 1414824436 -1470402895 -827801066 42655643 -1212745210 -709522282 982413694 -367747304 -796216669 1335979646 336273674 -2105871367
REM
CELL 1.54180   50.00000   50.00000   50.00000   90.00000   90.00000   90.00000
LATT -1
SFAC C  
C      1  0.5040730000000  0.4301450000000  0.4635400000000 1.0
C      1  0.4590620000000  0.5313830000000  0.5047600000000 1.0
C      1  0.5936580000000  0.5189050000000  0.4751320000000 1.0
C      1  0.4605900000000  0.5145510000000  0.4672200000000 1.0
C      1  0.5844160000000  0.5188290000000  0.4983820000000 1.0
C      1  0.4703060000000  0.4900910000000  0.5880620000000 1.0
C      1  0.4419530000000  0.4712260000000  0.5256630000000 1.0
C      1  0.5279450000000  0.5530610000000  0.4995780000000 1.0
C      1  0.4696760000000  0.4665330000000  0.4903030000000 1.0
C      1  0.4554990000000  0.4574770000000  0.5461580000000 1.0
C      1  0.4508420000000  0.5799790000000  0.5096790000000 1.0
C      1  0.5128120000000  0.5173020000000  0.5635120000000 1.0
C      1  0.4527100000000  0.4723760000000  0.5716150000000 1.0
C      1  0.4699450000000  0.5429910000000  0.5490450000000 1.0
C      1  0.5056220000000  0.4519810000000  0.5525800000000 1.0
C      1  0.5756990000000  0.5174530000000  0.4580880000000 1.0
C      1  0.4927220000000  0.5246130000000  0.4405760000000 1.0
C      1  0.5227680000000  0.5611340000000  0.5250950000000 1.0
C      1  0.4958130000000  0.4543660000000  0.4483440000000 1.0
C      1  0.4315040000000  0.4874550000000  0.5067290000000 1.0
C      1  0.5280470000000  0.4980750000000  0.5459390000000 1.0
C      1  0.4760050000000  0.4949190000000  0.4847390000000 1.0
C      1  0.5425500000000  0.5270900000000  0.4980440000000 1.0
C      1  0.5549600000000  0.4971790000000  0.5353610000000 1.0
C      1  0.5599180000000  0.4687920000000  0.5262240000000 1.0
C      1  0.4408590000000  0.4968640000000  0.4549770000000 1.0
C      1  0.4818280000000  0.4458700000000  0.5367170000000 1.0
C      1  0.4824440000000  0.5609950000000  0.4583200000000 1.0
C      1  0.4876590000000  0.5314850000000  0.5011520000000 1.0
C      1  0.4895960000000  0.4963770000000  0.4335250000000 1.0
C      1  0.5353570000000  0.4913630000000  0.4595070000000 1.0
C      1  0.5231090000000  0.4233600000000  0.4844900000000 1.0
C      1  0.4524960000000  0.5183940000000  0.5473460000000 1.0
C      1  0.4984270000000  0.5421550000000  0.5558520000000 1.0
C      1  0.5131040000000  0.4745800000000  0.5355810000000 1.0
C      1  0.4592040000000  0.5455800000000  0.4663510000000 1.0
C      1  0.5158200000000  0.5680930000000  0.5523610000000 1.0
C      1  0.5323700000000  0.4644300000000  0.5153870000000 1.0
C      1  0.4426280000000  0.5127390000000  0.5207570000000 1.0
C      1  0.5410440000000  0.4398910000000  0.5013500000000 1.0
C      1  0.5274540000000  0.5048970000000  0.4863750000000 1.0
C      1  0.4946560000000  0.4245530000000  0.4909090000000 1.0
C      1  0.4662900000000  0.4586840000000  0.4457100000000 1.0
C      1  0.4967340000000  0.5016540000000  0.5826850000000 1.0
C      1  0.4484980000000  0.5008520000000  0.5704190000000 1.0
C      1  0.5019780000000  0.5502210000000  0.4831250000000 1.0
C      1  0.4313520000000  0.4795140000000  0.4769830000000 1.0
C      1  0.5117570000000  0.5332050000000  0.4609690000000 1.0
C      1  0.5625800000000  0.4551070000000  0.4891870000000 1.0
C      1  0.5097730000000  0.4792020000000  0.4445750000000 1.0
C      1  0.4917150000000  0.5530170000000  0.4312750000000 1.0
C      1  0.5582470000000  0.4487700000000  0.5495460000000 1.0
C      1  0.4495500000000  0.4577010000000  0.4702950000000 1.0
C      1  0.4616620000000  0.4854400000000  0.4363200000000 1.0
C      1  0.5351400000000  0.5395990000000  0.4444210000000 1.0
C      1  0.5590320000000  0.4702210000000  0.4668750000000 1.0
C      1  0.4823930000000  0.4456970000000  0.5071630000000 1.0
C      1  0.5323690000000  0.4389580000000  0.5588360000000 1.0
C      1  0.5508860000000  0.5144660000000  0.4456180000000 1.0
C      1  0.5004540000000  0.5058010000000  0.4972390000000 1.0
C      1  0.4609690000000  0.5630460000000  0.5309480000000 1.0
C      1  0.5637370000000  0.5190200000000  0.5177380000000 1.0
C      1  0.4471570000000  0.5545910000000  0.4913640000000 1.0
C      1  0.5205780000000  0.5557020000000  0.4233810000000 1.0
END
