TITL C-4164247-2821-704 75.0946687866346 125000 -29687.2462896249 0 0 199 (C1) n - 1
REM
REM in /home/nfs/bkarasulu/CARBON/AIRSS/Generating-Clusters/ReaxFF-fromJPCA2015/Units_Real/with-SteepDescent/Only-C1/SD-CG/Try1-3A/FIRE-CG
REM
REM
REM
REM
REM
REM ./C.cell (11c1c37f851c82e70ff6c80c92926a4b)
REM
REM compiler GCC version 9.2.1 20190827 (Red Hat 9.2.1-1)
REM options -cpp -mtune=generic -march=x86-64 -g -O0 -fpre-include=/usr/include/finclude/math-vector-fortran.h
REM seed -1993925585 1165472517 1453794364 2021158691 -885876582 1719072116 954296351 -1383220438 -244724622 -2068170617 -662025805 1311477129 -2023292763 191930028 -304352828 237195539 -1195768162 -1226790448 1960713577 -298142389 454613898 -603518043 605354649 -922274115 791157843 1787699876 2095152446 1838233668 -466576742 -2090735647 -347975890 1359962199 -1773604909
REM
CELL 1.54180   50.00000   50.00000   50.00000   90.00000   90.00000   90.00000
LATT -1
SFAC C  
C      1  0.4512280000000  0.5206440000000  0.4493430000000 1.0
C      1  0.5156460000000  0.4654480000000  0.4947250000000 1.0
C      1  0.5090290000000  0.6002500000000  0.5393580000000 1.0
C      1  0.3904610000000  0.4724560000000  0.5095480000000 1.0
C      1  0.5134920000000  0.4339570000000  0.4047850000000 1.0
C      1  0.4933120000000  0.4268800000000  0.5190760000000 1.0
C      1  0.6157260000000  0.4950980000000  0.4906060000000 1.0
C      1  0.4563630000000  0.4714950000000  0.4448230000000 1.0
C      1  0.4660500000000  0.4137680000000  0.5517370000000 1.0
C      1  0.4865400000000  0.5865560000000  0.5581130000000 1.0
C      1  0.5299900000000  0.5475710000000  0.5003170000000 1.0
C      1  0.4484340000000  0.5226800000000  0.5777760000000 1.0
C      1  0.4381920000000  0.5931580000000  0.5351280000000 1.0
C      1  0.5295940000000  0.5262390000000  0.4563030000000 1.0
C      1  0.5182430000000  0.4753110000000  0.4455230000000 1.0
C      1  0.5612190000000  0.4952980000000  0.4870200000000 1.0
C      1  0.4617440000000  0.5660670000000  0.4497860000000 1.0
C      1  0.3857210000000  0.5027480000000  0.5111760000000 1.0
C      1  0.4543080000000  0.4013310000000  0.5304160000000 1.0
C      1  0.4899150000000  0.5207580000000  0.4326050000000 1.0
C      1  0.4322700000000  0.4155480000000  0.4710670000000 1.0
C      1  0.5152480000000  0.4405200000000  0.5346500000000 1.0
C      1  0.4738560000000  0.5613320000000  0.5391650000000 1.0
C      1  0.5838160000000  0.5040450000000  0.4203800000000 1.0
C      1  0.5312870000000  0.5599030000000  0.4142160000000 1.0
C      1  0.4684010000000  0.4581100000000  0.3997920000000 1.0
C      1  0.4351300000000  0.5028870000000  0.5593360000000 1.0
C      1  0.5242550000000  0.4150020000000  0.4253020000000 1.0
C      1  0.4523190000000  0.5586470000000  0.5994770000000 1.0
C      1  0.4645460000000  0.5321870000000  0.4267300000000 1.0
C      1  0.5395570000000  0.4197370000000  0.4951890000000 1.0
C      1  0.4935860000000  0.6020490000000  0.4551550000000 1.0
C      1  0.5391340000000  0.4280850000000  0.5469010000000 1.0
C      1  0.5266120000000  0.5698420000000  0.5846870000000 1.0
C      1  0.5652520000000  0.4084110000000  0.4880230000000 1.0
C      1  0.5762790000000  0.4633010000000  0.5717530000000 1.0
C      1  0.4837860000000  0.5532210000000  0.5972540000000 1.0
C      1  0.4688950000000  0.3777740000000  0.4876480000000 1.0
C      1  0.5658550000000  0.5755770000000  0.4329370000000 1.0
C      1  0.4126000000000  0.4813240000000  0.5588580000000 1.0
C      1  0.4442830000000  0.4733920000000  0.4715400000000 1.0
C      1  0.4386790000000  0.5687180000000  0.4328600000000 1.0
C      1  0.5570680000000  0.5286350000000  0.5935000000000 1.0
C      1  0.4522930000000  0.5661060000000  0.4820490000000 1.0
C      1  0.4611080000000  0.4635260000000  0.4957900000000 1.0
C      1  0.5129960000000  0.4659750000000  0.6054530000000 1.0
C      1  0.5018980000000  0.5670910000000  0.4147630000000 1.0
C      1  0.6053830000000  0.5291930000000  0.4621650000000 1.0
C      1  0.4357490000000  0.5914690000000  0.4846910000000 1.0
C      1  0.5225010000000  0.3948530000000  0.5687130000000 1.0
C      1  0.4346420000000  0.4278860000000  0.5194720000000 1.0
C      1  0.5585850000000  0.5875120000000  0.4924750000000 1.0
C      1  0.4876130000000  0.5254460000000  0.5130630000000 1.0
C      1  0.4566520000000  0.4906500000000  0.6214280000000 1.0
C      1  0.5961270000000  0.4548960000000  0.4701980000000 1.0
C      1  0.4833570000000  0.4347610000000  0.4073040000000 1.0
C      1  0.4113570000000  0.5809780000000  0.4727470000000 1.0
C      1  0.5060390000000  0.4269870000000  0.4452400000000 1.0
C      1  0.5085400000000  0.4789320000000  0.3805530000000 1.0
C      1  0.4722930000000  0.4369520000000  0.5612930000000 1.0
C      1  0.4903750000000  0.4579440000000  0.4830850000000 1.0
C      1  0.4417570000000  0.4964300000000  0.4376120000000 1.0
C      1  0.4741410000000  0.3852590000000  0.5157170000000 1.0
C      1  0.4574500000000  0.5046310000000  0.3925270000000 1.0
C      1  0.5880470000000  0.4363220000000  0.5229530000000 1.0
C      1  0.5018370000000  0.5364930000000  0.4546040000000 1.0
C      1  0.5963700000000  0.5523780000000  0.5148740000000 1.0
C      1  0.3781090000000  0.5119910000000  0.4849270000000 1.0
C      1  0.4186310000000  0.4314520000000  0.4923120000000 1.0
C      1  0.4870250000000  0.5498840000000  0.3916250000000 1.0
C      1  0.5080160000000  0.4358170000000  0.6004650000000 1.0
C      1  0.5785610000000  0.4404650000000  0.4511830000000 1.0
C      1  0.5659360000000  0.5118530000000  0.5308280000000 1.0
C      1  0.5328060000000  0.5452620000000  0.6002250000000 1.0
C      1  0.4888200000000  0.4288550000000  0.5817080000000 1.0
C      1  0.5643840000000  0.4967640000000  0.4583750000000 1.0
C      1  0.5251640000000  0.4582930000000  0.3946320000000 1.0
C      1  0.4752940000000  0.5334130000000  0.5759050000000 1.0
C      1  0.5911890000000  0.5532550000000  0.4562160000000 1.0
C      1  0.5646250000000  0.4155120000000  0.4593650000000 1.0
C      1  0.5335290000000  0.5993450000000  0.4452590000000 1.0
C      1  0.4463880000000  0.3929580000000  0.4797030000000 1.0
C      1  0.4818720000000  0.4857290000000  0.3946510000000 1.0
C      1  0.5800820000000  0.5713400000000  0.5344180000000 1.0
C      1  0.4491410000000  0.5139090000000  0.5330740000000 1.0
C      1  0.4611390000000  0.4382010000000  0.5119630000000 1.0
C      1  0.4510940000000  0.4754930000000  0.5708570000000 1.0
C      1  0.5278730000000  0.5099300000000  0.4026460000000 1.0
C      1  0.4231360000000  0.4686670000000  0.4130860000000 1.0
C      1  0.4628180000000  0.5330980000000  0.3972060000000 1.0
C      1  0.6183940000000  0.5241180000000  0.4861120000000 1.0
C      1  0.4262110000000  0.4571910000000  0.5675590000000 1.0
C      1  0.4052790000000  0.5551210000000  0.4864160000000 1.0
C      1  0.4907550000000  0.4791020000000  0.5916700000000 1.0
C      1  0.4851840000000  0.5379830000000  0.4865280000000 1.0
C      1  0.5247280000000  0.4486810000000  0.4535980000000 1.0
C      1  0.4011730000000  0.5417310000000  0.4605480000000 1.0
C      1  0.4002190000000  0.4533210000000  0.4877340000000 1.0
C      1  0.4685950000000  0.5181140000000  0.4726910000000 1.0
C      1  0.5573230000000  0.5001230000000  0.5986860000000 1.0
C      1  0.4889330000000  0.4982400000000  0.4724010000000 1.0
C      1  0.4361950000000  0.5338290000000  0.6027600000000 1.0
C      1  0.5761820000000  0.5415090000000  0.4973680000000 1.0
C      1  0.4580920000000  0.4245880000000  0.4562470000000 1.0
C      1  0.5171860000000  0.5065350000000  0.3745930000000 1.0
C      1  0.5355180000000  0.4818580000000  0.5575860000000 1.0
C      1  0.5530040000000  0.4608060000000  0.4051920000000 1.0
C      1  0.5071380000000  0.5968310000000  0.4321330000000 1.0
C      1  0.5211520000000  0.5294140000000  0.5470510000000 1.0
C      1  0.4143400000000  0.5643740000000  0.5633080000000 1.0
C      1  0.4809470000000  0.5980340000000  0.4789340000000 1.0
C      1  0.4461300000000  0.6047420000000  0.5088540000000 1.0
C      1  0.5517640000000  0.4038220000000  0.5359530000000 1.0
C      1  0.5685050000000  0.5601650000000  0.4774320000000 1.0
C      1  0.4843940000000  0.4983800000000  0.6288030000000 1.0
C      1  0.6148730000000  0.5413450000000  0.5060820000000 1.0
C      1  0.5264410000000  0.3888190000000  0.5407360000000 1.0
C      1  0.4560880000000  0.4812690000000  0.5212910000000 1.0
C      1  0.5005160000000  0.6147850000000  0.5156750000000 1.0
C      1  0.4808970000000  0.5674010000000  0.4922250000000 1.0
C      1  0.5720830000000  0.5301310000000  0.4146630000000 1.0
C      1  0.5617830000000  0.4668530000000  0.4967530000000 1.0
C      1  0.5766170000000  0.4777600000000  0.4099890000000 1.0
C      1  0.5279240000000  0.4160800000000  0.5896770000000 1.0
C      1  0.5800860000000  0.4902780000000  0.5822280000000 1.0
C      1  0.4550150000000  0.5911310000000  0.5590900000000 1.0
C      1  0.4404650000000  0.5720980000000  0.5762120000000 1.0
C      1  0.4355860000000  0.5123950000000  0.6231300000000 1.0
C      1  0.4290210000000  0.4872370000000  0.5083930000000 1.0
C      1  0.5929090000000  0.4574420000000  0.5017720000000 1.0
C      1  0.6077480000000  0.4803990000000  0.4664930000000 1.0
C      1  0.5776860000000  0.4555080000000  0.5424920000000 1.0
C      1  0.4916720000000  0.4830780000000  0.5418590000000 1.0
C      1  0.5836150000000  0.5545370000000  0.4281620000000 1.0
C      1  0.6046740000000  0.4838810000000  0.5145250000000 1.0
C      1  0.4295270000000  0.5288830000000  0.5165690000000 1.0
C      1  0.4131950000000  0.5776340000000  0.5382990000000 1.0
C      1  0.5102510000000  0.5078100000000  0.6189990000000 1.0
C      1  0.5563820000000  0.4657150000000  0.5253810000000 1.0
C      1  0.3888010000000  0.4864710000000  0.4480220000000 1.0
C      1  0.5095930000000  0.4927870000000  0.4924700000000 1.0
C      1  0.4896060000000  0.5611860000000  0.4414670000000 1.0
C      1  0.5213450000000  0.3965550000000  0.4945680000000 1.0
C      1  0.4893870000000  0.4754980000000  0.4539090000000 1.0
C      1  0.4713660000000  0.5328830000000  0.5349390000000 1.0
C      1  0.5023880000000  0.3949090000000  0.5190540000000 1.0
C      1  0.5944150000000  0.5033520000000  0.4493890000000 1.0
C      1  0.5736050000000  0.4515260000000  0.4240680000000 1.0
C      1  0.4992410000000  0.5003060000000  0.5186940000000 1.0
C      1  0.4987570000000  0.5215450000000  0.5634800000000 1.0
C      1  0.4984870000000  0.5748840000000  0.5822210000000 1.0
C      1  0.4350710000000  0.4958230000000  0.4088530000000 1.0
C      1  0.5422180000000  0.5760600000000  0.4351040000000 1.0
C      1  0.4022360000000  0.5249560000000  0.5264870000000 1.0
C      1  0.5328320000000  0.4871510000000  0.6094250000000 1.0
C      1  0.5086380000000  0.5353460000000  0.6102930000000 1.0
C      1  0.4802160000000  0.4131240000000  0.4725790000000 1.0
C      1  0.5388030000000  0.6020780000000  0.4781400000000 1.0
C      1  0.5598240000000  0.5872490000000  0.5216200000000 1.0
C      1  0.4934450000000  0.5668180000000  0.5190350000000 1.0
C      1  0.5283290000000  0.4665840000000  0.5338200000000 1.0
C      1  0.4779750000000  0.4256580000000  0.4349160000000 1.0
C      1  0.5370790000000  0.4991680000000  0.4486840000000 1.0
C      1  0.4253030000000  0.4923520000000  0.4790180000000 1.0
C      1  0.5416260000000  0.5093890000000  0.5481000000000 1.0
C      1  0.5457110000000  0.4348320000000  0.5754900000000 1.0
C      1  0.5460890000000  0.5773920000000  0.5644530000000 1.0
C      1  0.4320370000000  0.5471460000000  0.4955310000000 1.0
C      1  0.5758730000000  0.5352290000000  0.5725990000000 1.0
C      1  0.4675750000000  0.4680440000000  0.5465830000000 1.0
C      1  0.5710130000000  0.5615340000000  0.5595390000000 1.0
C      1  0.5225680000000  0.6080850000000  0.4993400000000 1.0
C      1  0.5021240000000  0.5028210000000  0.4144420000000 1.0
C      1  0.4001840000000  0.4655880000000  0.4314020000000 1.0
C      1  0.4904700000000  0.3857970000000  0.4674220000000 1.0
C      1  0.5367740000000  0.4482620000000  0.4828340000000 1.0
C      1  0.5181400000000  0.5506020000000  0.5243880000000 1.0
C      1  0.4630280000000  0.4762510000000  0.5969220000000 1.0
C      1  0.5395620000000  0.4036490000000  0.4481880000000 1.0
C      1  0.3917480000000  0.4602080000000  0.4598410000000 1.0
C      1  0.4185650000000  0.4437010000000  0.5426540000000 1.0
C      1  0.5417540000000  0.5445620000000  0.4764220000000 1.0
C      1  0.5907750000000  0.5106870000000  0.5639690000000 1.0
C      1  0.4478250000000  0.4545030000000  0.4192120000000 1.0
C      1  0.5440760000000  0.5339260000000  0.4090220000000 1.0
C      1  0.4730690000000  0.6137560000000  0.5018790000000 1.0
C      1  0.5473730000000  0.4641350000000  0.5786580000000 1.0
C      1  0.5922740000000  0.5005630000000  0.5355790000000 1.0
C      1  0.5368900000000  0.5924840000000  0.5415540000000 1.0
C      1  0.4998520000000  0.5294880000000  0.3778130000000 1.0
C      1  0.4011930000000  0.5098280000000  0.4636100000000 1.0
C      1  0.5739750000000  0.4111650000000  0.5166260000000 1.0
C      1  0.4940260000000  0.4303920000000  0.4896490000000 1.0
C      1  0.4003490000000  0.5500410000000  0.5409080000000 1.0
C      1  0.5197090000000  0.3890270000000  0.4669330000000 1.0
C      1  0.4968560000000  0.4930200000000  0.5667670000000 1.0
C      1  0.4109570000000  0.5654870000000  0.4466780000000 1.0
C      1  0.3998330000000  0.4654020000000  0.5363870000000 1.0
C      1  0.5641140000000  0.5175330000000  0.5035220000000 1.0
END
