TITL C-4164245-3996-472 13.6007315885376 125000 -18527.3152538392 0 0 124 (C1) n - 1
REM
REM in /home/nfs/bkarasulu/CARBON/AIRSS/Generating-Clusters/ReaxFF-fromJPCA2015/Units_Real/with-SteepDescent/Only-C1/SD-CG/Try1-3A/FIRE-CG
REM
REM
REM
REM
REM
REM ./C.cell (11c1c37f851c82e70ff6c80c92926a4b)
REM
REM compiler GCC version 9.2.1 20190827 (Red Hat 9.2.1-1)
REM options -cpp -mtune=generic -march=x86-64 -g -O0 -fpre-include=/usr/include/finclude/math-vector-fortran.h
REM seed 1639600441 1451501143 1994548817 -612942948 444879315 1372632052 412573652 -1327738739 199608042 1460797899 2054020087 1850710069 -1233633082 -1087601177 95062398 -1492493691 -2087308721 -1476471968 -1636488931 696820404 538881168 -177535237 1267882915 729982597 2137399525 1588895016 -1405875638 779300600 -1803495482 82775758 2035112444 1822240120 -970689469
REM
CELL 1.54180   50.00000   50.00000   50.00000   90.00000   90.00000   90.00000
LATT -1
SFAC C  
C      1  0.5014270000000  0.5277360000000  0.5792580000000 1.0
C      1  0.5123710000000  0.4112660000000  0.5000510000000 1.0
C      1  0.5271190000000  0.4108780000000  0.5538420000000 1.0
C      1  0.5088160000000  0.5819100000000  0.5266220000000 1.0
C      1  0.5163620000000  0.4754680000000  0.4164300000000 1.0
C      1  0.5034970000000  0.5983180000000  0.4824480000000 1.0
C      1  0.4375240000000  0.4249230000000  0.4952520000000 1.0
C      1  0.4244890000000  0.5495220000000  0.4469470000000 1.0
C      1  0.4248580000000  0.4991750000000  0.4463380000000 1.0
C      1  0.5223970000000  0.5058030000000  0.5954660000000 1.0
C      1  0.5238170000000  0.5861890000000  0.4417260000000 1.0
C      1  0.4687340000000  0.5239010000000  0.4627120000000 1.0
C      1  0.4879130000000  0.4422990000000  0.4160830000000 1.0
C      1  0.5751540000000  0.5386910000000  0.4602620000000 1.0
C      1  0.5281590000000  0.4076220000000  0.5249830000000 1.0
C      1  0.5225660000000  0.5231090000000  0.5226270000000 1.0
C      1  0.4818780000000  0.4698470000000  0.5472250000000 1.0
C      1  0.5255080000000  0.4190390000000  0.4747810000000 1.0
C      1  0.4620150000000  0.4169190000000  0.4832810000000 1.0
C      1  0.5226990000000  0.5945630000000  0.5048530000000 1.0
C      1  0.4270410000000  0.4681770000000  0.4960170000000 1.0
C      1  0.5064750000000  0.6017760000000  0.4541400000000 1.0
C      1  0.4819060000000  0.5772730000000  0.5162430000000 1.0
C      1  0.5385280000000  0.5346030000000  0.5023080000000 1.0
C      1  0.5160970000000  0.5002020000000  0.4551970000000 1.0
C      1  0.4077550000000  0.4900420000000  0.4676940000000 1.0
C      1  0.4502110000000  0.4839270000000  0.4897740000000 1.0
C      1  0.4826100000000  0.4522850000000  0.4687030000000 1.0
C      1  0.4366740000000  0.5643830000000  0.4691680000000 1.0
C      1  0.4916010000000  0.5151090000000  0.5539700000000 1.0
C      1  0.4719100000000  0.4962600000000  0.5622790000000 1.0
C      1  0.5513250000000  0.5885660000000  0.5039640000000 1.0
C      1  0.4062380000000  0.4769800000000  0.5145320000000 1.0
C      1  0.4195310000000  0.4441780000000  0.4812530000000 1.0
C      1  0.5330600000000  0.4989430000000  0.5345070000000 1.0
C      1  0.5253400000000  0.4485390000000  0.5364550000000 1.0
C      1  0.5657470000000  0.4876450000000  0.4592030000000 1.0
C      1  0.4632480000000  0.4335170000000  0.4297310000000 1.0
C      1  0.4961770000000  0.5849910000000  0.4328210000000 1.0
C      1  0.5011560000000  0.4757390000000  0.5054490000000 1.0
C      1  0.4187270000000  0.5333420000000  0.4906240000000 1.0
C      1  0.4242580000000  0.4867260000000  0.5648330000000 1.0
C      1  0.4717830000000  0.5540590000000  0.5619960000000 1.0
C      1  0.5643550000000  0.5319090000000  0.5515270000000 1.0
C      1  0.5538020000000  0.5472350000000  0.4426120000000 1.0
C      1  0.5208690000000  0.5656700000000  0.5488480000000 1.0
C      1  0.4494760000000  0.4583340000000  0.4209510000000 1.0
C      1  0.4103080000000  0.5190190000000  0.5122200000000 1.0
C      1  0.5009900000000  0.5552460000000  0.5672180000000 1.0
C      1  0.5363660000000  0.4861380000000  0.4689580000000 1.0
C      1  0.5632010000000  0.5798620000000  0.4791340000000 1.0
C      1  0.4532540000000  0.5345230000000  0.5741980000000 1.0
C      1  0.5134940000000  0.4534390000000  0.5844880000000 1.0
C      1  0.4445510000000  0.5262020000000  0.4425700000000 1.0
C      1  0.4797850000000  0.5840070000000  0.4875770000000 1.0
C      1  0.4896530000000  0.5417310000000  0.4591110000000 1.0
C      1  0.5327240000000  0.4407460000000  0.5633980000000 1.0
C      1  0.5831820000000  0.4528910000000  0.5045970000000 1.0
C      1  0.4785430000000  0.4402220000000  0.5561780000000 1.0
C      1  0.4647040000000  0.5616730000000  0.5337710000000 1.0
C      1  0.5363100000000  0.5106830000000  0.4352880000000 1.0
C      1  0.5907300000000  0.4772730000000  0.5142560000000 1.0
C      1  0.4566330000000  0.4958920000000  0.5151690000000 1.0
C      1  0.4282970000000  0.4723630000000  0.4358490000000 1.0
C      1  0.5043970000000  0.5391540000000  0.4306280000000 1.0
C      1  0.5295580000000  0.4358660000000  0.4501660000000 1.0
C      1  0.5763450000000  0.4775720000000  0.5595720000000 1.0
C      1  0.4653930000000  0.5726510000000  0.4633270000000 1.0
C      1  0.4580270000000  0.4721500000000  0.5315630000000 1.0
C      1  0.4919500000000  0.4919510000000  0.4119120000000 1.0
C      1  0.4355700000000  0.5203160000000  0.5295770000000 1.0
C      1  0.5111710000000  0.4733610000000  0.5340880000000 1.0
C      1  0.4403180000000  0.5124840000000  0.5577290000000 1.0
C      1  0.4890340000000  0.4509300000000  0.4952130000000 1.0
C      1  0.5686250000000  0.4958960000000  0.5716790000000 1.0
C      1  0.5852110000000  0.5296670000000  0.5305190000000 1.0
C      1  0.5502290000000  0.5080160000000  0.5568690000000 1.0
C      1  0.5295490000000  0.4791140000000  0.4951790000000 1.0
C      1  0.4643900000000  0.5411270000000  0.4226760000000 1.0
C      1  0.4744460000000  0.4953320000000  0.5924330000000 1.0
C      1  0.5430140000000  0.5697730000000  0.4577950000000 1.0
C      1  0.4452730000000  0.5461280000000  0.5201200000000 1.0
C      1  0.4723460000000  0.5681660000000  0.4344890000000 1.0
C      1  0.5715750000000  0.4441640000000  0.5297540000000 1.0
C      1  0.5571010000000  0.4467690000000  0.4519930000000 1.0
C      1  0.4117200000000  0.4618810000000  0.4590530000000 1.0
C      1  0.5838620000000  0.5105850000000  0.4634790000000 1.0
C      1  0.4830130000000  0.5007550000000  0.5080780000000 1.0
C      1  0.4866080000000  0.5009810000000  0.4610230000000 1.0
C      1  0.5432940000000  0.4860850000000  0.4199580000000 1.0
C      1  0.4450230000000  0.5437530000000  0.4900980000000 1.0
C      1  0.4120500000000  0.4712870000000  0.5422400000000 1.0
C      1  0.5458900000000  0.4342010000000  0.5196860000000 1.0
C      1  0.5487290000000  0.4278020000000  0.4895190000000 1.0
C      1  0.4427970000000  0.4287900000000  0.5247630000000 1.0
C      1  0.4747090000000  0.4686780000000  0.4086660000000 1.0
C      1  0.4863160000000  0.5223440000000  0.4154680000000 1.0
C      1  0.4411950000000  0.4734180000000  0.5827940000000 1.0
C      1  0.5482070000000  0.4915740000000  0.5113860000000 1.0
C      1  0.4692380000000  0.4238200000000  0.5341140000000 1.0
C      1  0.5291560000000  0.5512450000000  0.4811620000000 1.0
C      1  0.4700530000000  0.4277720000000  0.4578460000000 1.0
C      1  0.5801370000000  0.5573090000000  0.4831370000000 1.0
C      1  0.5651810000000  0.4576760000000  0.5559110000000 1.0
C      1  0.4709730000000  0.4790470000000  0.4698220000000 1.0
C      1  0.4727930000000  0.5248300000000  0.5927070000000 1.0
C      1  0.4944840000000  0.5201940000000  0.5260710000000 1.0
C      1  0.4359460000000  0.4546010000000  0.5388880000000 1.0
C      1  0.5630890000000  0.5709990000000  0.5251060000000 1.0
C      1  0.5080440000000  0.5422790000000  0.4766680000000 1.0
C      1  0.4838800000000  0.4232740000000  0.5052370000000 1.0
C      1  0.5882980000000  0.5163610000000  0.4919830000000 1.0
C      1  0.4651510000000  0.4669540000000  0.5956910000000 1.0
C      1  0.5490460000000  0.5572200000000  0.5462790000000 1.0
C      1  0.3992210000000  0.4978060000000  0.4956120000000 1.0
C      1  0.5592580000000  0.5139630000000  0.4969530000000 1.0
C      1  0.5189390000000  0.4799760000000  0.5908520000000 1.0
C      1  0.5329180000000  0.5374670000000  0.4259090000000 1.0
C      1  0.4848370000000  0.4469130000000  0.5837590000000 1.0
C      1  0.5137160000000  0.4478040000000  0.4285000000000 1.0
C      1  0.5697110000000  0.4420070000000  0.4780490000000 1.0
C      1  0.5973770000000  0.5043510000000  0.5176360000000 1.0
C      1  0.5825640000000  0.5527920000000  0.5130790000000 1.0
C      1  0.5631290000000  0.4711260000000  0.4355770000000 1.0
END
