TITL C-4164232-771-562 -6.94766540373978e-05 125000 -2258.82672814027 0 0 17 (C1) n - 1
REM
REM in /home/nfs/bkarasulu/CARBON/AIRSS/Generating-Clusters/ReaxFF-fromJPCA2015/Units_Real/with-SteepDescent/Only-C1/SD-CG/Try1-3A/FIRE-CG
REM
REM
REM
REM
REM
REM ./C.cell (11c1c37f851c82e70ff6c80c92926a4b)
REM
REM compiler GCC version 9.2.1 20190827 (Red Hat 9.2.1-1)
REM options -cpp -mtune=generic -march=x86-64 -g -O0 -fpre-include=/usr/include/finclude/math-vector-fortran.h
REM seed -781877945 -1738936873 -602151524 1124041063 -1409697759 1109252532 -1130303567 -759090931 2083081396 1811553140 1707674326 -1342916314 1648986654 -1979156945 743454049 -567688462 -1713812052 1966328653 -1016890100 1219686782 -1334442707 1048933639 621827480 1492582919 1845694835 509029361 -99404824 -1928564242 -656602318 1223407914 -312162942 -1709705949 503772917
REM
CELL 1.54180   50.00000   50.00000   50.00000   90.00000   90.00000   90.00000
LATT -1
SFAC C  
C      1  0.5188900000000  0.4336180000000  0.5039850000000 1.0
C      1  0.4509230000000  0.5621960000000  0.5269060000000 1.0
C      1  0.4454680000000  0.5364890000000  0.5426030000000 1.0
C      1  0.5581470000000  0.4825100000000  0.4375380000000 1.0
C      1  0.5021670000000  0.4590420000000  0.5134230000000 1.0
C      1  0.5282760000000  0.4744820000000  0.4762350000000 1.0
C      1  0.5315770000000  0.5243140000000  0.4523220000000 1.0
C      1  0.5148680000000  0.5202680000000  0.4735810000000 1.0
C      1  0.4730750000000  0.5544810000000  0.5083910000000 1.0
C      1  0.4855710000000  0.4591120000000  0.5330160000000 1.0
C      1  0.4604590000000  0.5219290000000  0.5607440000000 1.0
C      1  0.4810390000000  0.5257530000000  0.5122130000000 1.0
C      1  0.4998380000000  0.5111620000000  0.4947870000000 1.0
C      1  0.4650440000000  0.5144350000000  0.5339670000000 1.0
C      1  0.5410190000000  0.4918580000000  0.4540960000000 1.0
C      1  0.5096860000000  0.4835830000000  0.4945780000000 1.0
C      1  0.5339550000000  0.4447680000000  0.4816140000000 1.0
END
