TITL C-4164246-3563-119 79.9610695965563 125000 -27175.615627819 0 0 181 (C1) n - 1
REM
REM in /home/nfs/bkarasulu/CARBON/AIRSS/Generating-Clusters/ReaxFF-fromJPCA2015/Units_Real/with-SteepDescent/Only-C1/SD-CG/Try1-3A/FIRE-CG
REM
REM
REM
REM
REM
REM ./C.cell (11c1c37f851c82e70ff6c80c92926a4b)
REM
REM compiler GCC version 9.2.1 20190827 (Red Hat 9.2.1-1)
REM options -cpp -mtune=generic -march=x86-64 -g -O0 -fpre-include=/usr/include/finclude/math-vector-fortran.h
REM seed -453523888 -338976174 1440928345 1600055059 -143291778 -1756308449 2061886487 139584889 -173506636 -1889159627 -1843455727 102170548 913585686 -1104768060 -1315907552 -488896834 914317254 -875386011 2146321509 -330150608 -376157904 571580784 221908522 -1939662681 -1556958297 -34863419 997575794 1944033767 -2012872564 -1587586852 1316809296 901907482 -1983295334
REM
CELL 1.54180   50.00000   50.00000   50.00000   90.00000   90.00000   90.00000
LATT -1
SFAC C  
C      1  0.5301200000000  0.5235820000000  0.5574380000000 1.0
C      1  0.5167720000000  0.4772120000000  0.5517300000000 1.0
C      1  0.5282000000000  0.4387980000000  0.6008370000000 1.0
C      1  0.5421370000000  0.4940910000000  0.5566710000000 1.0
C      1  0.5501960000000  0.4830910000000  0.4489460000000 1.0
C      1  0.3945820000000  0.4725340000000  0.4981210000000 1.0
C      1  0.5196290000000  0.5626680000000  0.5354700000000 1.0
C      1  0.5030600000000  0.5722540000000  0.4246710000000 1.0
C      1  0.5266050000000  0.4668420000000  0.4465130000000 1.0
C      1  0.4579560000000  0.4475580000000  0.4611180000000 1.0
C      1  0.4551720000000  0.4666660000000  0.5255080000000 1.0
C      1  0.4918660000000  0.5484800000000  0.5995250000000 1.0
C      1  0.5917080000000  0.4494640000000  0.4765410000000 1.0
C      1  0.6049660000000  0.4736270000000  0.4899160000000 1.0
C      1  0.5688980000000  0.4911110000000  0.4274880000000 1.0
C      1  0.5401460000000  0.4878970000000  0.6083520000000 1.0
C      1  0.4459840000000  0.4977950000000  0.4905720000000 1.0
C      1  0.4649730000000  0.5104940000000  0.5178740000000 1.0
C      1  0.4692690000000  0.4895270000000  0.4754960000000 1.0
C      1  0.5600480000000  0.4179840000000  0.5406080000000 1.0
C      1  0.5666080000000  0.5031010000000  0.6188580000000 1.0
C      1  0.4630290000000  0.4472480000000  0.5829500000000 1.0
C      1  0.5355770000000  0.5313050000000  0.4580300000000 1.0
C      1  0.4795890000000  0.4640600000000  0.4780110000000 1.0
C      1  0.5064180000000  0.4147470000000  0.5611070000000 1.0
C      1  0.4799280000000  0.5489220000000  0.5016970000000 1.0
C      1  0.4313080000000  0.4234080000000  0.4919740000000 1.0
C      1  0.5513170000000  0.5692740000000  0.4306780000000 1.0
C      1  0.4253260000000  0.5114570000000  0.4401170000000 1.0
C      1  0.5738220000000  0.4689350000000  0.5830150000000 1.0
C      1  0.5005130000000  0.5141320000000  0.5502060000000 1.0
C      1  0.4725400000000  0.4675060000000  0.6020870000000 1.0
C      1  0.5199810000000  0.5145820000000  0.4990210000000 1.0
C      1  0.5239720000000  0.5580860000000  0.5064210000000 1.0
C      1  0.5175140000000  0.5320560000000  0.6027010000000 1.0
C      1  0.4933880000000  0.4882080000000  0.5936770000000 1.0
C      1  0.5858970000000  0.5356510000000  0.4456530000000 1.0
C      1  0.5279450000000  0.4173710000000  0.4800500000000 1.0
C      1  0.5021370000000  0.4148440000000  0.4407540000000 1.0
C      1  0.4029610000000  0.5630180000000  0.4967540000000 1.0
C      1  0.5040370000000  0.5765880000000  0.5563340000000 1.0
C      1  0.4794900000000  0.5365110000000  0.5540500000000 1.0
C      1  0.3888510000000  0.5216810000000  0.4820400000000 1.0
C      1  0.5609430000000  0.4445790000000  0.4105920000000 1.0
C      1  0.5654470000000  0.5102770000000  0.4849250000000 1.0
C      1  0.4402880000000  0.4477020000000  0.5427710000000 1.0
C      1  0.4357390000000  0.5166880000000  0.4680470000000 1.0
C      1  0.4510810000000  0.5009920000000  0.5426420000000 1.0
C      1  0.5848600000000  0.5601250000000  0.5301250000000 1.0
C      1  0.5580190000000  0.4237000000000  0.4542570000000 1.0
C      1  0.3999090000000  0.5475850000000  0.4732400000000 1.0
C      1  0.5656010000000  0.5904240000000  0.4904950000000 1.0
C      1  0.5144690000000  0.5064920000000  0.3898320000000 1.0
C      1  0.4867160000000  0.5594950000000  0.5725710000000 1.0
C      1  0.4832820000000  0.3990540000000  0.4578890000000 1.0
C      1  0.5567080000000  0.5316020000000  0.3955130000000 1.0
C      1  0.4529910000000  0.3994340000000  0.4575320000000 1.0
C      1  0.4194720000000  0.4334840000000  0.5291510000000 1.0
C      1  0.5625880000000  0.5289750000000  0.4626760000000 1.0
C      1  0.4662060000000  0.5364600000000  0.6010390000000 1.0
C      1  0.4386970000000  0.4659870000000  0.4261830000000 1.0
C      1  0.4596660000000  0.5318160000000  0.4636700000000 1.0
C      1  0.4096960000000  0.5618420000000  0.5631120000000 1.0
C      1  0.5395070000000  0.5969490000000  0.4855500000000 1.0
C      1  0.5038560000000  0.4814110000000  0.4002540000000 1.0
C      1  0.5746190000000  0.4448050000000  0.5397120000000 1.0
C      1  0.5077560000000  0.4900320000000  0.5032540000000 1.0
C      1  0.4077090000000  0.4945720000000  0.5467340000000 1.0
C      1  0.5863530000000  0.5130560000000  0.5440100000000 1.0
C      1  0.6108140000000  0.4809380000000  0.5151160000000 1.0
C      1  0.5036020000000  0.4231310000000  0.4919660000000 1.0
C      1  0.4608560000000  0.4566720000000  0.3854170000000 1.0
C      1  0.4918540000000  0.5001220000000  0.5250480000000 1.0
C      1  0.5388070000000  0.5438790000000  0.5403130000000 1.0
C      1  0.4603580000000  0.4834440000000  0.3769900000000 1.0
C      1  0.4351790000000  0.5440710000000  0.5347440000000 1.0
C      1  0.5521180000000  0.4655860000000  0.4982360000000 1.0
C      1  0.5293070000000  0.4216250000000  0.5790800000000 1.0
C      1  0.5293740000000  0.4155670000000  0.4519130000000 1.0
C      1  0.5650680000000  0.5054010000000  0.4023350000000 1.0
C      1  0.5811770000000  0.4826830000000  0.6062620000000 1.0
C      1  0.4595990000000  0.3980510000000  0.5279060000000 1.0
C      1  0.4754010000000  0.5701760000000  0.4331210000000 1.0
C      1  0.4584630000000  0.5494390000000  0.4217420000000 1.0
C      1  0.4463050000000  0.4785310000000  0.6047010000000 1.0
C      1  0.5333140000000  0.4519170000000  0.4205070000000 1.0
C      1  0.5661080000000  0.4678310000000  0.5237360000000 1.0
C      1  0.5380430000000  0.5387830000000  0.5829400000000 1.0
C      1  0.4920760000000  0.5979390000000  0.4737170000000 1.0
C      1  0.5428500000000  0.5527830000000  0.4085680000000 1.0
C      1  0.4364430000000  0.5800980000000  0.4664670000000 1.0
C      1  0.4448110000000  0.5225700000000  0.5894290000000 1.0
C      1  0.4711240000000  0.5308480000000  0.4034350000000 1.0
C      1  0.6023840000000  0.5121990000000  0.4537840000000 1.0
C      1  0.5227500000000  0.4661050000000  0.4951660000000 1.0
C      1  0.4877470000000  0.4954120000000  0.4195560000000 1.0
C      1  0.4324520000000  0.5414470000000  0.4339690000000 1.0
C      1  0.4941890000000  0.4898620000000  0.5648240000000 1.0
C      1  0.5849100000000  0.5782550000000  0.4688660000000 1.0
C      1  0.4680050000000  0.5555820000000  0.4770850000000 1.0
C      1  0.4408320000000  0.5977730000000  0.5134910000000 1.0
C      1  0.5773240000000  0.5636720000000  0.4446160000000 1.0
C      1  0.4964910000000  0.4400500000000  0.5152860000000 1.0
C      1  0.4985910000000  0.6024150000000  0.5446960000000 1.0
C      1  0.5386380000000  0.4096090000000  0.5232470000000 1.0
C      1  0.3912680000000  0.5460650000000  0.5185130000000 1.0
C      1  0.5730200000000  0.5227200000000  0.5997060000000 1.0
C      1  0.5138220000000  0.5037200000000  0.6076010000000 1.0
C      1  0.4621760000000  0.4520220000000  0.4332080000000 1.0
C      1  0.5467900000000  0.5419810000000  0.5146830000000 1.0
C      1  0.5706300000000  0.4282550000000  0.4799990000000 1.0
C      1  0.5577360000000  0.4213400000000  0.5696580000000 1.0
C      1  0.4643940000000  0.5396180000000  0.5240760000000 1.0
C      1  0.5426330000000  0.5100130000000  0.3860960000000 1.0
C      1  0.4259760000000  0.5168260000000  0.5417890000000 1.0
C      1  0.5265990000000  0.5815020000000  0.4392530000000 1.0
C      1  0.4602730000000  0.5171950000000  0.5654840000000 1.0
C      1  0.5605360000000  0.4837030000000  0.4766290000000 1.0
C      1  0.5202810000000  0.5958220000000  0.4650410000000 1.0
C      1  0.4209270000000  0.5586760000000  0.4540990000000 1.0
C      1  0.5673910000000  0.5414710000000  0.5797420000000 1.0
C      1  0.5431700000000  0.5967630000000  0.5255640000000 1.0
C      1  0.3980660000000  0.4888310000000  0.4459230000000 1.0
C      1  0.4301520000000  0.4619470000000  0.4547150000000 1.0
C      1  0.4277190000000  0.4966160000000  0.5939560000000 1.0
C      1  0.6084930000000  0.5042110000000  0.4811900000000 1.0
C      1  0.5948940000000  0.4870150000000  0.4400340000000 1.0
C      1  0.4700610000000  0.6092810000000  0.5416560000000 1.0
C      1  0.5305690000000  0.4572530000000  0.6199430000000 1.0
C      1  0.5491700000000  0.5151210000000  0.5074650000000 1.0
C      1  0.6109010000000  0.5052600000000  0.5296980000000 1.0
C      1  0.5102380000000  0.4620620000000  0.4699500000000 1.0
C      1  0.4371660000000  0.4738660000000  0.5058390000000 1.0
C      1  0.5676890000000  0.5836660000000  0.5200780000000 1.0
C      1  0.4785440000000  0.4234290000000  0.5708280000000 1.0
C      1  0.4032250000000  0.4541970000000  0.4618680000000 1.0
C      1  0.5108580000000  0.4040850000000  0.5339740000000 1.0
C      1  0.5145150000000  0.4539400000000  0.5348910000000 1.0
C      1  0.4973280000000  0.5094250000000  0.4426510000000 1.0
C      1  0.6029560000000  0.5499410000000  0.5092800000000 1.0
C      1  0.3959900000000  0.5540550000000  0.5459620000000 1.0
C      1  0.4445470000000  0.5937230000000  0.5419560000000 1.0
C      1  0.5105020000000  0.5325920000000  0.4556440000000 1.0
C      1  0.4549240000000  0.4226030000000  0.4755770000000 1.0
C      1  0.3904600000000  0.4918880000000  0.4735320000000 1.0
C      1  0.5055340000000  0.5394730000000  0.4906800000000 1.0
C      1  0.4928270000000  0.6069430000000  0.5000450000000 1.0
C      1  0.3929260000000  0.4908940000000  0.5206850000000 1.0
C      1  0.4335640000000  0.4107190000000  0.5169840000000 1.0
C      1  0.4256790000000  0.5823210000000  0.4930290000000 1.0
C      1  0.4781850000000  0.5103410000000  0.4618860000000 1.0
C      1  0.4987500000000  0.5308810000000  0.3964210000000 1.0
C      1  0.6069370000000  0.5673770000000  0.4850640000000 1.0
C      1  0.4652770000000  0.4387660000000  0.4102100000000 1.0
C      1  0.4874860000000  0.3944870000000  0.5167040000000 1.0
C      1  0.4901570000000  0.3980760000000  0.4871840000000 1.0
C      1  0.5496370000000  0.4174460000000  0.4973060000000 1.0
C      1  0.4197280000000  0.4806300000000  0.5707430000000 1.0
C      1  0.4260450000000  0.4074470000000  0.4508000000000 1.0
C      1  0.5495480000000  0.4821450000000  0.5809400000000 1.0
C      1  0.4167910000000  0.4524480000000  0.5032670000000 1.0
C      1  0.5764070000000  0.4440990000000  0.5687520000000 1.0
C      1  0.4616960000000  0.5030110000000  0.4040360000000 1.0
C      1  0.4928980000000  0.4319170000000  0.4177880000000 1.0
C      1  0.5164620000000  0.6059930000000  0.5211520000000 1.0
C      1  0.6117380000000  0.5213700000000  0.5046860000000 1.0
C      1  0.5635890000000  0.4962180000000  0.5333450000000 1.0
C      1  0.4685130000000  0.5810970000000  0.4605480000000 1.0
C      1  0.5939180000000  0.4585330000000  0.4494920000000 1.0
C      1  0.4744780000000  0.4566980000000  0.5071160000000 1.0
C      1  0.5141760000000  0.5534450000000  0.4053720000000 1.0
C      1  0.4356670000000  0.5668120000000  0.5535780000000 1.0
C      1  0.3861480000000  0.5180910000000  0.5100210000000 1.0
C      1  0.4668670000000  0.6131290000000  0.5126070000000 1.0
C      1  0.4658990000000  0.4108420000000  0.5507940000000 1.0
C      1  0.4394470000000  0.4943650000000  0.4207400000000 1.0
C      1  0.5094800000000  0.4523590000000  0.4041090000000 1.0
C      1  0.5815870000000  0.5406880000000  0.5517320000000 1.0
C      1  0.5758230000000  0.4384790000000  0.4357790000000 1.0
C      1  0.4372770000000  0.4558440000000  0.5705360000000 1.0
C      1  0.4082910000000  0.4275380000000  0.4544840000000 1.0
END
