TITL C-4164237-1827-269 39.0382488090616 125000 -28035.6739233804 0 0 186 (C1) n - 1
REM
REM in /home/nfs/bkarasulu/CARBON/AIRSS/Generating-Clusters/ReaxFF-fromJPCA2015/Units_Real/with-SteepDescent/Only-C1/SD-CG/Try1-3A/FIRE-CG
REM
REM
REM
REM
REM
REM ./C.cell (11c1c37f851c82e70ff6c80c92926a4b)
REM
REM compiler GCC version 9.2.1 20190827 (Red Hat 9.2.1-1)
REM options -cpp -mtune=generic -march=x86-64 -g -O0 -fpre-include=/usr/include/finclude/math-vector-fortran.h
REM seed 77521492 1101423506 292215851 147317299 -1525598626 -2121647579 89960257 -427779536 -2109724146 134302777 -761161281 1391338437 1982946051 801980138 -1915523275 1574263107 -646961640 -1741577470 1360240423 -474806003 -1789315095 236800657 -888240170 1763797867 -2091375889 229411408 17926375 87284859 -460058000 -754911704 -434272961 -119251718 896715243
REM
CELL 1.54180   50.00000   50.00000   50.00000   90.00000   90.00000   90.00000
LATT -1
SFAC C  
C      1  0.4038740000000  0.5023980000000  0.5054630000000 1.0
C      1  0.5542840000000  0.5222500000000  0.4106310000000 1.0
C      1  0.6048850000000  0.4944640000000  0.4967370000000 1.0
C      1  0.5724560000000  0.5493280000000  0.5756460000000 1.0
C      1  0.5186590000000  0.4212400000000  0.4238000000000 1.0
C      1  0.4969810000000  0.4904410000000  0.5800460000000 1.0
C      1  0.5591950000000  0.4129440000000  0.4901690000000 1.0
C      1  0.4205680000000  0.5631360000000  0.4735340000000 1.0
C      1  0.4283720000000  0.5115020000000  0.4387060000000 1.0
C      1  0.5000420000000  0.5524880000000  0.5903190000000 1.0
C      1  0.4365260000000  0.4653370000000  0.4471680000000 1.0
C      1  0.4795770000000  0.5245790000000  0.3912850000000 1.0
C      1  0.4325720000000  0.4249980000000  0.4985050000000 1.0
C      1  0.4290730000000  0.4736680000000  0.4742180000000 1.0
C      1  0.5833480000000  0.5579030000000  0.5501260000000 1.0
C      1  0.3986810000000  0.4474450000000  0.4640720000000 1.0
C      1  0.4794770000000  0.4072440000000  0.5143370000000 1.0
C      1  0.4591390000000  0.5650490000000  0.5407640000000 1.0
C      1  0.4336840000000  0.4848900000000  0.4274960000000 1.0
C      1  0.4461610000000  0.4750760000000  0.4981000000000 1.0
C      1  0.4881870000000  0.5084360000000  0.6024710000000 1.0
C      1  0.4539460000000  0.4390650000000  0.5625070000000 1.0
C      1  0.4409150000000  0.4182220000000  0.4523610000000 1.0
C      1  0.5969060000000  0.5095590000000  0.4474410000000 1.0
C      1  0.4975030000000  0.5771780000000  0.5739210000000 1.0
C      1  0.5215810000000  0.4380220000000  0.5888030000000 1.0
C      1  0.4189540000000  0.4272320000000  0.4705640000000 1.0
C      1  0.5363340000000  0.6102980000000  0.4841540000000 1.0
C      1  0.5470750000000  0.4495320000000  0.5068720000000 1.0
C      1  0.4771130000000  0.5343680000000  0.5945340000000 1.0
C      1  0.4605280000000  0.4496940000000  0.4976450000000 1.0
C      1  0.4547770000000  0.5821470000000  0.5184860000000 1.0
C      1  0.5320810000000  0.5297110000000  0.3911940000000 1.0
C      1  0.5083880000000  0.5201010000000  0.4283380000000 1.0
C      1  0.4039750000000  0.5045180000000  0.4577600000000 1.0
C      1  0.4563840000000  0.5903970000000  0.4480140000000 1.0
C      1  0.4554880000000  0.5203550000000  0.4530180000000 1.0
C      1  0.5066650000000  0.5489420000000  0.5357610000000 1.0
C      1  0.5145570000000  0.3815490000000  0.5394420000000 1.0
C      1  0.4887930000000  0.3941550000000  0.4587960000000 1.0
C      1  0.4481170000000  0.5294460000000  0.5893070000000 1.0
C      1  0.4797560000000  0.4522200000000  0.3980560000000 1.0
C      1  0.5555740000000  0.5682120000000  0.4412660000000 1.0
C      1  0.4584150000000  0.5373330000000  0.5310660000000 1.0
C      1  0.4415130000000  0.5638760000000  0.4470980000000 1.0
C      1  0.5641570000000  0.4922230000000  0.4058160000000 1.0
C      1  0.5057580000000  0.4995490000000  0.4886500000000 1.0
C      1  0.4564070000000  0.4064030000000  0.4958470000000 1.0
C      1  0.4055720000000  0.4539210000000  0.5580640000000 1.0
C      1  0.5116120000000  0.5016820000000  0.5311560000000 1.0
C      1  0.5926250000000  0.5356300000000  0.5333240000000 1.0
C      1  0.5235430000000  0.4411630000000  0.5221500000000 1.0
C      1  0.4317260000000  0.4806210000000  0.5895040000000 1.0
C      1  0.5113950000000  0.5692690000000  0.4120100000000 1.0
C      1  0.4914280000000  0.4795980000000  0.3985620000000 1.0
C      1  0.5625090000000  0.4270450000000  0.5172390000000 1.0
C      1  0.4301860000000  0.5077130000000  0.5141550000000 1.0
C      1  0.4739060000000  0.4764010000000  0.5685920000000 1.0
C      1  0.4545770000000  0.4589840000000  0.5854670000000 1.0
C      1  0.3929470000000  0.4856240000000  0.5268510000000 1.0
C      1  0.5405770000000  0.4750150000000  0.4050070000000 1.0
C      1  0.4998770000000  0.4035600000000  0.4344580000000 1.0
C      1  0.5439890000000  0.5840230000000  0.5616990000000 1.0
C      1  0.5641820000000  0.5990930000000  0.4870410000000 1.0
C      1  0.5370120000000  0.4916460000000  0.6074940000000 1.0
C      1  0.5276340000000  0.4524550000000  0.5480110000000 1.0
C      1  0.4279670000000  0.5883370000000  0.4852870000000 1.0
C      1  0.4353510000000  0.5257040000000  0.4114620000000 1.0
C      1  0.5196290000000  0.4297730000000  0.4660950000000 1.0
C      1  0.5063290000000  0.6040450000000  0.4396630000000 1.0
C      1  0.5171660000000  0.5940980000000  0.5605510000000 1.0
C      1  0.5780210000000  0.5395750000000  0.5083700000000 1.0
C      1  0.5963370000000  0.5076440000000  0.5437120000000 1.0
C      1  0.4281520000000  0.5894200000000  0.5148610000000 1.0
C      1  0.4707330000000  0.3862730000000  0.5609360000000 1.0
C      1  0.5021240000000  0.6051370000000  0.5330620000000 1.0
C      1  0.4908520000000  0.4978360000000  0.4216840000000 1.0
C      1  0.4612640000000  0.4032640000000  0.4675610000000 1.0
C      1  0.5747920000000  0.5107500000000  0.4672250000000 1.0
C      1  0.4071510000000  0.5464900000000  0.5231550000000 1.0
C      1  0.4716440000000  0.5182920000000  0.5466910000000 1.0
C      1  0.4659910000000  0.4966000000000  0.4943930000000 1.0
C      1  0.4819210000000  0.4311620000000  0.5592040000000 1.0
C      1  0.4005830000000  0.4781630000000  0.4699110000000 1.0
C      1  0.5843850000000  0.5009280000000  0.5690670000000 1.0
C      1  0.4819870000000  0.4836220000000  0.4443870000000 1.0
C      1  0.5532720000000  0.4663710000000  0.5537850000000 1.0
C      1  0.6178960000000  0.4768130000000  0.4767530000000 1.0
C      1  0.4743560000000  0.4461620000000  0.4766430000000 1.0
C      1  0.5764380000000  0.4927310000000  0.4892340000000 1.0
C      1  0.4973810000000  0.5236770000000  0.5385010000000 1.0
C      1  0.4972620000000  0.4465140000000  0.4661750000000 1.0
C      1  0.4673950000000  0.4956810000000  0.6180830000000 1.0
C      1  0.5296470000000  0.4857370000000  0.4793410000000 1.0
C      1  0.5168130000000  0.4955580000000  0.5593930000000 1.0
C      1  0.5111280000000  0.5432970000000  0.4677100000000 1.0
C      1  0.6064990000000  0.4865600000000  0.5250970000000 1.0
C      1  0.4136410000000  0.5722080000000  0.5343100000000 1.0
C      1  0.4666530000000  0.5469730000000  0.4570080000000 1.0
C      1  0.4746860000000  0.4452720000000  0.6078340000000 1.0
C      1  0.5365390000000  0.3925270000000  0.4908150000000 1.0
C      1  0.5803440000000  0.4763590000000  0.4218360000000 1.0
C      1  0.5870850000000  0.4437040000000  0.4644190000000 1.0
C      1  0.4611910000000  0.4906800000000  0.5467140000000 1.0
C      1  0.6056300000000  0.4522350000000  0.4868540000000 1.0
C      1  0.5278940000000  0.5438860000000  0.5928000000000 1.0
C      1  0.5137480000000  0.4022400000000  0.4734970000000 1.0
C      1  0.4430550000000  0.5037380000000  0.6025370000000 1.0
C      1  0.5154860000000  0.5425090000000  0.4110760000000 1.0
C      1  0.5191690000000  0.3975990000000  0.5639580000000 1.0
C      1  0.4838230000000  0.5752470000000  0.4096330000000 1.0
C      1  0.5600860000000  0.4734460000000  0.6013290000000 1.0
C      1  0.4687260000000  0.5509460000000  0.4025840000000 1.0
C      1  0.5393160000000  0.4167590000000  0.5679110000000 1.0
C      1  0.6034130000000  0.4575570000000  0.5166340000000 1.0
C      1  0.5354150000000  0.4841650000000  0.4506030000000 1.0
C      1  0.5687280000000  0.5453260000000  0.4252050000000 1.0
C      1  0.4403140000000  0.4846700000000  0.5275040000000 1.0
C      1  0.5267930000000  0.3860230000000  0.5156380000000 1.0
C      1  0.5703000000000  0.5770630000000  0.4683790000000 1.0
C      1  0.5194840000000  0.6126080000000  0.4622590000000 1.0
C      1  0.4917750000000  0.4573390000000  0.4421710000000 1.0
C      1  0.5395400000000  0.4345240000000  0.4440900000000 1.0
C      1  0.4961240000000  0.4316200000000  0.5152650000000 1.0
C      1  0.5472720000000  0.5628390000000  0.5815220000000 1.0
C      1  0.5728180000000  0.4738800000000  0.5742340000000 1.0
C      1  0.5500620000000  0.5260280000000  0.4622700000000 1.0
C      1  0.5212740000000  0.5870250000000  0.4934200000000 1.0
C      1  0.4019260000000  0.5010100000000  0.5500180000000 1.0
C      1  0.4439410000000  0.4409480000000  0.4341690000000 1.0
C      1  0.5989920000000  0.5486290000000  0.4607410000000 1.0
C      1  0.5375480000000  0.5462420000000  0.4762950000000 1.0
C      1  0.5177940000000  0.4865660000000  0.3887450000000 1.0
C      1  0.4725900000000  0.5794550000000  0.4964600000000 1.0
C      1  0.5086290000000  0.5141380000000  0.3831390000000 1.0
C      1  0.5949630000000  0.4614040000000  0.4404040000000 1.0
C      1  0.5957900000000  0.5367070000000  0.4352910000000 1.0
C      1  0.5356970000000  0.5637220000000  0.4981700000000 1.0
C      1  0.4957720000000  0.4267240000000  0.5998870000000 1.0
C      1  0.4306000000000  0.5653580000000  0.5570440000000 1.0
C      1  0.3976380000000  0.4562740000000  0.5300380000000 1.0
C      1  0.5643180000000  0.4275200000000  0.4655610000000 1.0
C      1  0.5053400000000  0.4478980000000  0.5654460000000 1.0
C      1  0.4792340000000  0.5948670000000  0.4303660000000 1.0
C      1  0.5508600000000  0.5313690000000  0.5163630000000 1.0
C      1  0.4706590000000  0.4993890000000  0.4653680000000 1.0
C      1  0.4106150000000  0.5290400000000  0.5473030000000 1.0
C      1  0.4836160000000  0.3857030000000  0.5354400000000 1.0
C      1  0.4881440000000  0.5677570000000  0.5480890000000 1.0
C      1  0.4995440000000  0.5582930000000  0.4485410000000 1.0
C      1  0.4738990000000  0.4673860000000  0.6270210000000 1.0
C      1  0.4970160000000  0.5924280000000  0.5059250000000 1.0
C      1  0.5531250000000  0.4199330000000  0.5439700000000 1.0
C      1  0.4082110000000  0.5449800000000  0.4920210000000 1.0
C      1  0.5510420000000  0.4805580000000  0.5006780000000 1.0
C      1  0.5677090000000  0.5821230000000  0.5420850000000 1.0
C      1  0.6120320000000  0.4840010000000  0.4489130000000 1.0
C      1  0.5418590000000  0.5033620000000  0.5239000000000 1.0
C      1  0.5206840000000  0.5758190000000  0.4372680000000 1.0
C      1  0.4279170000000  0.5403400000000  0.5699950000000 1.0
C      1  0.4437010000000  0.5516580000000  0.4183010000000 1.0
C      1  0.4182440000000  0.4353690000000  0.5226470000000 1.0
C      1  0.3971250000000  0.5190840000000  0.4814570000000 1.0
C      1  0.4982670000000  0.4415020000000  0.4185960000000 1.0
C      1  0.4901480000000  0.4852760000000  0.5095530000000 1.0
C      1  0.4916290000000  0.4068170000000  0.5756440000000 1.0
C      1  0.4724270000000  0.5445930000000  0.4875840000000 1.0
C      1  0.5377780000000  0.4631580000000  0.4324810000000 1.0
C      1  0.4555710000000  0.5098710000000  0.3963590000000 1.0
C      1  0.5427190000000  0.5182090000000  0.5959730000000 1.0
C      1  0.5864350000000  0.5572150000000  0.4843690000000 1.0
C      1  0.4523880000000  0.4514970000000  0.4075040000000 1.0
C      1  0.5686990000000  0.5934250000000  0.5154680000000 1.0
C      1  0.5447590000000  0.4941670000000  0.5526370000000 1.0
C      1  0.4105460000000  0.4806410000000  0.5702740000000 1.0
C      1  0.5344430000000  0.4623060000000  0.6049350000000 1.0
C      1  0.4551330000000  0.5947540000000  0.4762810000000 1.0
C      1  0.4272970000000  0.4344490000000  0.5505900000000 1.0
C      1  0.5357510000000  0.5132010000000  0.4386050000000 1.0
C      1  0.4531010000000  0.5266390000000  0.5044950000000 1.0
C      1  0.5319110000000  0.5517510000000  0.5223660000000 1.0
C      1  0.4817390000000  0.4565730000000  0.5151610000000 1.0
C      1  0.4858840000000  0.6242010000000  0.5285220000000 1.0
C      1  0.5691290000000  0.5214980000000  0.5834860000000 1.0
C      1  0.4957280000000  0.5264460000000  0.4850500000000 1.0
C      1  0.4481950000000  0.4799810000000  0.4036170000000 1.0
END
