TITL C-4164245-3996-84 -9.76046313523592 125000 -13651.2448783442 0 0 93 (C1) n - 1
REM
REM in /home/nfs/bkarasulu/CARBON/AIRSS/Generating-Clusters/ReaxFF-fromJPCA2015/Units_Real/with-SteepDescent/Only-C1/SD-CG/Try1-3A/FIRE-CG
REM
REM
REM
REM
REM
REM ./C.cell (11c1c37f851c82e70ff6c80c92926a4b)
REM
REM compiler GCC version 9.2.1 20190827 (Red Hat 9.2.1-1)
REM options -cpp -mtune=generic -march=x86-64 -g -O0 -fpre-include=/usr/include/finclude/math-vector-fortran.h
REM seed -1297267678 -129392390 179220448 906188817 -1918553704 199015592 339538395 -700849140 -369379950 -1566845213 1428791695 1449436029 -748141337 -1683790125 -2058932136 750989266 -1926614083 85422449 1486145730 -2048469868 -1715410128 1279341911 -1597778712 -2021819118 -705252701 474707895 1609150048 -216886872 971050256 -1580342458 685484857 1024855261 1346489454
REM
CELL 1.54180   50.00000   50.00000   50.00000   90.00000   90.00000   90.00000
LATT -1
SFAC C  
C      1  0.4557580000000  0.5710900000000  0.4815760000000 1.0
C      1  0.5538940000000  0.4536660000000  0.5147360000000 1.0
C      1  0.5106430000000  0.4703650000000  0.4203530000000 1.0
C      1  0.4186500000000  0.5329000000000  0.4916130000000 1.0
C      1  0.4671730000000  0.5121310000000  0.5329470000000 1.0
C      1  0.4301040000000  0.4872290000000  0.5698300000000 1.0
C      1  0.4925550000000  0.5624880000000  0.5278480000000 1.0
C      1  0.5118820000000  0.5460140000000  0.4411370000000 1.0
C      1  0.4562890000000  0.4539080000000  0.5637900000000 1.0
C      1  0.5679100000000  0.5466950000000  0.4673260000000 1.0
C      1  0.5604080000000  0.5272700000000  0.4473510000000 1.0
C      1  0.4713820000000  0.4461820000000  0.4419600000000 1.0
C      1  0.5309410000000  0.4302420000000  0.4781390000000 1.0
C      1  0.5474390000000  0.5359700000000  0.5610600000000 1.0
C      1  0.4531470000000  0.4684050000000  0.4348840000000 1.0
C      1  0.5058020000000  0.4855960000000  0.5575890000000 1.0
C      1  0.4140840000000  0.4914780000000  0.4631010000000 1.0
C      1  0.5276120000000  0.5182020000000  0.4972040000000 1.0
C      1  0.5238870000000  0.5356560000000  0.5515500000000 1.0
C      1  0.4228400000000  0.4741230000000  0.5307830000000 1.0
C      1  0.5507190000000  0.5685620000000  0.4756970000000 1.0
C      1  0.4643010000000  0.5702040000000  0.5332380000000 1.0
C      1  0.5565920000000  0.4437230000000  0.4739940000000 1.0
C      1  0.4990480000000  0.4453650000000  0.4312130000000 1.0
C      1  0.5167510000000  0.4254310000000  0.5060160000000 1.0
C      1  0.5016840000000  0.5857940000000  0.4705800000000 1.0
C      1  0.4229780000000  0.5004220000000  0.5443140000000 1.0
C      1  0.4376820000000  0.5271370000000  0.5373320000000 1.0
C      1  0.5754140000000  0.4551350000000  0.4945650000000 1.0
C      1  0.4833730000000  0.5322840000000  0.4888630000000 1.0
C      1  0.5097880000000  0.4598700000000  0.5729670000000 1.0
C      1  0.4529670000000  0.5091250000000  0.4252080000000 1.0
C      1  0.4749290000000  0.4379490000000  0.5481880000000 1.0
C      1  0.4592610000000  0.4898100000000  0.5158310000000 1.0
C      1  0.5243420000000  0.4771400000000  0.4573800000000 1.0
C      1  0.4789060000000  0.5008650000000  0.5632330000000 1.0
C      1  0.4996020000000  0.4898660000000  0.5005020000000 1.0
C      1  0.4921150000000  0.4054060000000  0.4984850000000 1.0
C      1  0.5554060000000  0.4731270000000  0.5578090000000 1.0
C      1  0.4682560000000  0.4391570000000  0.5192250000000 1.0
C      1  0.5208190000000  0.4939350000000  0.4179910000000 1.0
C      1  0.4458660000000  0.4636750000000  0.5102140000000 1.0
C      1  0.4861760000000  0.5268340000000  0.5806740000000 1.0
C      1  0.4679640000000  0.4909420000000  0.4297160000000 1.0
C      1  0.4773160000000  0.5737420000000  0.4611700000000 1.0
C      1  0.4499130000000  0.5518840000000  0.5521930000000 1.0
C      1  0.5926810000000  0.5087760000000  0.4833940000000 1.0
C      1  0.4815270000000  0.4969250000000  0.4514260000000 1.0
C      1  0.5171640000000  0.5757660000000  0.5196520000000 1.0
C      1  0.5211220000000  0.5453160000000  0.4901210000000 1.0
C      1  0.4946460000000  0.4432730000000  0.5092510000000 1.0
C      1  0.5140900000000  0.5196290000000  0.5232360000000 1.0
C      1  0.4886890000000  0.5328210000000  0.5175770000000 1.0
C      1  0.4151280000000  0.5210830000000  0.4666540000000 1.0
C      1  0.5467650000000  0.4962220000000  0.4918450000000 1.0
C      1  0.5052250000000  0.4595870000000  0.4680020000000 1.0
C      1  0.5299030000000  0.5209620000000  0.4370610000000 1.0
C      1  0.4602770000000  0.4348970000000  0.4675120000000 1.0
C      1  0.5620750000000  0.4874160000000  0.4675980000000 1.0
C      1  0.5048310000000  0.5867080000000  0.4982250000000 1.0
C      1  0.5816090000000  0.4857490000000  0.5225470000000 1.0
C      1  0.4274960000000  0.4602740000000  0.5565600000000 1.0
C      1  0.4281000000000  0.5458730000000  0.5145230000000 1.0
C      1  0.5509690000000  0.4644640000000  0.4540600000000 1.0
C      1  0.5203450000000  0.5047360000000  0.4597170000000 1.0
C      1  0.5904200000000  0.4812960000000  0.4973660000000 1.0
C      1  0.4415780000000  0.5342690000000  0.4563560000000 1.0
C      1  0.5654790000000  0.5403060000000  0.5166630000000 1.0
C      1  0.5109350000000  0.5395690000000  0.5756870000000 1.0
C      1  0.5316720000000  0.4784710000000  0.5732830000000 1.0
C      1  0.4678090000000  0.4194810000000  0.4923740000000 1.0
C      1  0.4592030000000  0.4815790000000  0.5742160000000 1.0
C      1  0.5260050000000  0.4328520000000  0.5368660000000 1.0
C      1  0.5802730000000  0.5077570000000  0.4558620000000 1.0
C      1  0.4471180000000  0.5687930000000  0.5096030000000 1.0
C      1  0.4582670000000  0.5419950000000  0.4798100000000 1.0
C      1  0.4938120000000  0.5082680000000  0.4748990000000 1.0
C      1  0.4722170000000  0.5476510000000  0.5682180000000 1.0
C      1  0.5037750000000  0.4371030000000  0.5552640000000 1.0
C      1  0.4948880000000  0.4638160000000  0.4927980000000 1.0
C      1  0.5503110000000  0.4471650000000  0.5433680000000 1.0
C      1  0.5410160000000  0.4795880000000  0.5130990000000 1.0
C      1  0.5427270000000  0.5607110000000  0.5045180000000 1.0
C      1  0.5799160000000  0.5330070000000  0.4932800000000 1.0
C      1  0.5719460000000  0.4951500000000  0.5457690000000 1.0
C      1  0.5235420000000  0.5645060000000  0.4621480000000 1.0
C      1  0.5665680000000  0.5264420000000  0.5425690000000 1.0
C      1  0.5109170000000  0.4331390000000  0.4567750000000 1.0
C      1  0.5155610000000  0.4903770000000  0.5254330000000 1.0
C      1  0.4419870000000  0.4527750000000  0.4801800000000 1.0
C      1  0.4322180000000  0.4690250000000  0.4583530000000 1.0
C      1  0.4837720000000  0.5516440000000  0.4417480000000 1.0
C      1  0.4588550000000  0.5357950000000  0.4331580000000 1.0
END
