TITL C-4164234-2335-231 25.2369545573491 125000 -22419.5292902091 0 0 151 (C1) n - 1
REM
REM in /home/nfs/bkarasulu/CARBON/AIRSS/Generating-Clusters/ReaxFF-fromJPCA2015/Units_Real/with-SteepDescent/Only-C1/SD-CG/Try1-3A/FIRE-CG
REM
REM
REM
REM
REM
REM ./C.cell (11c1c37f851c82e70ff6c80c92926a4b)
REM
REM compiler GCC version 9.2.1 20190827 (Red Hat 9.2.1-1)
REM options -cpp -mtune=generic -march=x86-64 -g -O0 -fpre-include=/usr/include/finclude/math-vector-fortran.h
REM seed 647587474 -513842750 -1684821964 -622139144 -1553991655 931440522 1792292 604222186 -596045540 -132334786 -1444436081 1220191998 83157907 1773044809 -2036879076 -97658107 845307487 1674680571 1695554937 -56030322 -815174927 -226758703 -587472972 1484997491 -1739565570 -756484315 608165849 -284020876 -1617199616 2043201341 214352041 -192801089 -591493410
REM
CELL 1.54180   50.00000   50.00000   50.00000   90.00000   90.00000   90.00000
LATT -1
SFAC C  
C      1  0.5464470000000  0.4679130000000  0.5408420000000 1.0
C      1  0.5036430000000  0.4489720000000  0.4696280000000 1.0
C      1  0.5141480000000  0.4987180000000  0.5342720000000 1.0
C      1  0.4631130000000  0.4481850000000  0.5826620000000 1.0
C      1  0.4976930000000  0.5210080000000  0.5629540000000 1.0
C      1  0.4197770000000  0.4312890000000  0.4763600000000 1.0
C      1  0.5570500000000  0.5778920000000  0.5087290000000 1.0
C      1  0.5416460000000  0.4931490000000  0.5953360000000 1.0
C      1  0.4458120000000  0.4855390000000  0.5643550000000 1.0
C      1  0.3961550000000  0.4733650000000  0.4924430000000 1.0
C      1  0.4589920000000  0.4091360000000  0.5321640000000 1.0
C      1  0.4727050000000  0.4308200000000  0.4322730000000 1.0
C      1  0.4773540000000  0.6033850000000  0.4778690000000 1.0
C      1  0.5266360000000  0.4890280000000  0.4949410000000 1.0
C      1  0.5161020000000  0.3903770000000  0.4835120000000 1.0
C      1  0.4428740000000  0.5798880000000  0.5591270000000 1.0
C      1  0.5003170000000  0.4949000000000  0.4853900000000 1.0
C      1  0.5186560000000  0.5371220000000  0.5929760000000 1.0
C      1  0.5275900000000  0.4007690000000  0.5091280000000 1.0
C      1  0.5790590000000  0.4640800000000  0.4394310000000 1.0
C      1  0.4602700000000  0.5692890000000  0.4576420000000 1.0
C      1  0.4111570000000  0.5368940000000  0.4963770000000 1.0
C      1  0.4520770000000  0.5386930000000  0.4223740000000 1.0
C      1  0.4733930000000  0.5351080000000  0.5338870000000 1.0
C      1  0.4710800000000  0.4670650000000  0.3955950000000 1.0
C      1  0.4335520000000  0.5598670000000  0.5411970000000 1.0
C      1  0.4130240000000  0.4726620000000  0.5300120000000 1.0
C      1  0.4756310000000  0.4975440000000  0.4996390000000 1.0
C      1  0.5483770000000  0.4703220000000  0.5742610000000 1.0
C      1  0.5470120000000  0.5036270000000  0.4801850000000 1.0
C      1  0.5373080000000  0.4632760000000  0.4379970000000 1.0
C      1  0.4167770000000  0.5641800000000  0.4565930000000 1.0
C      1  0.5517470000000  0.5068380000000  0.4522590000000 1.0
C      1  0.3990040000000  0.5204050000000  0.4734170000000 1.0
C      1  0.5002110000000  0.4630160000000  0.4000510000000 1.0
C      1  0.4663880000000  0.5835180000000  0.5751280000000 1.0
C      1  0.5072160000000  0.5079490000000  0.4369120000000 1.0
C      1  0.4394100000000  0.5597190000000  0.4379300000000 1.0
C      1  0.5709710000000  0.5111230000000  0.5192750000000 1.0
C      1  0.5786150000000  0.5153300000000  0.4428600000000 1.0
C      1  0.4482860000000  0.4326090000000  0.5637310000000 1.0
C      1  0.5893470000000  0.4662750000000  0.4661670000000 1.0
C      1  0.4761650000000  0.5382430000000  0.5630210000000 1.0
C      1  0.5837720000000  0.4998700000000  0.5641960000000 1.0
C      1  0.4348670000000  0.4860500000000  0.4691170000000 1.0
C      1  0.5524270000000  0.4945770000000  0.4067600000000 1.0
C      1  0.5705660000000  0.5006150000000  0.4942000000000 1.0
C      1  0.4456340000000  0.5329040000000  0.4942960000000 1.0
C      1  0.5102390000000  0.5308360000000  0.4552510000000 1.0
C      1  0.4232160000000  0.5041120000000  0.5684050000000 1.0
C      1  0.5575470000000  0.5251810000000  0.4010510000000 1.0
C      1  0.4881740000000  0.4433450000000  0.5136530000000 1.0
C      1  0.4645180000000  0.5466100000000  0.4750480000000 1.0
C      1  0.5939750000000  0.5199690000000  0.4690330000000 1.0
C      1  0.4779840000000  0.5051140000000  0.5276770000000 1.0
C      1  0.6005410000000  0.4814910000000  0.5138440000000 1.0
C      1  0.5877450000000  0.4492470000000  0.5609950000000 1.0
C      1  0.4843790000000  0.5943050000000  0.5059550000000 1.0
C      1  0.4493700000000  0.5429830000000  0.5227310000000 1.0
C      1  0.4638730000000  0.5930280000000  0.5473070000000 1.0
C      1  0.5676570000000  0.5394330000000  0.4236370000000 1.0
C      1  0.5363770000000  0.4921510000000  0.4338730000000 1.0
C      1  0.5075490000000  0.4768180000000  0.5514190000000 1.0
C      1  0.4553020000000  0.4501100000000  0.5061020000000 1.0
C      1  0.5524330000000  0.5620500000000  0.4349570000000 1.0
C      1  0.5233430000000  0.4813900000000  0.3928230000000 1.0
C      1  0.5147360000000  0.4470020000000  0.4435340000000 1.0
C      1  0.5134140000000  0.5849780000000  0.4488760000000 1.0
C      1  0.5576970000000  0.5740470000000  0.4613700000000 1.0
C      1  0.4837870000000  0.4671900000000  0.4603010000000 1.0
C      1  0.4041880000000  0.4908750000000  0.4728560000000 1.0
C      1  0.5374660000000  0.4889070000000  0.5218520000000 1.0
C      1  0.5123010000000  0.4928790000000  0.3736190000000 1.0
C      1  0.4408730000000  0.5210890000000  0.5826760000000 1.0
C      1  0.5569100000000  0.4434540000000  0.4375430000000 1.0
C      1  0.5035070000000  0.5490620000000  0.5225400000000 1.0
C      1  0.5589990000000  0.5735370000000  0.5376450000000 1.0
C      1  0.4988280000000  0.5259700000000  0.4119230000000 1.0
C      1  0.5954560000000  0.4922630000000  0.4834250000000 1.0
C      1  0.5124490000000  0.4441190000000  0.4959190000000 1.0
C      1  0.4503320000000  0.5038610000000  0.4878030000000 1.0
C      1  0.5091740000000  0.5391780000000  0.4950300000000 1.0
C      1  0.5214040000000  0.4052740000000  0.4576490000000 1.0
C      1  0.4412310000000  0.4709370000000  0.5222680000000 1.0
C      1  0.4656300000000  0.4778530000000  0.5815330000000 1.0
C      1  0.4407230000000  0.4268480000000  0.5175100000000 1.0
C      1  0.5435390000000  0.5213700000000  0.5904790000000 1.0
C      1  0.4382090000000  0.4899420000000  0.4405100000000 1.0
C      1  0.4840840000000  0.4104760000000  0.5147150000000 1.0
C      1  0.4082970000000  0.5381910000000  0.4543070000000 1.0
C      1  0.5547530000000  0.5374890000000  0.5535190000000 1.0
C      1  0.5156160000000  0.5278370000000  0.5418500000000 1.0
C      1  0.5578450000000  0.4280450000000  0.4806540000000 1.0
C      1  0.5375600000000  0.5602790000000  0.5533040000000 1.0
C      1  0.4928840000000  0.4112570000000  0.4570220000000 1.0
C      1  0.5782420000000  0.4741640000000  0.5755230000000 1.0
C      1  0.4908020000000  0.5398030000000  0.4735790000000 1.0
C      1  0.5767990000000  0.5501130000000  0.5420570000000 1.0
C      1  0.4773940000000  0.5444030000000  0.4083450000000 1.0
C      1  0.4566780000000  0.4884360000000  0.5387290000000 1.0
C      1  0.4072230000000  0.4995710000000  0.5421720000000 1.0
C      1  0.5072500000000  0.5789120000000  0.5145760000000 1.0
C      1  0.3975990000000  0.4542630000000  0.5122680000000 1.0
C      1  0.5301400000000  0.5312690000000  0.4760290000000 1.0
C      1  0.4135980000000  0.4289170000000  0.5048980000000 1.0
C      1  0.4424880000000  0.4523320000000  0.4746780000000 1.0
C      1  0.5009650000000  0.4508310000000  0.5397410000000 1.0
C      1  0.5718830000000  0.5657710000000  0.4859130000000 1.0
C      1  0.5363700000000  0.4274080000000  0.5009670000000 1.0
C      1  0.5069580000000  0.5531930000000  0.4096210000000 1.0
C      1  0.4507270000000  0.4881090000000  0.4011060000000 1.0
C      1  0.5167870000000  0.5628190000000  0.5751990000000 1.0
C      1  0.5141900000000  0.4271500000000  0.5495140000000 1.0
C      1  0.4498450000000  0.5940420000000  0.4756550000000 1.0
C      1  0.5195770000000  0.4777370000000  0.6061460000000 1.0
C      1  0.5684770000000  0.4507200000000  0.5352900000000 1.0
C      1  0.4855400000000  0.5898380000000  0.4539380000000 1.0
C      1  0.4958350000000  0.4949150000000  0.6027590000000 1.0
C      1  0.5308760000000  0.5868850000000  0.4995170000000 1.0
C      1  0.4169900000000  0.5647950000000  0.4870840000000 1.0
C      1  0.5248760000000  0.5682420000000  0.4274620000000 1.0
C      1  0.5475260000000  0.4213730000000  0.4548040000000 1.0
C      1  0.5804520000000  0.4471820000000  0.4848040000000 1.0
C      1  0.4352140000000  0.5851250000000  0.4990310000000 1.0
C      1  0.5087970000000  0.4050560000000  0.5308090000000 1.0
C      1  0.4376720000000  0.4695170000000  0.4197810000000 1.0
C      1  0.4885570000000  0.3999380000000  0.4830030000000 1.0
C      1  0.5757430000000  0.4891500000000  0.4249640000000 1.0
C      1  0.5870240000000  0.4566220000000  0.5122490000000 1.0
C      1  0.4925930000000  0.5758100000000  0.5709900000000 1.0
C      1  0.4633170000000  0.4479740000000  0.4546580000000 1.0
C      1  0.5119270000000  0.4316730000000  0.5791560000000 1.0
C      1  0.4473230000000  0.5095810000000  0.4222810000000 1.0
C      1  0.5893270000000  0.5423280000000  0.4874770000000 1.0
C      1  0.4834630000000  0.4265210000000  0.5828060000000 1.0
C      1  0.4910230000000  0.4907940000000  0.5720630000000 1.0
C      1  0.4568270000000  0.4488760000000  0.4130490000000 1.0
C      1  0.4980070000000  0.4425020000000  0.4207770000000 1.0
C      1  0.4912720000000  0.4945190000000  0.4580300000000 1.0
C      1  0.5923820000000  0.4983430000000  0.5357160000000 1.0
C      1  0.5820310000000  0.4231540000000  0.5622340000000 1.0
C      1  0.4584260000000  0.5897100000000  0.5181460000000 1.0
C      1  0.5837110000000  0.5375150000000  0.5159260000000 1.0
C      1  0.4940300000000  0.5241600000000  0.6022990000000 1.0
C      1  0.4656240000000  0.5328690000000  0.5895620000000 1.0
C      1  0.5337950000000  0.5875850000000  0.4699610000000 1.0
C      1  0.5273590000000  0.4538340000000  0.5905630000000 1.0
C      1  0.4153540000000  0.5391560000000  0.5463610000000 1.0
C      1  0.4651480000000  0.4111990000000  0.5616930000000 1.0
C      1  0.4043630000000  0.5238610000000  0.5262700000000 1.0
C      1  0.5674440000000  0.5239510000000  0.5723040000000 1.0
END
