TITL C-4164246-3563-424 75.8745039095894 125000 -14447.3437908439 0 0 99 (C1) n - 1
REM
REM in /home/nfs/bkarasulu/CARBON/AIRSS/Generating-Clusters/ReaxFF-fromJPCA2015/Units_Real/with-SteepDescent/Only-C1/SD-CG/Try1-3A/FIRE-CG
REM
REM
REM
REM
REM
REM ./C.cell (11c1c37f851c82e70ff6c80c92926a4b)
REM
REM compiler GCC version 9.2.1 20190827 (Red Hat 9.2.1-1)
REM options -cpp -mtune=generic -march=x86-64 -g -O0 -fpre-include=/usr/include/finclude/math-vector-fortran.h
REM seed 442429653 231489712 989462054 -1724126624 1341614845 1258470308 65561187 -630630811 -1794203889 142582665 -1781599637 175472268 871920288 2078076052 -1154650450 -180248802 1437124777 -1838454622 1496067245 -1782790591 1080853264 223189357 490224979 -1014399043 -712483595 -1323665603 -2112294288 -1075806740 -1945447277 494519866 -1446351783 -1276185324 -561818167
REM
CELL 1.54180   50.00000   50.00000   50.00000   90.00000   90.00000   90.00000
LATT -1
SFAC C  
C      1  0.5494180000000  0.5549330000000  0.4515400000000 1.0
C      1  0.4925940000000  0.4690180000000  0.5026360000000 1.0
C      1  0.4401370000000  0.5747670000000  0.5069150000000 1.0
C      1  0.5692110000000  0.5411040000000  0.4676370000000 1.0
C      1  0.4500380000000  0.4260230000000  0.4999730000000 1.0
C      1  0.5124360000000  0.4862170000000  0.4929450000000 1.0
C      1  0.5063250000000  0.5501920000000  0.4540390000000 1.0
C      1  0.4638850000000  0.5377130000000  0.5810510000000 1.0
C      1  0.4271740000000  0.4833710000000  0.4635830000000 1.0
C      1  0.5259100000000  0.5711660000000  0.4618580000000 1.0
C      1  0.4935020000000  0.5504280000000  0.4150030000000 1.0
C      1  0.4506420000000  0.5013090000000  0.5092500000000 1.0
C      1  0.4135700000000  0.4787520000000  0.5263340000000 1.0
C      1  0.4830530000000  0.5491500000000  0.5053670000000 1.0
C      1  0.5021460000000  0.4880380000000  0.4426120000000 1.0
C      1  0.4357190000000  0.5262590000000  0.5161800000000 1.0
C      1  0.4448640000000  0.4363560000000  0.4730360000000 1.0
C      1  0.5171270000000  0.4995990000000  0.4685400000000 1.0
C      1  0.5557050000000  0.4982530000000  0.5610050000000 1.0
C      1  0.4777300000000  0.4160420000000  0.5019120000000 1.0
C      1  0.5088490000000  0.5279670000000  0.4727910000000 1.0
C      1  0.4760700000000  0.5619830000000  0.5348010000000 1.0
C      1  0.4424910000000  0.5248420000000  0.5656120000000 1.0
C      1  0.4217040000000  0.5336800000000  0.4734380000000 1.0
C      1  0.4987050000000  0.4455590000000  0.5739180000000 1.0
C      1  0.5615880000000  0.4190380000000  0.4792980000000 1.0
C      1  0.4749180000000  0.5154300000000  0.4242020000000 1.0
C      1  0.4473160000000  0.4512590000000  0.5156950000000 1.0
C      1  0.5234560000000  0.4825020000000  0.4238640000000 1.0
C      1  0.4449950000000  0.5658280000000  0.5337510000000 1.0
C      1  0.4239280000000  0.4582320000000  0.4763490000000 1.0
C      1  0.4708520000000  0.5112850000000  0.4588460000000 1.0
C      1  0.4873390000000  0.4234990000000  0.5278260000000 1.0
C      1  0.5651370000000  0.5164560000000  0.4515800000000 1.0
C      1  0.4359550000000  0.5412350000000  0.4482540000000 1.0
C      1  0.5882490000000  0.4464870000000  0.5271440000000 1.0
C      1  0.5302100000000  0.4309610000000  0.5179360000000 1.0
C      1  0.5734790000000  0.5392130000000  0.4977380000000 1.0
C      1  0.5553820000000  0.4677920000000  0.4517870000000 1.0
C      1  0.4715010000000  0.5610010000000  0.4820710000000 1.0
C      1  0.4977010000000  0.5835890000000  0.5315060000000 1.0
C      1  0.4355490000000  0.4766840000000  0.5475930000000 1.0
C      1  0.5100060000000  0.5549360000000  0.5675940000000 1.0
C      1  0.4943570000000  0.5923000000000  0.5037470000000 1.0
C      1  0.5169890000000  0.4213810000000  0.4539090000000 1.0
C      1  0.4482640000000  0.5243620000000  0.4285130000000 1.0
C      1  0.5088130000000  0.5015950000000  0.5744550000000 1.0
C      1  0.4341290000000  0.5398750000000  0.5420600000000 1.0
C      1  0.5317730000000  0.4829730000000  0.5700060000000 1.0
C      1  0.4287630000000  0.5484990000000  0.4976480000000 1.0
C      1  0.5465780000000  0.5300730000000  0.4336300000000 1.0
C      1  0.4771950000000  0.4731140000000  0.4407950000000 1.0
C      1  0.5662270000000  0.4630100000000  0.5077660000000 1.0
C      1  0.4610540000000  0.4758210000000  0.5036460000000 1.0
C      1  0.5055230000000  0.5343460000000  0.4998630000000 1.0
C      1  0.5774510000000  0.5114400000000  0.5091030000000 1.0
C      1  0.5385510000000  0.4349920000000  0.5451670000000 1.0
C      1  0.4735330000000  0.5166370000000  0.6020420000000 1.0
C      1  0.5694340000000  0.4984250000000  0.5339680000000 1.0
C      1  0.4595240000000  0.5573120000000  0.4547210000000 1.0
C      1  0.4818290000000  0.5522410000000  0.5636390000000 1.0
C      1  0.5282550000000  0.4955060000000  0.5128390000000 1.0
C      1  0.4083510000000  0.4648310000000  0.5007320000000 1.0
C      1  0.5982300000000  0.4767090000000  0.4716400000000 1.0
C      1  0.4490500000000  0.4965630000000  0.5653450000000 1.0
C      1  0.5413410000000  0.5369140000000  0.5378410000000 1.0
C      1  0.5085100000000  0.4446840000000  0.4528260000000 1.0
C      1  0.5024250000000  0.4361860000000  0.5056150000000 1.0
C      1  0.5831770000000  0.4569630000000  0.4563520000000 1.0
C      1  0.5751980000000  0.4887810000000  0.4892610000000 1.0
C      1  0.5251660000000  0.4539600000000  0.5668670000000 1.0
C      1  0.4916940000000  0.4717830000000  0.5329440000000 1.0
C      1  0.4836210000000  0.5627800000000  0.4384170000000 1.0
C      1  0.4739420000000  0.4954120000000  0.5819510000000 1.0
C      1  0.4037710000000  0.4937150000000  0.5029010000000 1.0
C      1  0.5211710000000  0.5291820000000  0.5767280000000 1.0
C      1  0.5239050000000  0.5226200000000  0.5184740000000 1.0
C      1  0.5161800000000  0.5870270000000  0.4845810000000 1.0
C      1  0.4495060000000  0.4517870000000  0.5443620000000 1.0
C      1  0.4724700000000  0.4342610000000  0.4661190000000 1.0
C      1  0.4840330000000  0.4427710000000  0.4416390000000 1.0
C      1  0.5468060000000  0.5665330000000  0.5350790000000 1.0
C      1  0.5471840000000  0.5260490000000  0.5648920000000 1.0
C      1  0.4936940000000  0.4971700000000  0.5460830000000 1.0
C      1  0.5658550000000  0.4356100000000  0.5392710000000 1.0
C      1  0.4654330000000  0.5859660000000  0.4954610000000 1.0
C      1  0.5516280000000  0.4934760000000  0.4655900000000 1.0
C      1  0.5313220000000  0.4576330000000  0.4385100000000 1.0
C      1  0.4797110000000  0.4449370000000  0.5482980000000 1.0
C      1  0.4541330000000  0.4880270000000  0.4509930000000 1.0
C      1  0.5516750000000  0.4380530000000  0.4990290000000 1.0
C      1  0.5008650000000  0.5235800000000  0.4107480000000 1.0
C      1  0.4145500000000  0.5056450000000  0.4779890000000 1.0
C      1  0.5273000000000  0.5121000000000  0.4199250000000 1.0
C      1  0.5622520000000  0.5600960000000  0.5127180000000 1.0
C      1  0.5489710000000  0.4799150000000  0.5247440000000 1.0
C      1  0.5852900000000  0.4269080000000  0.4647490000000 1.0
C      1  0.5199260000000  0.5738370000000  0.5465600000000 1.0
C      1  0.5368550000000  0.4054900000000  0.4622350000000 1.0
END
