TITL C-4164234-2335-82 0.491814901317435 125000 -8231.40380604282 0 0 57 (C1) n - 1
REM
REM in /home/nfs/bkarasulu/CARBON/AIRSS/Generating-Clusters/ReaxFF-fromJPCA2015/Units_Real/with-SteepDescent/Only-C1/SD-CG/Try1-3A/FIRE-CG
REM
REM
REM
REM
REM
REM ./C.cell (11c1c37f851c82e70ff6c80c92926a4b)
REM
REM compiler GCC version 9.2.1 20190827 (Red Hat 9.2.1-1)
REM options -cpp -mtune=generic -march=x86-64 -g -O0 -fpre-include=/usr/include/finclude/math-vector-fortran.h
REM seed 149619171 -671696369 675895875 -1960263335 -1274603836 1412713592 1619167692 1585068323 -1941511138 1521656860 -1446795647 -2143299628 -1804694734 511481617 -1575826341 997951686 282822674 -1518202764 -634932308 1756155058 -859315263 -886677417 -633920327 1929031923 249227440 676086258 -2031683354 1345129336 -1664403019 669198870 -948769133 -716856339 1936937050
REM
CELL 1.54180   50.00000   50.00000   50.00000   90.00000   90.00000   90.00000
LATT -1
SFAC C  
C      1  0.5505880000000  0.4952980000000  0.5404790000000 1.0
C      1  0.5628030000000  0.5315330000000  0.5243390000000 1.0
C      1  0.4368950000000  0.5006420000000  0.5162760000000 1.0
C      1  0.5580050000000  0.4427960000000  0.4454320000000 1.0
C      1  0.5148080000000  0.4637420000000  0.5174440000000 1.0
C      1  0.4486800000000  0.5091350000000  0.5608090000000 1.0
C      1  0.4829110000000  0.5609780000000  0.4891100000000 1.0
C      1  0.4852980000000  0.5019500000000  0.4696960000000 1.0
C      1  0.4629930000000  0.5333940000000  0.5574990000000 1.0
C      1  0.4882430000000  0.5297340000000  0.4500140000000 1.0
C      1  0.4474240000000  0.4812720000000  0.4505860000000 1.0
C      1  0.5598050000000  0.5555540000000  0.5051140000000 1.0
C      1  0.4506650000000  0.5470730000000  0.4693020000000 1.0
C      1  0.5427540000000  0.5347970000000  0.5455320000000 1.0
C      1  0.5590210000000  0.5034950000000  0.5146330000000 1.0
C      1  0.5096980000000  0.5080350000000  0.5201220000000 1.0
C      1  0.4396760000000  0.5137570000000  0.4968750000000 1.0
C      1  0.4731000000000  0.5114870000000  0.5735640000000 1.0
C      1  0.5491480000000  0.4748080000000  0.4444450000000 1.0
C      1  0.5213840000000  0.4840400000000  0.4388550000000 1.0
C      1  0.5235440000000  0.5527890000000  0.5329910000000 1.0
C      1  0.4392500000000  0.5441510000000  0.4944290000000 1.0
C      1  0.5321710000000  0.5647720000000  0.5076360000000 1.0
C      1  0.5113930000000  0.5472130000000  0.4611430000000 1.0
C      1  0.5004440000000  0.5354300000000  0.5270850000000 1.0
C      1  0.4774360000000  0.4420390000000  0.4957140000000 1.0
C      1  0.4620120000000  0.5580550000000  0.5082220000000 1.0
C      1  0.5304580000000  0.4682850000000  0.4933710000000 1.0
C      1  0.5275650000000  0.4345100000000  0.5523360000000 1.0
C      1  0.5251910000000  0.5122950000000  0.4321610000000 1.0
C      1  0.4938420000000  0.4838400000000  0.5211960000000 1.0
C      1  0.4732800000000  0.4511020000000  0.5449640000000 1.0
C      1  0.5656770000000  0.4946210000000  0.4591890000000 1.0
C      1  0.5489050000000  0.5141830000000  0.4749660000000 1.0
C      1  0.5183790000000  0.4578840000000  0.5689290000000 1.0
C      1  0.4528710000000  0.5050720000000  0.4358920000000 1.0
C      1  0.4976410000000  0.5161750000000  0.4243930000000 1.0
C      1  0.5145190000000  0.4505100000000  0.4767650000000 1.0
C      1  0.4828560000000  0.4348020000000  0.5222040000000 1.0
C      1  0.4736120000000  0.5446600000000  0.5331110000000 1.0
C      1  0.4934480000000  0.4795090000000  0.4504510000000 1.0
C      1  0.5335040000000  0.5295960000000  0.4548820000000 1.0
C      1  0.5099460000000  0.5640380000000  0.4848030000000 1.0
C      1  0.5358080000000  0.4399740000000  0.4619930000000 1.0
C      1  0.5124560000000  0.4354750000000  0.5265330000000 1.0
C      1  0.4818540000000  0.4488240000000  0.4739370000000 1.0
C      1  0.4665830000000  0.4757030000000  0.5304780000000 1.0
C      1  0.5301560000000  0.5070220000000  0.5485110000000 1.0
C      1  0.5345700000000  0.4987590000000  0.4970040000000 1.0
C      1  0.4922540000000  0.4902110000000  0.5734350000000 1.0
C      1  0.4789940000000  0.4936600000000  0.4278060000000 1.0
C      1  0.4889150000000  0.4615630000000  0.5677550000000 1.0
C      1  0.4645810000000  0.5041820000000  0.4867120000000 1.0
C      1  0.4581740000000  0.4623960000000  0.4651930000000 1.0
C      1  0.5209510000000  0.4882570000000  0.5682120000000 1.0
C      1  0.4581080000000  0.5331090000000  0.4461630000000 1.0
C      1  0.4447500000000  0.4918130000000  0.5393150000000 1.0
END
