TITL C-4164241-3639-358 6.4021525203596 125000 -6589.40323559194 0 0 45 (C1) n - 1
REM
REM in /home/nfs/bkarasulu/CARBON/AIRSS/Generating-Clusters/ReaxFF-fromJPCA2015/Units_Real/with-SteepDescent/Only-C1/SD-CG/Try1-3A/FIRE-CG
REM
REM
REM
REM
REM
REM ./C.cell (11c1c37f851c82e70ff6c80c92926a4b)
REM
REM compiler GCC version 9.2.1 20190827 (Red Hat 9.2.1-1)
REM options -cpp -mtune=generic -march=x86-64 -g -O0 -fpre-include=/usr/include/finclude/math-vector-fortran.h
REM seed 1823624680 -1808211288 -1853973331 1874185468 -1088095931 1012225370 286593920 -581976943 1786172707 -1075378395 -786926369 102761512 -2107838040 1704679653 175288751 -2083278051 -1273763034 -82026919 333692121 -168203657 -1587080194 -1277584808 -38395292 -1106658917 1861667274 1581337664 -284006798 -511382644 935189689 -2143143187 256859059 1279633146 -1253436783
REM
CELL 1.54180   50.00000   50.00000   50.00000   90.00000   90.00000   90.00000
LATT -1
SFAC C  
C      1  0.5658920000000  0.4984530000000  0.5190060000000 1.0
C      1  0.4308330000000  0.5116530000000  0.4796950000000 1.0
C      1  0.5378470000000  0.4744690000000  0.5490670000000 1.0
C      1  0.5145240000000  0.5402110000000  0.5196560000000 1.0
C      1  0.4446860000000  0.4975570000000  0.4612050000000 1.0
C      1  0.5151670000000  0.5118390000000  0.4483600000000 1.0
C      1  0.5415770000000  0.5580170000000  0.5145250000000 1.0
C      1  0.4597170000000  0.5286490000000  0.5441370000000 1.0
C      1  0.5647270000000  0.5473090000000  0.4972850000000 1.0
C      1  0.5413900000000  0.4417680000000  0.5158080000000 1.0
C      1  0.5417550000000  0.5118300000000  0.4603710000000 1.0
C      1  0.4781370000000  0.5114310000000  0.5458830000000 1.0
C      1  0.4239120000000  0.5474230000000  0.5157110000000 1.0
C      1  0.4736650000000  0.4647200000000  0.4819520000000 1.0
C      1  0.4178130000000  0.5185770000000  0.5038590000000 1.0
C      1  0.4479840000000  0.4720880000000  0.4769980000000 1.0
C      1  0.5462800000000  0.4839910000000  0.4549780000000 1.0
C      1  0.4419700000000  0.5607250000000  0.4995030000000 1.0
C      1  0.5741200000000  0.5195660000000  0.5000890000000 1.0
C      1  0.5537670000000  0.5775200000000  0.5244980000000 1.0
C      1  0.4995150000000  0.4573770000000  0.4868780000000 1.0
C      1  0.4996490000000  0.4955580000000  0.5440800000000 1.0
C      1  0.4218840000000  0.4929850000000  0.5153770000000 1.0
C      1  0.4604500000000  0.5643820000000  0.4792290000000 1.0
C      1  0.4297910000000  0.4695740000000  0.5029900000000 1.0
C      1  0.5112990000000  0.4676200000000  0.4639780000000 1.0
C      1  0.4624600000000  0.4468680000000  0.5323020000000 1.0
C      1  0.4896690000000  0.5248750000000  0.4538140000000 1.0
C      1  0.5107910000000  0.4674260000000  0.5413940000000 1.0
C      1  0.5614110000000  0.5286450000000  0.4752020000000 1.0
C      1  0.5121900000000  0.4494850000000  0.5171620000000 1.0
C      1  0.4415640000000  0.4603710000000  0.5264390000000 1.0
C      1  0.4850570000000  0.5436700000000  0.4759920000000 1.0
C      1  0.4797820000000  0.4866100000000  0.4269430000000 1.0
C      1  0.5726390000000  0.4696140000000  0.5174640000000 1.0
C      1  0.5589850000000  0.4619300000000  0.4680650000000 1.0
C      1  0.4421510000000  0.5444190000000  0.5361840000000 1.0
C      1  0.4677920000000  0.5077920000000  0.4430030000000 1.0
C      1  0.5442290000000  0.5011220000000  0.5383600000000 1.0
C      1  0.5619750000000  0.4512800000000  0.4964960000000 1.0
C      1  0.5079840000000  0.4834000000000  0.4399740000000 1.0
C      1  0.4998570000000  0.5419330000000  0.4979220000000 1.0
C      1  0.5565530000000  0.4547890000000  0.5376150000000 1.0
C      1  0.5191720000000  0.5164260000000  0.5366830000000 1.0
C      1  0.4873850000000  0.4340550000000  0.5338660000000 1.0
END
