TITL C-4164239-2837-379 191.990190984091 125000 -24635.786924673 0 0 169 (C1) n - 1
REM
REM in /home/nfs/bkarasulu/CARBON/AIRSS/Generating-Clusters/ReaxFF-fromJPCA2015/Units_Real/with-SteepDescent/Only-C1/SD-CG/Try1-3A/FIRE-CG
REM
REM
REM
REM
REM
REM ./C.cell (11c1c37f851c82e70ff6c80c92926a4b)
REM
REM compiler GCC version 9.2.1 20190827 (Red Hat 9.2.1-1)
REM options -cpp -mtune=generic -march=x86-64 -g -O0 -fpre-include=/usr/include/finclude/math-vector-fortran.h
REM seed -1310445142 -1705079738 341291309 -1150353206 -2035894992 1986923264 -679634067 1190761843 -1508318823 539372330 -2091419047 -1338463334 1575560419 -1594478051 244705533 -823360954 1971135848 -121551585 690715160 -857038197 -973928817 2039097332 894755559 -465495633 -1479288170 -1050765458 2032730232 -933893254 518480995 -1438250954 733450456 -1417757777 1267466183
REM
CELL 1.54180   50.00000   50.00000   50.00000   90.00000   90.00000   90.00000
LATT -1
SFAC C  
C      1  0.4642630000000  0.5890640000000  0.5617930000000 1.0
C      1  0.4761750000000  0.5582700000000  0.5932280000000 1.0
C      1  0.5189450000000  0.4706860000000  0.5078240000000 1.0
C      1  0.4462610000000  0.4409410000000  0.5724630000000 1.0
C      1  0.4481210000000  0.5924660000000  0.5053840000000 1.0
C      1  0.5399150000000  0.4394450000000  0.4125820000000 1.0
C      1  0.6104360000000  0.4788090000000  0.5031510000000 1.0
C      1  0.5084440000000  0.4904270000000  0.5565840000000 1.0
C      1  0.4856430000000  0.5309390000000  0.5975980000000 1.0
C      1  0.5128960000000  0.5389390000000  0.6020500000000 1.0
C      1  0.5941760000000  0.5352150000000  0.4649850000000 1.0
C      1  0.5894750000000  0.5501940000000  0.4897070000000 1.0
C      1  0.5844010000000  0.4634000000000  0.5882110000000 1.0
C      1  0.5572020000000  0.5555470000000  0.4313960000000 1.0
C      1  0.4391500000000  0.4533420000000  0.4242260000000 1.0
C      1  0.4270130000000  0.4472050000000  0.5500400000000 1.0
C      1  0.5891790000000  0.4960880000000  0.5525500000000 1.0
C      1  0.4495000000000  0.4752250000000  0.4070860000000 1.0
C      1  0.5419160000000  0.5812340000000  0.5817920000000 1.0
C      1  0.5109070000000  0.5393080000000  0.5258150000000 1.0
C      1  0.4962720000000  0.5577780000000  0.5020850000000 1.0
C      1  0.4664940000000  0.5186420000000  0.5557950000000 1.0
C      1  0.5596930000000  0.4789530000000  0.4906820000000 1.0
C      1  0.4265350000000  0.5367650000000  0.4389850000000 1.0
C      1  0.5104070000000  0.4600080000000  0.4628610000000 1.0
C      1  0.5646270000000  0.5103230000000  0.4242280000000 1.0
C      1  0.4898640000000  0.4488570000000  0.5445610000000 1.0
C      1  0.4805340000000  0.4175420000000  0.4414680000000 1.0
C      1  0.5503160000000  0.5618720000000  0.5411430000000 1.0
C      1  0.4925030000000  0.5498680000000  0.4038010000000 1.0
C      1  0.5542500000000  0.5557210000000  0.5873090000000 1.0
C      1  0.4309060000000  0.4384890000000  0.5215680000000 1.0
C      1  0.4722700000000  0.4941040000000  0.5882380000000 1.0
C      1  0.4526290000000  0.4461330000000  0.4639250000000 1.0
C      1  0.5344700000000  0.5271930000000  0.5144370000000 1.0
C      1  0.4915740000000  0.5765430000000  0.4158210000000 1.0
C      1  0.4562490000000  0.5802860000000  0.5236150000000 1.0
C      1  0.4910180000000  0.4265280000000  0.4903500000000 1.0
C      1  0.5362140000000  0.4912370000000  0.5496630000000 1.0
C      1  0.5007610000000  0.4600240000000  0.4073220000000 1.0
C      1  0.5314650000000  0.5407870000000  0.4355460000000 1.0
C      1  0.4451820000000  0.4848240000000  0.5878510000000 1.0
C      1  0.4159970000000  0.4884840000000  0.4351690000000 1.0
C      1  0.5138260000000  0.5746640000000  0.5639580000000 1.0
C      1  0.4527670000000  0.5307490000000  0.4521220000000 1.0
C      1  0.5403110000000  0.4313880000000  0.5465250000000 1.0
C      1  0.6067750000000  0.4828600000000  0.4735340000000 1.0
C      1  0.5495030000000  0.5090550000000  0.5301360000000 1.0
C      1  0.5468790000000  0.5869760000000  0.5269640000000 1.0
C      1  0.5292160000000  0.4822250000000  0.3851980000000 1.0
C      1  0.5492560000000  0.4641000000000  0.5441720000000 1.0
C      1  0.5191570000000  0.5826880000000  0.4591900000000 1.0
C      1  0.4905200000000  0.4840120000000  0.6091790000000 1.0
C      1  0.4627130000000  0.5794900000000  0.4574880000000 1.0
C      1  0.4780170000000  0.6019070000000  0.4684110000000 1.0
C      1  0.6001420000000  0.4572740000000  0.5161990000000 1.0
C      1  0.5603910000000  0.4493280000000  0.4803700000000 1.0
C      1  0.4751820000000  0.3975570000000  0.4887910000000 1.0
C      1  0.5735620000000  0.6048280000000  0.4812180000000 1.0
C      1  0.5158970000000  0.4964300000000  0.4393460000000 1.0
C      1  0.4530480000000  0.5689180000000  0.5771660000000 1.0
C      1  0.4079130000000  0.5142410000000  0.4457170000000 1.0
C      1  0.4084770000000  0.4847460000000  0.4932110000000 1.0
C      1  0.4917490000000  0.6014510000000  0.4908390000000 1.0
C      1  0.5838750000000  0.4359810000000  0.4614710000000 1.0
C      1  0.5687200000000  0.5944700000000  0.5094730000000 1.0
C      1  0.5120190000000  0.4120620000000  0.5026480000000 1.0
C      1  0.4344210000000  0.4991670000000  0.4140740000000 1.0
C      1  0.5175650000000  0.4155820000000  0.5552600000000 1.0
C      1  0.5617890000000  0.4270760000000  0.5275660000000 1.0
C      1  0.5385340000000  0.4583810000000  0.4608800000000 1.0
C      1  0.5512760000000  0.5016460000000  0.4749760000000 1.0
C      1  0.6003620000000  0.4973270000000  0.5254630000000 1.0
C      1  0.5418830000000  0.4161760000000  0.4321330000000 1.0
C      1  0.4592270000000  0.4695320000000  0.4790060000000 1.0
C      1  0.4447970000000  0.4042310000000  0.4921610000000 1.0
C      1  0.5793250000000  0.4673360000000  0.5551390000000 1.0
C      1  0.5858510000000  0.4444190000000  0.5353720000000 1.0
C      1  0.4181800000000  0.4603790000000  0.4434400000000 1.0
C      1  0.5879500000000  0.4959430000000  0.4338630000000 1.0
C      1  0.4733670000000  0.6011820000000  0.5381700000000 1.0
C      1  0.4773760000000  0.3942330000000  0.4573040000000 1.0
C      1  0.5841550000000  0.5507740000000  0.4420990000000 1.0
C      1  0.5085570000000  0.5847540000000  0.4976890000000 1.0
C      1  0.3962800000000  0.5203280000000  0.5404170000000 1.0
C      1  0.4670520000000  0.5486000000000  0.4691340000000 1.0
C      1  0.5236760000000  0.5529980000000  0.5481580000000 1.0
C      1  0.4663460000000  0.5065680000000  0.4469460000000 1.0
C      1  0.5489000000000  0.4602520000000  0.4327550000000 1.0
C      1  0.5045920000000  0.5663910000000  0.5915640000000 1.0
C      1  0.5741500000000  0.5752010000000  0.4865390000000 1.0
C      1  0.3955860000000  0.5275790000000  0.4680340000000 1.0
C      1  0.4623000000000  0.4404920000000  0.4370760000000 1.0
C      1  0.4323500000000  0.4742310000000  0.4845800000000 1.0
C      1  0.4299870000000  0.5501740000000  0.5669470000000 1.0
C      1  0.4954530000000  0.4682000000000  0.5249280000000 1.0
C      1  0.4077410000000  0.4428950000000  0.4970120000000 1.0
C      1  0.5245300000000  0.4529230000000  0.3904680000000 1.0
C      1  0.4769320000000  0.4543120000000  0.5053200000000 1.0
C      1  0.5162080000000  0.5338920000000  0.4068880000000 1.0
C      1  0.4700530000000  0.4240590000000  0.5714970000000 1.0
C      1  0.5354530000000  0.4095780000000  0.4859960000000 1.0
C      1  0.4902510000000  0.5075630000000  0.4308750000000 1.0
C      1  0.5745930000000  0.5209970000000  0.5614930000000 1.0
C      1  0.5311740000000  0.5171630000000  0.4882000000000 1.0
C      1  0.5155820000000  0.5080010000000  0.3914480000000 1.0
C      1  0.4609490000000  0.5473820000000  0.4116540000000 1.0
C      1  0.4521430000000  0.4617070000000  0.5190700000000 1.0
C      1  0.4055060000000  0.4935610000000  0.5527170000000 1.0
C      1  0.3796130000000  0.5231050000000  0.5146470000000 1.0
C      1  0.5187810000000  0.5968870000000  0.5211290000000 1.0
C      1  0.5018140000000  0.4633120000000  0.5654450000000 1.0
C      1  0.3983770000000  0.4649150000000  0.5125850000000 1.0
C      1  0.4961000000000  0.3911620000000  0.5108030000000 1.0
C      1  0.4411930000000  0.5881610000000  0.4780340000000 1.0
C      1  0.5575630000000  0.5262500000000  0.5853060000000 1.0
C      1  0.4269870000000  0.5630420000000  0.4840930000000 1.0
C      1  0.5153350000000  0.5551190000000  0.4565210000000 1.0
C      1  0.4717640000000  0.5085330000000  0.5301210000000 1.0
C      1  0.3974870000000  0.5127970000000  0.4936730000000 1.0
C      1  0.5021600000000  0.6063560000000  0.4535500000000 1.0
C      1  0.5321480000000  0.5166010000000  0.5982740000000 1.0
C      1  0.4772860000000  0.4220600000000  0.5436100000000 1.0
C      1  0.5018320000000  0.5958900000000  0.5445340000000 1.0
C      1  0.4105880000000  0.5518740000000  0.4635000000000 1.0
C      1  0.4633330000000  0.4979320000000  0.4740520000000 1.0
C      1  0.5210530000000  0.4727150000000  0.4255340000000 1.0
C      1  0.4371510000000  0.4071060000000  0.5194300000000 1.0
C      1  0.4344190000000  0.4237220000000  0.4707580000000 1.0
C      1  0.4965040000000  0.5420960000000  0.4753530000000 1.0
C      1  0.4502450000000  0.4921100000000  0.5175450000000 1.0
C      1  0.5589540000000  0.4639950000000  0.5977540000000 1.0
C      1  0.5551890000000  0.4256980000000  0.4992000000000 1.0
C      1  0.4487600000000  0.4571960000000  0.5976880000000 1.0
C      1  0.5745790000000  0.5369360000000  0.4177450000000 1.0
C      1  0.5130830000000  0.5890040000000  0.4324840000000 1.0
C      1  0.4775270000000  0.4764030000000  0.3987280000000 1.0
C      1  0.5859390000000  0.5383000000000  0.5162480000000 1.0
C      1  0.4120920000000  0.4420180000000  0.4679120000000 1.0
C      1  0.4491380000000  0.5107270000000  0.4951750000000 1.0
C      1  0.4241800000000  0.4989990000000  0.5741400000000 1.0
C      1  0.6001370000000  0.5067460000000  0.4595130000000 1.0
C      1  0.4679090000000  0.5567950000000  0.5133380000000 1.0
C      1  0.4107480000000  0.5417110000000  0.5498040000000 1.0
C      1  0.4393650000000  0.5281330000000  0.4124510000000 1.0
C      1  0.4972780000000  0.4007660000000  0.5382920000000 1.0
C      1  0.5813530000000  0.4683260000000  0.4345770000000 1.0
C      1  0.4732750000000  0.4619570000000  0.6118470000000 1.0
C      1  0.4878170000000  0.5037040000000  0.4014320000000 1.0
C      1  0.4647920000000  0.5723490000000  0.4260270000000 1.0
C      1  0.5205270000000  0.4910200000000  0.6065260000000 1.0
C      1  0.4410350000000  0.5230070000000  0.5695330000000 1.0
C      1  0.5022230000000  0.4306210000000  0.4621200000000 1.0
C      1  0.5740000000000  0.5436630000000  0.5424430000000 1.0
C      1  0.5001060000000  0.4241220000000  0.5784300000000 1.0
C      1  0.4487290000000  0.5420800000000  0.4957990000000 1.0
C      1  0.5656900000000  0.4220030000000  0.4455080000000 1.0
C      1  0.4870500000000  0.5115950000000  0.5720730000000 1.0
C      1  0.4067550000000  0.4673060000000  0.5415460000000 1.0
C      1  0.5755580000000  0.5106370000000  0.5162690000000 1.0
C      1  0.5112270000000  0.4809870000000  0.4818920000000 1.0
C      1  0.5112850000000  0.4486520000000  0.5887550000000 1.0
C      1  0.5320740000000  0.4644860000000  0.6044770000000 1.0
C      1  0.5428020000000  0.5104410000000  0.4450230000000 1.0
C      1  0.5275080000000  0.4136280000000  0.4581660000000 1.0
C      1  0.5454370000000  0.4708590000000  0.5148120000000 1.0
C      1  0.5992140000000  0.4603380000000  0.4552450000000 1.0
C      1  0.4959280000000  0.5149510000000  0.5173820000000 1.0
C      1  0.5024440000000  0.5098130000000  0.4886280000000 1.0
END
