TITL C-4164239-2837-267 73.1213256188854 125000 -20003.9352357527 0 0 138 (C1) n - 1
REM
REM in /home/nfs/bkarasulu/CARBON/AIRSS/Generating-Clusters/ReaxFF-fromJPCA2015/Units_Real/with-SteepDescent/Only-C1/SD-CG/Try1-3A/FIRE-CG
REM
REM
REM
REM
REM
REM ./C.cell (11c1c37f851c82e70ff6c80c92926a4b)
REM
REM compiler GCC version 9.2.1 20190827 (Red Hat 9.2.1-1)
REM options -cpp -mtune=generic -march=x86-64 -g -O0 -fpre-include=/usr/include/finclude/math-vector-fortran.h
REM seed -1261905469 -1980966037 -1899417116 39759045 1246609969 1553909789 1817256737 1465654660 -2146793023 1084108871 2140425231 1897705717 -1684544402 -759224992 1794843425 41971428 -1402579296 -2023276361 -975049394 -792468874 206445385 264276736 -715405576 1314885967 1611009328 136259229 1007847539 660391411 -850574020 -1658761968 -763003170 400076187 -14082751
REM
CELL 1.54180   50.00000   50.00000   50.00000   90.00000   90.00000   90.00000
LATT -1
SFAC C  
C      1  0.4933160000000  0.4489990000000  0.5761290000000 1.0
C      1  0.5511140000000  0.4266800000000  0.5303220000000 1.0
C      1  0.4989860000000  0.5379010000000  0.4984260000000 1.0
C      1  0.4957610000000  0.4939730000000  0.5494950000000 1.0
C      1  0.5225000000000  0.6001690000000  0.5051350000000 1.0
C      1  0.5278080000000  0.5578940000000  0.4317670000000 1.0
C      1  0.5498280000000  0.5931360000000  0.4956840000000 1.0
C      1  0.4249640000000  0.5154820000000  0.5450110000000 1.0
C      1  0.4495180000000  0.5169130000000  0.5857640000000 1.0
C      1  0.5764900000000  0.5528900000000  0.4535360000000 1.0
C      1  0.5392150000000  0.4688680000000  0.4175420000000 1.0
C      1  0.4803190000000  0.4775460000000  0.5863070000000 1.0
C      1  0.5974180000000  0.4878460000000  0.4687720000000 1.0
C      1  0.5546480000000  0.4537510000000  0.5384090000000 1.0
C      1  0.5629210000000  0.4917560000000  0.5466820000000 1.0
C      1  0.4240940000000  0.5118490000000  0.4960890000000 1.0
C      1  0.5289010000000  0.4208250000000  0.5481760000000 1.0
C      1  0.5817990000000  0.4613690000000  0.4708410000000 1.0
C      1  0.4984540000000  0.5856630000000  0.4942280000000 1.0
C      1  0.5153370000000  0.4314730000000  0.4449290000000 1.0
C      1  0.4375110000000  0.5249050000000  0.4324180000000 1.0
C      1  0.4234980000000  0.4467120000000  0.5488730000000 1.0
C      1  0.4444870000000  0.4948200000000  0.4285310000000 1.0
C      1  0.4418960000000  0.5584240000000  0.5087080000000 1.0
C      1  0.4184820000000  0.5350230000000  0.5138670000000 1.0
C      1  0.5499920000000  0.5501140000000  0.5682970000000 1.0
C      1  0.5242010000000  0.5067050000000  0.5912680000000 1.0
C      1  0.5282670000000  0.5346170000000  0.5801380000000 1.0
C      1  0.4862310000000  0.4649670000000  0.4579280000000 1.0
C      1  0.5085790000000  0.4144380000000  0.4691530000000 1.0
C      1  0.4112750000000  0.4741590000000  0.4645510000000 1.0
C      1  0.5138720000000  0.4576550000000  0.5001250000000 1.0
C      1  0.4367760000000  0.4442040000000  0.4501410000000 1.0
C      1  0.4689120000000  0.5375240000000  0.4706060000000 1.0
C      1  0.4760760000000  0.5641870000000  0.4253020000000 1.0
C      1  0.4957930000000  0.4997710000000  0.5937690000000 1.0
C      1  0.5011490000000  0.5706050000000  0.4388400000000 1.0
C      1  0.4338590000000  0.4127860000000  0.4823590000000 1.0
C      1  0.5397420000000  0.4464540000000  0.4384490000000 1.0
C      1  0.4958720000000  0.5770250000000  0.5716850000000 1.0
C      1  0.5168200000000  0.4883490000000  0.4175380000000 1.0
C      1  0.4208460000000  0.4745460000000  0.5581850000000 1.0
C      1  0.5131800000000  0.5596650000000  0.4900050000000 1.0
C      1  0.4508060000000  0.4731100000000  0.4942110000000 1.0
C      1  0.5378570000000  0.5366350000000  0.5231220000000 1.0
C      1  0.4798600000000  0.4969080000000  0.4824860000000 1.0
C      1  0.4367120000000  0.5687400000000  0.4814400000000 1.0
C      1  0.5610280000000  0.5769180000000  0.5189530000000 1.0
C      1  0.4378110000000  0.5334040000000  0.5645590000000 1.0
C      1  0.4477090000000  0.4559930000000  0.5158780000000 1.0
C      1  0.5421370000000  0.4632890000000  0.5644550000000 1.0
C      1  0.5189560000000  0.4110270000000  0.4977840000000 1.0
C      1  0.5795180000000  0.4551000000000  0.4990030000000 1.0
C      1  0.4047950000000  0.4923580000000  0.5402300000000 1.0
C      1  0.4855220000000  0.5111420000000  0.4036390000000 1.0
C      1  0.5142900000000  0.4557940000000  0.5279700000000 1.0
C      1  0.4177280000000  0.4500100000000  0.5187400000000 1.0
C      1  0.5706010000000  0.5326100000000  0.5592930000000 1.0
C      1  0.4858930000000  0.5198600000000  0.5558600000000 1.0
C      1  0.5513000000000  0.5821510000000  0.4698820000000 1.0
C      1  0.4909180000000  0.4442620000000  0.4337240000000 1.0
C      1  0.5257430000000  0.5967310000000  0.5338500000000 1.0
C      1  0.5160480000000  0.4718240000000  0.4603330000000 1.0
C      1  0.5459580000000  0.4190000000000  0.4995060000000 1.0
C      1  0.5227150000000  0.4421540000000  0.5683820000000 1.0
C      1  0.4543730000000  0.5565560000000  0.5575220000000 1.0
C      1  0.4033340000000  0.4783170000000  0.5150980000000 1.0
C      1  0.5224030000000  0.4940760000000  0.4453030000000 1.0
C      1  0.5441600000000  0.5738440000000  0.5439350000000 1.0
C      1  0.4870730000000  0.5791690000000  0.4623650000000 1.0
C      1  0.5453480000000  0.4892200000000  0.5819450000000 1.0
C      1  0.5583810000000  0.5199400000000  0.4171100000000 1.0
C      1  0.5584110000000  0.4906740000000  0.4121310000000 1.0
C      1  0.4758140000000  0.4271600000000  0.5648850000000 1.0
C      1  0.4529490000000  0.4880030000000  0.5800880000000 1.0
C      1  0.6044760000000  0.4947420000000  0.4973710000000 1.0
C      1  0.4417560000000  0.4925590000000  0.5551560000000 1.0
C      1  0.4328360000000  0.4736280000000  0.4446780000000 1.0
C      1  0.5093680000000  0.5372510000000  0.5584060000000 1.0
C      1  0.5805480000000  0.5287070000000  0.4361300000000 1.0
C      1  0.5657950000000  0.4429320000000  0.4532430000000 1.0
C      1  0.4803940000000  0.4608500000000  0.4127790000000 1.0
C      1  0.5384820000000  0.5454660000000  0.4953830000000 1.0
C      1  0.5216850000000  0.5538750000000  0.5388240000000 1.0
C      1  0.4851450000000  0.4117000000000  0.5417320000000 1.0
C      1  0.4758470000000  0.5573540000000  0.5771680000000 1.0
C      1  0.5407450000000  0.5086250000000  0.5328860000000 1.0
C      1  0.4692550000000  0.5373680000000  0.5002350000000 1.0
C      1  0.4147630000000  0.4320150000000  0.4933080000000 1.0
C      1  0.4902620000000  0.4652900000000  0.5477290000000 1.0
C      1  0.5884770000000  0.4881090000000  0.5348330000000 1.0
C      1  0.4681040000000  0.4888850000000  0.4123830000000 1.0
C      1  0.4860630000000  0.5217090000000  0.4521490000000 1.0
C      1  0.5662400000000  0.5052970000000  0.5699090000000 1.0
C      1  0.4615720000000  0.5650380000000  0.4652740000000 1.0
C      1  0.4899860000000  0.4984010000000  0.5225670000000 1.0
C      1  0.5324970000000  0.5344450000000  0.4154590000000 1.0
C      1  0.5149480000000  0.5167250000000  0.4608510000000 1.0
C      1  0.5562260000000  0.4959770000000  0.4760920000000 1.0
C      1  0.4774200000000  0.4931720000000  0.4547360000000 1.0
C      1  0.5139280000000  0.5148780000000  0.4894860000000 1.0
C      1  0.3961890000000  0.5461680000000  0.4979250000000 1.0
C      1  0.4816110000000  0.5838970000000  0.5222110000000 1.0
C      1  0.5414320000000  0.4704770000000  0.4721340000000 1.0
C      1  0.5774000000000  0.5547950000000  0.5104990000000 1.0
C      1  0.5138000000000  0.5139040000000  0.4046940000000 1.0
C      1  0.4701900000000  0.4159940000000  0.5164710000000 1.0
C      1  0.4120340000000  0.5547920000000  0.4725260000000 1.0
C      1  0.4951550000000  0.4815750000000  0.5002610000000 1.0
C      1  0.5318420000000  0.5008640000000  0.5071080000000 1.0
C      1  0.4552010000000  0.5449960000000  0.4203020000000 1.0
C      1  0.5531770000000  0.4308350000000  0.4747030000000 1.0
C      1  0.4798520000000  0.4181700000000  0.4714790000000 1.0
C      1  0.4580990000000  0.5699620000000  0.5307430000000 1.0
C      1  0.5521020000000  0.4611230000000  0.5099270000000 1.0
C      1  0.4497550000000  0.4396990000000  0.5596630000000 1.0
C      1  0.4148530000000  0.4464420000000  0.4687190000000 1.0
C      1  0.4667000000000  0.5152400000000  0.5203970000000 1.0
C      1  0.4986970000000  0.5908410000000  0.5439740000000 1.0
C      1  0.4505430000000  0.5017670000000  0.5003690000000 1.0
C      1  0.5861160000000  0.5102430000000  0.5156340000000 1.0
C      1  0.5108450000000  0.4103900000000  0.5279460000000 1.0
C      1  0.5994200000000  0.4710740000000  0.5135230000000 1.0
C      1  0.5521220000000  0.5692580000000  0.4454410000000 1.0
C      1  0.4449510000000  0.4107270000000  0.5076570000000 1.0
C      1  0.4620480000000  0.4573590000000  0.5399100000000 1.0
C      1  0.5522160000000  0.5258640000000  0.4766340000000 1.0
C      1  0.4692890000000  0.4566620000000  0.4823510000000 1.0
C      1  0.4852270000000  0.4364780000000  0.4954620000000 1.0
C      1  0.5820930000000  0.5354540000000  0.5311560000000 1.0
C      1  0.5761290000000  0.5428980000000  0.4811400000000 1.0
C      1  0.4527920000000  0.4219680000000  0.4603990000000 1.0
C      1  0.5565420000000  0.4888870000000  0.5030690000000 1.0
C      1  0.4236450000000  0.5386290000000  0.4527160000000 1.0
C      1  0.4056250000000  0.4906740000000  0.4890360000000 1.0
C      1  0.4813410000000  0.5349370000000  0.4201960000000 1.0
C      1  0.5893560000000  0.5077740000000  0.4516650000000 1.0
C      1  0.4779380000000  0.5255690000000  0.5855320000000 1.0
END
