TITL C-4164243-3780-172 0.191780569980337 125000 -12759.8024499759 0 0 87 (C1) n - 1
REM
REM in /home/nfs/bkarasulu/CARBON/AIRSS/Generating-Clusters/ReaxFF-fromJPCA2015/Units_Real/with-SteepDescent/Only-C1/SD-CG/Try1-3A/FIRE-CG
REM
REM
REM
REM
REM
REM ./C.cell (11c1c37f851c82e70ff6c80c92926a4b)
REM
REM compiler GCC version 9.2.1 20190827 (Red Hat 9.2.1-1)
REM options -cpp -mtune=generic -march=x86-64 -g -O0 -fpre-include=/usr/include/finclude/math-vector-fortran.h
REM seed 2013316055 -1879842452 1856391929 873833855 -300932229 -609158717 57106629 420697337 1389105169 -1384471450 1273606469 1033183231 22245942 -1293585208 831653229 446690239 -1843091895 1110362011 -1515266026 -1810221644 -770622346 -1431475897 632234764 -1089405962 1762403961 845622691 1520155010 -1790811642 -813179069 -751871708 1932338107 -911670952 -20068763
REM
CELL 1.54180   50.00000   50.00000   50.00000   90.00000   90.00000   90.00000
LATT -1
SFAC C  
C      1  0.4284190000000  0.4546340000000  0.4818330000000 1.0
C      1  0.5104050000000  0.4314390000000  0.4417760000000 1.0
C      1  0.4342040000000  0.5118100000000  0.4987170000000 1.0
C      1  0.4406410000000  0.5466140000000  0.4592270000000 1.0
C      1  0.4352690000000  0.4704340000000  0.4440320000000 1.0
C      1  0.5470250000000  0.4986270000000  0.4872110000000 1.0
C      1  0.4716180000000  0.5612610000000  0.5390950000000 1.0
C      1  0.4872070000000  0.4952810000000  0.4207280000000 1.0
C      1  0.5720430000000  0.4585210000000  0.4568320000000 1.0
C      1  0.5232160000000  0.4127350000000  0.4638810000000 1.0
C      1  0.4177190000000  0.4757880000000  0.4665480000000 1.0
C      1  0.4434800000000  0.5505760000000  0.5342880000000 1.0
C      1  0.5105050000000  0.5558250000000  0.5765270000000 1.0
C      1  0.4633410000000  0.4871730000000  0.5610400000000 1.0
C      1  0.4368600000000  0.4900690000000  0.4232030000000 1.0
C      1  0.5396930000000  0.4780360000000  0.4228540000000 1.0
C      1  0.5591590000000  0.5424310000000  0.5172620000000 1.0
C      1  0.5900040000000  0.5191820000000  0.4836360000000 1.0
C      1  0.5275150000000  0.5060180000000  0.4215180000000 1.0
C      1  0.5011060000000  0.5409070000000  0.4660080000000 1.0
C      1  0.4871940000000  0.5592500000000  0.5622220000000 1.0
C      1  0.4699730000000  0.5268120000000  0.5920990000000 1.0
C      1  0.5520400000000  0.5647000000000  0.4973760000000 1.0
C      1  0.5442240000000  0.4479570000000  0.4620330000000 1.0
C      1  0.4471690000000  0.5600050000000  0.4845940000000 1.0
C      1  0.5514970000000  0.5422210000000  0.5462480000000 1.0
C      1  0.4721510000000  0.4553770000000  0.5671700000000 1.0
C      1  0.4888460000000  0.5365750000000  0.4396850000000 1.0
C      1  0.4150860000000  0.5053240000000  0.4756630000000 1.0
C      1  0.5316400000000  0.4532540000000  0.4362520000000 1.0
C      1  0.5062880000000  0.4859830000000  0.5344470000000 1.0
C      1  0.5295650000000  0.5590800000000  0.5530730000000 1.0
C      1  0.5100900000000  0.5061020000000  0.5780020000000 1.0
C      1  0.5251360000000  0.4523630000000  0.4923610000000 1.0
C      1  0.5000100000000  0.5310800000000  0.5903830000000 1.0
C      1  0.4904560000000  0.4680750000000  0.5179880000000 1.0
C      1  0.5276010000000  0.4816020000000  0.4964360000000 1.0
C      1  0.4608280000000  0.4966150000000  0.4103680000000 1.0
C      1  0.4968310000000  0.4409580000000  0.5701580000000 1.0
C      1  0.5018180000000  0.5876940000000  0.4888110000000 1.0
C      1  0.4616190000000  0.4962050000000  0.4902510000000 1.0
C      1  0.4596210000000  0.5365520000000  0.4390840000000 1.0
C      1  0.5278700000000  0.5801750000000  0.5034010000000 1.0
C      1  0.5151520000000  0.5015890000000  0.5121410000000 1.0
C      1  0.4747030000000  0.4844950000000  0.4677580000000 1.0
C      1  0.5511530000000  0.4485030000000  0.5538260000000 1.0
C      1  0.5435320000000  0.4690640000000  0.5746880000000 1.0
C      1  0.5569710000000  0.5160700000000  0.5598930000000 1.0
C      1  0.4469480000000  0.4816480000000  0.5361290000000 1.0
C      1  0.4624950000000  0.4568030000000  0.4545350000000 1.0
C      1  0.5403920000000  0.4138220000000  0.4871640000000 1.0
C      1  0.4383460000000  0.5431930000000  0.5066830000000 1.0
C      1  0.5520800000000  0.5039500000000  0.4594400000000 1.0
C      1  0.4783900000000  0.4281640000000  0.5193770000000 1.0
C      1  0.5279660000000  0.5377510000000  0.4763740000000 1.0
C      1  0.5265490000000  0.4462230000000  0.5700060000000 1.0
C      1  0.5702580000000  0.5285060000000  0.4648480000000 1.0
C      1  0.5534910000000  0.5514570000000  0.4710020000000 1.0
C      1  0.5165050000000  0.5690710000000  0.5279610000000 1.0
C      1  0.4246130000000  0.4949810000000  0.5236620000000 1.0
C      1  0.5855980000000  0.5271520000000  0.5109050000000 1.0
C      1  0.4765170000000  0.4330210000000  0.5501440000000 1.0
C      1  0.5350400000000  0.5214460000000  0.5013480000000 1.0
C      1  0.4515690000000  0.5139630000000  0.5737640000000 1.0
C      1  0.4343970000000  0.5315830000000  0.5562980000000 1.0
C      1  0.4634860000000  0.4789210000000  0.5128920000000 1.0
C      1  0.4926630000000  0.5540890000000  0.5196400000000 1.0
C      1  0.4764320000000  0.5752460000000  0.4824320000000 1.0
C      1  0.5383650000000  0.4980010000000  0.5752230000000 1.0
C      1  0.4153120000000  0.5291600000000  0.4591210000000 1.0
C      1  0.5754520000000  0.4794340000000  0.5245350000000 1.0
C      1  0.4465150000000  0.5175470000000  0.4211030000000 1.0
C      1  0.4967860000000  0.4445270000000  0.5028710000000 1.0
C      1  0.4958150000000  0.4927210000000  0.4493360000000 1.0
C      1  0.4924940000000  0.4959530000000  0.5573870000000 1.0
C      1  0.5662100000000  0.4965530000000  0.5426410000000 1.0
C      1  0.5016040000000  0.5205870000000  0.4174960000000 1.0
C      1  0.4476280000000  0.4362230000000  0.4765240000000 1.0
C      1  0.4185860000000  0.5188190000000  0.5369150000000 1.0
C      1  0.5633520000000  0.4813860000000  0.4392790000000 1.0
C      1  0.5617500000000  0.4510290000000  0.5270190000000 1.0
C      1  0.4862180000000  0.4429120000000  0.4460710000000 1.0
C      1  0.4565650000000  0.4327360000000  0.5025180000000 1.0
C      1  0.5224660000000  0.5055020000000  0.4498370000000 1.0
C      1  0.4855430000000  0.5483850000000  0.4907870000000 1.0
C      1  0.5907040000000  0.4990700000000  0.5074410000000 1.0
C      1  0.5464120000000  0.4374260000000  0.5066660000000 1.0
END
