TITL C-4164247-2821-429 -6.56068363817661 125000 -5696.25750094785 0 0 39 (C1) n - 1
REM
REM in /home/nfs/bkarasulu/CARBON/AIRSS/Generating-Clusters/ReaxFF-fromJPCA2015/Units_Real/with-SteepDescent/Only-C1/SD-CG/Try1-3A/FIRE-CG
REM
REM
REM
REM
REM
REM ./C.cell (11c1c37f851c82e70ff6c80c92926a4b)
REM
REM compiler GCC version 9.2.1 20190827 (Red Hat 9.2.1-1)
REM options -cpp -mtune=generic -march=x86-64 -g -O0 -fpre-include=/usr/include/finclude/math-vector-fortran.h
REM seed -1858290165 1794536100 1786952600 -1978047606 2076149741 -1435778661 914527269 -1485483365 1973220308 -1030660199 839974084 -1239427350 -426769420 -453958071 -589233896 927920017 889437334 -946381687 447941599 -20329499 -801344420 1146703681 -1234170309 2122872770 1575515319 913755766 -1636314361 949374825 -2139276490 1710146665 828516892 313535160 -508410751
REM
CELL 1.54180   50.00000   50.00000   50.00000   90.00000   90.00000   90.00000
LATT -1
SFAC C  
C      1  0.5401640000000  0.4854480000000  0.4690160000000 1.0
C      1  0.5323580000000  0.5459730000000  0.5121690000000 1.0
C      1  0.4725890000000  0.5132720000000  0.4318690000000 1.0
C      1  0.5452200000000  0.4794490000000  0.5259860000000 1.0
C      1  0.5096420000000  0.5531280000000  0.4945020000000 1.0
C      1  0.4607110000000  0.4920690000000  0.4814050000000 1.0
C      1  0.4826450000000  0.4201040000000  0.4842900000000 1.0
C      1  0.4807530000000  0.4786980000000  0.4668180000000 1.0
C      1  0.5083620000000  0.4481610000000  0.5513600000000 1.0
C      1  0.5053450000000  0.5250630000000  0.5554950000000 1.0
C      1  0.4811350000000  0.5516130000000  0.5013720000000 1.0
C      1  0.4551670000000  0.5268870000000  0.5415160000000 1.0
C      1  0.4853870000000  0.4220790000000  0.5106170000000 1.0
C      1  0.4831800000000  0.5530400000000  0.4539550000000 1.0
C      1  0.5028110000000  0.4714210000000  0.5721880000000 1.0
C      1  0.5271770000000  0.5020080000000  0.5154150000000 1.0
C      1  0.5504860000000  0.4612240000000  0.4798160000000 1.0
C      1  0.5270460000000  0.5040650000000  0.4847540000000 1.0
C      1  0.4697220000000  0.5508550000000  0.5283750000000 1.0
C      1  0.4600070000000  0.4825660000000  0.5102540000000 1.0
C      1  0.4511420000000  0.5190620000000  0.4720970000000 1.0
C      1  0.4565140000000  0.5042070000000  0.5270850000000 1.0
C      1  0.4665300000000  0.5444850000000  0.4767130000000 1.0
C      1  0.5233740000000  0.4501890000000  0.4816830000000 1.0
C      1  0.5087370000000  0.5450210000000  0.4664220000000 1.0
C      1  0.5245870000000  0.5258830000000  0.5323450000000 1.0
C      1  0.5033690000000  0.4991280000000  0.5653080000000 1.0
C      1  0.4802140000000  0.5401800000000  0.5525050000000 1.0
C      1  0.4923350000000  0.4984680000000  0.4491110000000 1.0
C      1  0.5667160000000  0.5064500000000  0.5018160000000 1.0
C      1  0.4867090000000  0.4417050000000  0.5312220000000 1.0
C      1  0.5284020000000  0.4613880000000  0.5391870000000 1.0
C      1  0.4442800000000  0.5137690000000  0.4436090000000 1.0
C      1  0.4791720000000  0.5419920000000  0.4260800000000 1.0
C      1  0.4823280000000  0.4627650000000  0.5115920000000 1.0
C      1  0.5130620000000  0.5158300000000  0.4617270000000 1.0
C      1  0.5638900000000  0.4778250000000  0.5024530000000 1.0
C      1  0.4932250000000  0.4541200000000  0.4835480000000 1.0
C      1  0.5555030000000  0.5304080000000  0.5043250000000 1.0
END
