TITL C-4164236-1577-43 67.6265177477814 125000 -26412.1401251732 0 0 179 (C1) n - 1
REM
REM in /home/nfs/bkarasulu/CARBON/AIRSS/Generating-Clusters/ReaxFF-fromJPCA2015/Units_Real/with-SteepDescent/Only-C1/SD-CG/Try1-3A/FIRE-CG
REM
REM
REM
REM
REM
REM ./C.cell (11c1c37f851c82e70ff6c80c92926a4b)
REM
REM compiler GCC version 9.2.1 20190827 (Red Hat 9.2.1-1)
REM options -cpp -mtune=generic -march=x86-64 -g -O0 -fpre-include=/usr/include/finclude/math-vector-fortran.h
REM seed -558729068 398172900 -1546556213 1975245842 801459740 -1044240480 1157948945 1232862398 565680719 -1201972953 -1056597301 1701820976 -745670768 1767733105 45444224 -1914358282 -125360610 -1436414388 -400977973 -127658040 836667764 36188561 -537923377 -1473333945 1646912662 -136957812 1659104261 1451292233 -1454303760 -2009641506 1698376283 2086635152 1135630213
REM
CELL 1.54180   50.00000   50.00000   50.00000   90.00000   90.00000   90.00000
LATT -1
SFAC C  
C      1  0.4283060000000  0.4309180000000  0.4664770000000 1.0
C      1  0.4524600000000  0.4848400000000  0.5119240000000 1.0
C      1  0.5434040000000  0.4986590000000  0.4207150000000 1.0
C      1  0.5777630000000  0.5660230000000  0.4671450000000 1.0
C      1  0.4209720000000  0.4848150000000  0.4746140000000 1.0
C      1  0.5311770000000  0.5804350000000  0.5659130000000 1.0
C      1  0.5220040000000  0.4366710000000  0.5874220000000 1.0
C      1  0.4752030000000  0.5362600000000  0.5975500000000 1.0
C      1  0.4360020000000  0.4188040000000  0.5362350000000 1.0
C      1  0.5211080000000  0.4055610000000  0.5499100000000 1.0
C      1  0.5311960000000  0.4585710000000  0.3978770000000 1.0
C      1  0.4788940000000  0.5012780000000  0.5097770000000 1.0
C      1  0.3942940000000  0.5255830000000  0.5022300000000 1.0
C      1  0.6148690000000  0.4751650000000  0.5400290000000 1.0
C      1  0.3985190000000  0.4991870000000  0.5473370000000 1.0
C      1  0.5142380000000  0.6031510000000  0.4313160000000 1.0
C      1  0.4206640000000  0.5511510000000  0.5507790000000 1.0
C      1  0.4347380000000  0.5730750000000  0.5375140000000 1.0
C      1  0.5753190000000  0.5213960000000  0.5026080000000 1.0
C      1  0.5191870000000  0.4373040000000  0.4170360000000 1.0
C      1  0.6057260000000  0.4640360000000  0.4910800000000 1.0
C      1  0.5354940000000  0.5263360000000  0.5337950000000 1.0
C      1  0.4493920000000  0.6000410000000  0.5021410000000 1.0
C      1  0.5558350000000  0.5242750000000  0.4833500000000 1.0
C      1  0.5721890000000  0.4567900000000  0.5588180000000 1.0
C      1  0.5132490000000  0.4370650000000  0.4765330000000 1.0
C      1  0.4415350000000  0.4579970000000  0.5056600000000 1.0
C      1  0.5778080000000  0.4225730000000  0.5160880000000 1.0
C      1  0.5540280000000  0.4750790000000  0.4078350000000 1.0
C      1  0.5796780000000  0.4991340000000  0.5220460000000 1.0
C      1  0.4769440000000  0.3921270000000  0.4992820000000 1.0
C      1  0.5821890000000  0.4824720000000  0.4438940000000 1.0
C      1  0.4940250000000  0.5172530000000  0.4024700000000 1.0
C      1  0.4922640000000  0.6321670000000  0.4816720000000 1.0
C      1  0.5570100000000  0.5279400000000  0.4557310000000 1.0
C      1  0.4007630000000  0.5470510000000  0.4614150000000 1.0
C      1  0.4259590000000  0.5858160000000  0.5127620000000 1.0
C      1  0.4681410000000  0.4522040000000  0.4130880000000 1.0
C      1  0.5269690000000  0.4483600000000  0.5594810000000 1.0
C      1  0.3998790000000  0.4526520000000  0.4989570000000 1.0
C      1  0.5110770000000  0.5013040000000  0.5959550000000 1.0
C      1  0.4077260000000  0.5730700000000  0.4931200000000 1.0
C      1  0.4427250000000  0.4057780000000  0.4622020000000 1.0
C      1  0.5918130000000  0.4378710000000  0.4943570000000 1.0
C      1  0.4897420000000  0.5969170000000  0.5423550000000 1.0
C      1  0.5069090000000  0.4121090000000  0.5246820000000 1.0
C      1  0.5090620000000  0.5620280000000  0.5176940000000 1.0
C      1  0.4791400000000  0.4497140000000  0.5455140000000 1.0
C      1  0.5645830000000  0.4238690000000  0.4372150000000 1.0
C      1  0.4416940000000  0.4647100000000  0.4160170000000 1.0
C      1  0.4677890000000  0.5044880000000  0.4006870000000 1.0
C      1  0.4169620000000  0.4585660000000  0.5235020000000 1.0
C      1  0.5503690000000  0.4032740000000  0.5098400000000 1.0
C      1  0.4438970000000  0.5104840000000  0.4194640000000 1.0
C      1  0.4104330000000  0.4960020000000  0.4499780000000 1.0
C      1  0.5354520000000  0.5528390000000  0.5246970000000 1.0
C      1  0.4495610000000  0.4890340000000  0.5438140000000 1.0
C      1  0.4892280000000  0.5334840000000  0.4441170000000 1.0
C      1  0.5732130000000  0.4342100000000  0.5407320000000 1.0
C      1  0.4232500000000  0.5269050000000  0.5021520000000 1.0
C      1  0.4598470000000  0.5288110000000  0.5738290000000 1.0
C      1  0.6113590000000  0.5024990000000  0.4772280000000 1.0
C      1  0.4832090000000  0.5080230000000  0.6010120000000 1.0
C      1  0.5078410000000  0.4900300000000  0.4475720000000 1.0
C      1  0.5498550000000  0.5338280000000  0.5787670000000 1.0
C      1  0.4299720000000  0.5320020000000  0.5710360000000 1.0
C      1  0.5777330000000  0.4451600000000  0.4241960000000 1.0
C      1  0.5218500000000  0.4960350000000  0.5672690000000 1.0
C      1  0.5576830000000  0.4772360000000  0.5251690000000 1.0
C      1  0.5298500000000  0.5536870000000  0.4188730000000 1.0
C      1  0.5004630000000  0.5387360000000  0.4854740000000 1.0
C      1  0.5464250000000  0.4716390000000  0.5522230000000 1.0
C      1  0.4714540000000  0.4623830000000  0.4659650000000 1.0
C      1  0.5467570000000  0.4067350000000  0.5374220000000 1.0
C      1  0.5501130000000  0.4923930000000  0.6038660000000 1.0
C      1  0.5544560000000  0.5435340000000  0.4135450000000 1.0
C      1  0.4299710000000  0.5361790000000  0.4258060000000 1.0
C      1  0.4901340000000  0.4422170000000  0.4567510000000 1.0
C      1  0.6112360000000  0.5293660000000  0.4665290000000 1.0
C      1  0.4960900000000  0.4949290000000  0.5528830000000 1.0
C      1  0.4263720000000  0.5309820000000  0.5306980000000 1.0
C      1  0.4906780000000  0.3918110000000  0.4606440000000 1.0
C      1  0.5898220000000  0.5158380000000  0.5462390000000 1.0
C      1  0.5354860000000  0.4208950000000  0.4333360000000 1.0
C      1  0.5389780000000  0.5936910000000  0.5202090000000 1.0
C      1  0.6081190000000  0.4838530000000  0.5126620000000 1.0
C      1  0.5189060000000  0.5095370000000  0.3876040000000 1.0
C      1  0.4831470000000  0.5125640000000  0.4836590000000 1.0
C      1  0.5593370000000  0.5797780000000  0.4854750000000 1.0
C      1  0.5546440000000  0.5615420000000  0.5704890000000 1.0
C      1  0.5732330000000  0.5469150000000  0.4393050000000 1.0
C      1  0.5279690000000  0.4641260000000  0.4861580000000 1.0
C      1  0.4623160000000  0.4763940000000  0.3977400000000 1.0
C      1  0.5558810000000  0.5720970000000  0.5144950000000 1.0
C      1  0.5801160000000  0.5637430000000  0.5555170000000 1.0
C      1  0.5075520000000  0.5827930000000  0.4948530000000 1.0
C      1  0.5030020000000  0.4886790000000  0.5218240000000 1.0
C      1  0.5061010000000  0.5859480000000  0.4147650000000 1.0
C      1  0.4491670000000  0.5171510000000  0.5377390000000 1.0
C      1  0.5881280000000  0.5032350000000  0.5719710000000 1.0
C      1  0.5354130000000  0.4175730000000  0.4652940000000 1.0
C      1  0.5630920000000  0.4266050000000  0.4673580000000 1.0
C      1  0.4681650000000  0.3982510000000  0.4538480000000 1.0
C      1  0.4801470000000  0.4572930000000  0.6013970000000 1.0
C      1  0.5209970000000  0.5950610000000  0.5425300000000 1.0
C      1  0.4424020000000  0.5457280000000  0.4807860000000 1.0
C      1  0.5311240000000  0.4889090000000  0.4665510000000 1.0
C      1  0.4659450000000  0.4179120000000  0.5450930000000 1.0
C      1  0.4746260000000  0.5248950000000  0.5294590000000 1.0
C      1  0.5328530000000  0.5908910000000  0.4795490000000 1.0
C      1  0.5830180000000  0.4712220000000  0.4169450000000 1.0
C      1  0.5947060000000  0.5440020000000  0.5387420000000 1.0
C      1  0.4255810000000  0.4867060000000  0.4260710000000 1.0
C      1  0.5312920000000  0.5579820000000  0.4466820000000 1.0
C      1  0.4620380000000  0.5615060000000  0.4956590000000 1.0
C      1  0.4316390000000  0.4998980000000  0.4971310000000 1.0
C      1  0.5439130000000  0.5198390000000  0.4022450000000 1.0
C      1  0.4808080000000  0.3990100000000  0.5265850000000 1.0
C      1  0.5986100000000  0.5542800000000  0.4820230000000 1.0
C      1  0.5325950000000  0.3968620000000  0.4877710000000 1.0
C      1  0.5526180000000  0.4618060000000  0.5010560000000 1.0
C      1  0.5257040000000  0.4805050000000  0.6115860000000 1.0
C      1  0.4230620000000  0.4824400000000  0.5610630000000 1.0
C      1  0.5289450000000  0.5881550000000  0.4503460000000 1.0
C      1  0.4116320000000  0.4274150000000  0.4899340000000 1.0
C      1  0.4297330000000  0.4120170000000  0.5081770000000 1.0
C      1  0.5339260000000  0.5204940000000  0.5602720000000 1.0
C      1  0.4857330000000  0.4865750000000  0.4657250000000 1.0
C      1  0.4872150000000  0.5642840000000  0.4826920000000 1.0
C      1  0.5563640000000  0.4994740000000  0.4459030000000 1.0
C      1  0.5091640000000  0.4553650000000  0.6052130000000 1.0
C      1  0.5082600000000  0.5800410000000  0.5838320000000 1.0
C      1  0.5346610000000  0.5085910000000  0.4884920000000 1.0
C      1  0.4494830000000  0.5590000000000  0.4280310000000 1.0
C      1  0.4218110000000  0.5650180000000  0.4695720000000 1.0
C      1  0.3948830000000  0.4779230000000  0.4844930000000 1.0
C      1  0.4831780000000  0.5858970000000  0.5684740000000 1.0
C      1  0.4108040000000  0.5253570000000  0.4450440000000 1.0
C      1  0.5695290000000  0.4481640000000  0.4832460000000 1.0
C      1  0.4637070000000  0.4373640000000  0.5878370000000 1.0
C      1  0.5194620000000  0.4815180000000  0.3873170000000 1.0
C      1  0.4729990000000  0.6066620000000  0.5198530000000 1.0
C      1  0.5659230000000  0.5119580000000  0.5908660000000 1.0
C      1  0.5061980000000  0.4356560000000  0.5061270000000 1.0
C      1  0.4783720000000  0.5540870000000  0.4258140000000 1.0
C      1  0.4134250000000  0.5070940000000  0.5710130000000 1.0
C      1  0.4782530000000  0.4171460000000  0.5731440000000 1.0
C      1  0.3879610000000  0.4971820000000  0.5073050000000 1.0
C      1  0.4601580000000  0.5667810000000  0.5238600000000 1.0
C      1  0.4365180000000  0.4759430000000  0.5857760000000 1.0
C      1  0.4420340000000  0.4559830000000  0.4759490000000 1.0
C      1  0.5067550000000  0.5124480000000  0.4290150000000 1.0
C      1  0.4849230000000  0.5533530000000  0.5309620000000 1.0
C      1  0.4529510000000  0.5790090000000  0.4479930000000 1.0
C      1  0.4492480000000  0.3989810000000  0.4907840000000 1.0
C      1  0.4835760000000  0.5214350000000  0.5557150000000 1.0
C      1  0.4260190000000  0.4409020000000  0.5504680000000 1.0
C      1  0.5089270000000  0.4633480000000  0.5078020000000 1.0
C      1  0.5252830000000  0.5077440000000  0.5148770000000 1.0
C      1  0.4729740000000  0.4777620000000  0.5585360000000 1.0
C      1  0.5117430000000  0.5415710000000  0.4596690000000 1.0
C      1  0.5016350000000  0.4490830000000  0.5520790000000 1.0
C      1  0.4662450000000  0.4818850000000  0.5910050000000 1.0
C      1  0.4505360000000  0.5933490000000  0.4726830000000 1.0
C      1  0.5078740000000  0.4142130000000  0.5755990000000 1.0
C      1  0.6028670000000  0.4790640000000  0.4651160000000 1.0
C      1  0.4631340000000  0.5254880000000  0.4646950000000 1.0
C      1  0.5044140000000  0.3885040000000  0.4839640000000 1.0
C      1  0.5927500000000  0.5432700000000  0.5086070000000 1.0
C      1  0.4852150000000  0.5635670000000  0.5886660000000 1.0
C      1  0.4539200000000  0.5087430000000  0.4442050000000 1.0
C      1  0.4381340000000  0.4488310000000  0.5758540000000 1.0
C      1  0.6019780000000  0.5346850000000  0.4394160000000 1.0
C      1  0.3893110000000  0.5501410000000  0.4885780000000 1.0
C      1  0.4066800000000  0.4878490000000  0.5253380000000 1.0
C      1  0.5018890000000  0.5583330000000  0.4083130000000 1.0
C      1  0.5952740000000  0.4761990000000  0.5629010000000 1.0
C      1  0.4919950000000  0.4422830000000  0.4281280000000 1.0
C      1  0.4938030000000  0.6137760000000  0.4999010000000 1.0
END
