TITL C-4164246-3563-366 -20.3143419611126 125000 -7132.92540614027 0 0 48 (C1) n - 1
REM
REM in /home/nfs/bkarasulu/CARBON/AIRSS/Generating-Clusters/ReaxFF-fromJPCA2015/Units_Real/with-SteepDescent/Only-C1/SD-CG/Try1-3A/FIRE-CG
REM
REM
REM
REM
REM
REM ./C.cell (11c1c37f851c82e70ff6c80c92926a4b)
REM
REM compiler GCC version 9.2.1 20190827 (Red Hat 9.2.1-1)
REM options -cpp -mtune=generic -march=x86-64 -g -O0 -fpre-include=/usr/include/finclude/math-vector-fortran.h
REM seed -279832080 -63960608 644060344 268490608 -758317764 -1578558178 607003247 1195793154 321428341 -297168974 -1764552667 -1139659359 1639518957 -853778091 496389338 1234661889 -1844619573 -1618979386 -636063468 1613711188 679432939 986874484 -1395490395 2030290942 212335128 429546552 2140465702 902958471 -2089921524 572592428 -236082723 -2077405916 1905082996
REM
CELL 1.54180   50.00000   50.00000   50.00000   90.00000   90.00000   90.00000
LATT -1
SFAC C  
C      1  0.5134970000000  0.5060330000000  0.5720170000000 1.0
C      1  0.4643310000000  0.4581150000000  0.4687890000000 1.0
C      1  0.5065370000000  0.4422360000000  0.5343010000000 1.0
C      1  0.4847940000000  0.4747110000000  0.4541560000000 1.0
C      1  0.5603640000000  0.4641020000000  0.4676520000000 1.0
C      1  0.5507950000000  0.4657370000000  0.5082440000000 1.0
C      1  0.4378510000000  0.4998160000000  0.4532400000000 1.0
C      1  0.5301490000000  0.4865200000000  0.4453080000000 1.0
C      1  0.5111970000000  0.5489700000000  0.4662950000000 1.0
C      1  0.4738080000000  0.5518400000000  0.5247130000000 1.0
C      1  0.4613820000000  0.4875570000000  0.5308480000000 1.0
C      1  0.4331500000000  0.4800030000000  0.4952280000000 1.0
C      1  0.5221470000000  0.4704820000000  0.4987860000000 1.0
C      1  0.5163610000000  0.5342790000000  0.4372620000000 1.0
C      1  0.4996260000000  0.4820440000000  0.5625910000000 1.0
C      1  0.4528250000000  0.4665730000000  0.5123720000000 1.0
C      1  0.5433120000000  0.4711230000000  0.5573820000000 1.0
C      1  0.5112140000000  0.5042700000000  0.4317070000000 1.0
C      1  0.4596380000000  0.5353070000000  0.4592700000000 1.0
C      1  0.4465990000000  0.5120480000000  0.5257360000000 1.0
C      1  0.5066200000000  0.5316460000000  0.5587900000000 1.0
C      1  0.4805580000000  0.5424770000000  0.5511410000000 1.0
C      1  0.5593770000000  0.5148030000000  0.5232070000000 1.0
C      1  0.4906850000000  0.5109140000000  0.4960610000000 1.0
C      1  0.5597420000000  0.4665720000000  0.5347890000000 1.0
C      1  0.5273680000000  0.5403630000000  0.4878570000000 1.0
C      1  0.5411810000000  0.4985030000000  0.5671350000000 1.0
C      1  0.4723330000000  0.4516560000000  0.4964890000000 1.0
C      1  0.4370680000000  0.5214560000000  0.4733960000000 1.0
C      1  0.4562140000000  0.5357370000000  0.5386730000000 1.0
C      1  0.4606360000000  0.5130270000000  0.4394440000000 1.0
C      1  0.4901890000000  0.4902810000000  0.5362100000000 1.0
C      1  0.5098790000000  0.4973710000000  0.5144950000000 1.0
C      1  0.5521770000000  0.5204910000000  0.5508610000000 1.0
C      1  0.4877020000000  0.4939130000000  0.4740520000000 1.0
C      1  0.5677360000000  0.4875300000000  0.5178940000000 1.0
C      1  0.4334850000000  0.5088890000000  0.4999710000000 1.0
C      1  0.4395280000000  0.4737660000000  0.4674930000000 1.0
C      1  0.5169600000000  0.4587190000000  0.5573720000000 1.0
C      1  0.5603460000000  0.4804090000000  0.4419090000000 1.0
C      1  0.4836100000000  0.4957010000000  0.4320220000000 1.0
C      1  0.5001500000000  0.4487850000000  0.5066930000000 1.0
C      1  0.4823340000000  0.5401780000000  0.4996500000000 1.0
C      1  0.4814340000000  0.5500190000000  0.4726130000000 1.0
C      1  0.5300330000000  0.4703400000000  0.4694420000000 1.0
C      1  0.5315140000000  0.5243830000000  0.5135740000000 1.0
C      1  0.5299290000000  0.5372040000000  0.5423780000000 1.0
C      1  0.5316330000000  0.5531020000000  0.4304920000000 1.0
END
