TITL C-4164242-3624-87 49.547736377528 125000 -9351.39208659602 0 0 63 (C1) n - 1
REM
REM in /home/nfs/bkarasulu/CARBON/AIRSS/Generating-Clusters/ReaxFF-fromJPCA2015/Units_Real/with-SteepDescent/Only-C1/SD-CG/Try1-3A/FIRE-CG
REM
REM
REM
REM
REM
REM ./C.cell (11c1c37f851c82e70ff6c80c92926a4b)
REM
REM compiler GCC version 9.2.1 20190827 (Red Hat 9.2.1-1)
REM options -cpp -mtune=generic -march=x86-64 -g -O0 -fpre-include=/usr/include/finclude/math-vector-fortran.h
REM seed 600429721 1938673419 913518270 -133958559 -675233133 1117546333 -718876893 118930668 -616019551 1859851258 490730086 -681871826 -1198082092 -1927514231 -290891875 -2016084688 943949040 -1553782366 267663669 -817080195 899999764 1753307577 -1811765336 -1151913015 -1596882749 1213298524 1144465737 1172133064 119216971 417805294 -760925463 1037992970 -768795631
REM
CELL 1.54180   50.00000   50.00000   50.00000   90.00000   90.00000   90.00000
LATT -1
SFAC C  
C      1  0.4763430000000  0.4492020000000  0.4738170000000 1.0
C      1  0.4604800000000  0.4475870000000  0.4995250000000 1.0
C      1  0.5300100000000  0.4371160000000  0.5001550000000 1.0
C      1  0.5545220000000  0.4955970000000  0.5501550000000 1.0
C      1  0.5070230000000  0.4983180000000  0.4386180000000 1.0
C      1  0.5581510000000  0.5200020000000  0.5373590000000 1.0
C      1  0.4557950000000  0.5627510000000  0.5440530000000 1.0
C      1  0.5549020000000  0.5504870000000  0.4916290000000 1.0
C      1  0.4962230000000  0.4954540000000  0.4712920000000 1.0
C      1  0.4683940000000  0.5278550000000  0.4421750000000 1.0
C      1  0.4400350000000  0.5512170000000  0.5214620000000 1.0
C      1  0.5064870000000  0.4864940000000  0.5735670000000 1.0
C      1  0.5600280000000  0.5443090000000  0.5216640000000 1.0
C      1  0.5006140000000  0.4662660000000  0.4760800000000 1.0
C      1  0.4476340000000  0.5512280000000  0.4931300000000 1.0
C      1  0.5255670000000  0.5146950000000  0.5057820000000 1.0
C      1  0.5478210000000  0.5222120000000  0.4878300000000 1.0
C      1  0.4583280000000  0.4585660000000  0.4524940000000 1.0
C      1  0.5283360000000  0.5196850000000  0.4446100000000 1.0
C      1  0.4592920000000  0.4821180000000  0.4333290000000 1.0
C      1  0.5666620000000  0.4861810000000  0.4650520000000 1.0
C      1  0.5366360000000  0.4542610000000  0.4423390000000 1.0
C      1  0.4935560000000  0.5665050000000  0.5015430000000 1.0
C      1  0.5509330000000  0.5109210000000  0.4604760000000 1.0
C      1  0.4356040000000  0.4708510000000  0.4664900000000 1.0
C      1  0.5167250000000  0.5443130000000  0.4536030000000 1.0
C      1  0.4321500000000  0.5310500000000  0.4797660000000 1.0
C      1  0.5416580000000  0.4462540000000  0.5454360000000 1.0
C      1  0.5556950000000  0.4595740000000  0.4622150000000 1.0
C      1  0.4571000000000  0.4981230000000  0.5003410000000 1.0
C      1  0.4784840000000  0.5036790000000  0.4298510000000 1.0
C      1  0.4893530000000  0.4396720000000  0.5466040000000 1.0
C      1  0.5143940000000  0.4876780000000  0.5052520000000 1.0
C      1  0.4294180000000  0.5238730000000  0.5288440000000 1.0
C      1  0.4728910000000  0.4404270000000  0.5237370000000 1.0
C      1  0.4436540000000  0.4723230000000  0.4949320000000 1.0
C      1  0.5096010000000  0.4286680000000  0.5130590000000 1.0
C      1  0.5173930000000  0.4292010000000  0.5403310000000 1.0
C      1  0.4967900000000  0.4698200000000  0.5513720000000 1.0
C      1  0.5058420000000  0.4790020000000  0.5276580000000 1.0
C      1  0.4356280000000  0.4936700000000  0.4469500000000 1.0
C      1  0.4874910000000  0.5449860000000  0.4563830000000 1.0
C      1  0.4840670000000  0.5045590000000  0.5806970000000 1.0
C      1  0.5680240000000  0.4649840000000  0.5085360000000 1.0
C      1  0.5349280000000  0.5610890000000  0.4718690000000 1.0
C      1  0.5530090000000  0.4477120000000  0.4889910000000 1.0
C      1  0.4765360000000  0.5456590000000  0.4848180000000 1.0
C      1  0.4594790000000  0.5052590000000  0.5675560000000 1.0
C      1  0.5168690000000  0.5327090000000  0.5276300000000 1.0
C      1  0.5585130000000  0.4680560000000  0.5373130000000 1.0
C      1  0.4828830000000  0.5528610000000  0.5513540000000 1.0
C      1  0.4785000000000  0.5121240000000  0.4863210000000 1.0
C      1  0.4307310000000  0.5112810000000  0.5022590000000 1.0
C      1  0.5814140000000  0.4852310000000  0.4917390000000 1.0
C      1  0.4415000000000  0.5215370000000  0.4536840000000 1.0
C      1  0.5103910000000  0.4526750000000  0.4512890000000 1.0
C      1  0.5174320000000  0.4712450000000  0.4311370000000 1.0
C      1  0.4429600000000  0.5121230000000  0.5501320000000 1.0
C      1  0.4911180000000  0.5317420000000  0.5708830000000 1.0
C      1  0.5194230000000  0.5703420000000  0.4926360000000 1.0
C      1  0.5164750000000  0.5269360000000  0.5564860000000 1.0
C      1  0.5018040000000  0.5575910000000  0.5281240000000 1.0
C      1  0.5302990000000  0.5020930000000  0.5655860000000 1.0
END
