TITL C-4164247-2821-256 22.4917562697431 125000 -15101.3627447922 0 0 103 (C1) n - 1
REM
REM in /home/nfs/bkarasulu/CARBON/AIRSS/Generating-Clusters/ReaxFF-fromJPCA2015/Units_Real/with-SteepDescent/Only-C1/SD-CG/Try1-3A/FIRE-CG
REM
REM
REM
REM
REM
REM ./C.cell (11c1c37f851c82e70ff6c80c92926a4b)
REM
REM compiler GCC version 9.2.1 20190827 (Red Hat 9.2.1-1)
REM options -cpp -mtune=generic -march=x86-64 -g -O0 -fpre-include=/usr/include/finclude/math-vector-fortran.h
REM seed -630571545 -1628941682 -522086400 1407210240 2128593779 -2039148336 1056002906 -25565531 1257635522 884911535 795558566 -1627729607 -830753385 1208393241 1596442294 613952070 -1004058841 883130172 1409985872 -377236727 1334279103 -746248982 -103874594 -2050500489 -1059631566 -1561612939 -644344149 -385760507 -1044669163 1686688713 -631645493 -554391407 1903330750
REM
CELL 1.54180   50.00000   50.00000   50.00000   90.00000   90.00000   90.00000
LATT -1
SFAC C  
C      1  0.5759350000000  0.5295550000000  0.5392620000000 1.0
C      1  0.4304710000000  0.5517550000000  0.5389830000000 1.0
C      1  0.4469570000000  0.5443270000000  0.4344820000000 1.0
C      1  0.4754070000000  0.5482100000000  0.5652720000000 1.0
C      1  0.5905010000000  0.4994170000000  0.5023480000000 1.0
C      1  0.5237840000000  0.4469520000000  0.4421020000000 1.0
C      1  0.4640350000000  0.5591270000000  0.4918650000000 1.0
C      1  0.5215860000000  0.4998050000000  0.4847430000000 1.0
C      1  0.5204440000000  0.5726480000000  0.5476380000000 1.0
C      1  0.4724070000000  0.4079190000000  0.5161470000000 1.0
C      1  0.5352150000000  0.5670940000000  0.4511600000000 1.0
C      1  0.5111570000000  0.4705300000000  0.4215860000000 1.0
C      1  0.5454270000000  0.5570250000000  0.5493110000000 1.0
C      1  0.5199090000000  0.4989400000000  0.4125840000000 1.0
C      1  0.4989670000000  0.4541190000000  0.4912210000000 1.0
C      1  0.4946240000000  0.5376340000000  0.4286470000000 1.0
C      1  0.5514940000000  0.5066990000000  0.4461550000000 1.0
C      1  0.5055620000000  0.4144860000000  0.5403790000000 1.0
C      1  0.4472200000000  0.4250840000000  0.4760220000000 1.0
C      1  0.5888550000000  0.4726370000000  0.5127720000000 1.0
C      1  0.5647060000000  0.4828520000000  0.5294710000000 1.0
C      1  0.4682080000000  0.4811050000000  0.5830390000000 1.0
C      1  0.5428920000000  0.4426430000000  0.5229370000000 1.0
C      1  0.5368780000000  0.4711200000000  0.5177740000000 1.0
C      1  0.5150830000000  0.4251630000000  0.4875080000000 1.0
C      1  0.4893900000000  0.4727450000000  0.4690250000000 1.0
C      1  0.4909580000000  0.4704120000000  0.5659100000000 1.0
C      1  0.5718290000000  0.4901010000000  0.4583540000000 1.0
C      1  0.5217640000000  0.5074500000000  0.4569700000000 1.0
C      1  0.4982350000000  0.5643850000000  0.5607770000000 1.0
C      1  0.4822420000000  0.4566880000000  0.4214380000000 1.0
C      1  0.4253400000000  0.5337620000000  0.5597560000000 1.0
C      1  0.4543480000000  0.4358380000000  0.4527800000000 1.0
C      1  0.4467580000000  0.5335160000000  0.4630290000000 1.0
C      1  0.4611930000000  0.4738750000000  0.4258850000000 1.0
C      1  0.4741950000000  0.4513540000000  0.5433560000000 1.0
C      1  0.4237930000000  0.5389880000000  0.5082420000000 1.0
C      1  0.5411350000000  0.5695750000000  0.4822490000000 1.0
C      1  0.5635430000000  0.5522700000000  0.5265450000000 1.0
C      1  0.4448210000000  0.4118180000000  0.5006570000000 1.0
C      1  0.4448750000000  0.4611040000000  0.5487370000000 1.0
C      1  0.5188370000000  0.5195670000000  0.5764940000000 1.0
C      1  0.5183820000000  0.5825610000000  0.4944360000000 1.0
C      1  0.4988030000000  0.5312370000000  0.4561010000000 1.0
C      1  0.5159080000000  0.4562470000000  0.5727120000000 1.0
C      1  0.4471020000000  0.5208680000000  0.4182970000000 1.0
C      1  0.5204680000000  0.5272810000000  0.4171650000000 1.0
C      1  0.4781600000000  0.5327390000000  0.4758710000000 1.0
C      1  0.5683930000000  0.4608080000000  0.4607650000000 1.0
C      1  0.4832420000000  0.4608260000000  0.5158710000000 1.0
C      1  0.5043900000000  0.4850390000000  0.4474400000000 1.0
C      1  0.5199570000000  0.5400630000000  0.5152850000000 1.0
C      1  0.5673970000000  0.5101520000000  0.5181290000000 1.0
C      1  0.4770990000000  0.4204070000000  0.5423940000000 1.0
C      1  0.5010820000000  0.4105140000000  0.5099940000000 1.0
C      1  0.4273520000000  0.4633200000000  0.5245090000000 1.0
C      1  0.5072850000000  0.4287730000000  0.4561470000000 1.0
C      1  0.4186460000000  0.4956050000000  0.4807490000000 1.0
C      1  0.4379760000000  0.5510880000000  0.4847510000000 1.0
C      1  0.5448650000000  0.4296220000000  0.4969490000000 1.0
C      1  0.4830710000000  0.4349260000000  0.4415070000000 1.0
C      1  0.5814200000000  0.4499020000000  0.4985520000000 1.0
C      1  0.4989350000000  0.5930980000000  0.4750670000000 1.0
C      1  0.4399900000000  0.5120880000000  0.5252950000000 1.0
C      1  0.5615560000000  0.5539110000000  0.4961150000000 1.0
C      1  0.4570740000000  0.5616490000000  0.5439160000000 1.0
C      1  0.4711970000000  0.5246750000000  0.5247210000000 1.0
C      1  0.5477760000000  0.4389980000000  0.5517340000000 1.0
C      1  0.5070960000000  0.5651000000000  0.5185270000000 1.0
C      1  0.4736900000000  0.5564480000000  0.5199380000000 1.0
C      1  0.4352560000000  0.4574500000000  0.4528530000000 1.0
C      1  0.4893840000000  0.4886630000000  0.5187790000000 1.0
C      1  0.4316800000000  0.5072470000000  0.5540710000000 1.0
C      1  0.5037910000000  0.5013900000000  0.5566210000000 1.0
C      1  0.4767830000000  0.5086840000000  0.5006500000000 1.0
C      1  0.4122200000000  0.4673690000000  0.4657150000000 1.0
C      1  0.4370300000000  0.5053130000000  0.4601520000000 1.0
C      1  0.5738670000000  0.5371390000000  0.4752450000000 1.0
C      1  0.5629460000000  0.5334200000000  0.4474150000000 1.0
C      1  0.4426780000000  0.4948380000000  0.4328630000000 1.0
C      1  0.5396350000000  0.4595340000000  0.4627600000000 1.0
C      1  0.5639700000000  0.5155140000000  0.5628220000000 1.0
C      1  0.5428740000000  0.5343310000000  0.5685910000000 1.0
C      1  0.5132500000000  0.5827240000000  0.4538020000000 1.0
C      1  0.4779390000000  0.5050660000000  0.5931390000000 1.0
C      1  0.4950940000000  0.5253490000000  0.5911210000000 1.0
C      1  0.5213780000000  0.4295510000000  0.5603860000000 1.0
C      1  0.5414900000000  0.5452010000000  0.4323610000000 1.0
C      1  0.4511990000000  0.5767810000000  0.4558290000000 1.0
C      1  0.4432770000000  0.4827360000000  0.5673600000000 1.0
C      1  0.5278980000000  0.4712470000000  0.4887760000000 1.0
C      1  0.4687470000000  0.5855710000000  0.4751130000000 1.0
C      1  0.5681820000000  0.4392570000000  0.4828110000000 1.0
C      1  0.4681580000000  0.5389920000000  0.4173840000000 1.0
C      1  0.4825050000000  0.5219690000000  0.5518410000000 1.0
C      1  0.5322030000000  0.5162060000000  0.5121930000000 1.0
C      1  0.5852710000000  0.5099740000000  0.4761700000000 1.0
C      1  0.4045820000000  0.5194420000000  0.4975360000000 1.0
C      1  0.5163420000000  0.4933490000000  0.5298830000000 1.0
C      1  0.5606010000000  0.4866410000000  0.5594300000000 1.0
C      1  0.4317110000000  0.4887510000000  0.5094870000000 1.0
C      1  0.5448670000000  0.4639900000000  0.5683800000000 1.0
C      1  0.4938960000000  0.4980720000000  0.4819190000000 1.0
END
