TITL C-4164247-2821-115 2.26020674036015 125000 -15605.2968558763 0 0 107 (C1) n - 1
REM
REM in /home/nfs/bkarasulu/CARBON/AIRSS/Generating-Clusters/ReaxFF-fromJPCA2015/Units_Real/with-SteepDescent/Only-C1/SD-CG/Try1-3A/FIRE-CG
REM
REM
REM
REM
REM
REM ./C.cell (11c1c37f851c82e70ff6c80c92926a4b)
REM
REM compiler GCC version 9.2.1 20190827 (Red Hat 9.2.1-1)
REM options -cpp -mtune=generic -march=x86-64 -g -O0 -fpre-include=/usr/include/finclude/math-vector-fortran.h
REM seed -1959023262 1024386077 1692782170 -700062025 1202768733 -1386622205 675503883 724218126 -1102201795 -1862022572 -1788521837 -1586883905 -501683157 1884347499 603718500 -778550321 1944727446 -1133125840 -2099165808 -410406001 -479094304 509465206 274847836 -836603413 -543697133 -2114010767 -2066568823 1372516651 2009483198 -1654032735 1834667107 1687194016 1340041243
REM
CELL 1.54180   50.00000   50.00000   50.00000   90.00000   90.00000   90.00000
LATT -1
SFAC C  
C      1  0.5841380000000  0.5201280000000  0.5339920000000 1.0
C      1  0.4912470000000  0.4178270000000  0.4434540000000 1.0
C      1  0.5025730000000  0.4560280000000  0.4314680000000 1.0
C      1  0.4332950000000  0.4748640000000  0.4866490000000 1.0
C      1  0.5448680000000  0.5042100000000  0.4685870000000 1.0
C      1  0.5259650000000  0.4754700000000  0.5690280000000 1.0
C      1  0.4203860000000  0.4621950000000  0.5106620000000 1.0
C      1  0.4920470000000  0.4103760000000  0.4718610000000 1.0
C      1  0.5817510000000  0.5340090000000  0.4658150000000 1.0
C      1  0.4970410000000  0.5604600000000  0.4699950000000 1.0
C      1  0.5701620000000  0.5035500000000  0.5561600000000 1.0
C      1  0.5428260000000  0.5384390000000  0.5407660000000 1.0
C      1  0.5174180000000  0.4303790000000  0.4356260000000 1.0
C      1  0.5206970000000  0.5848160000000  0.5102660000000 1.0
C      1  0.4820630000000  0.5198050000000  0.5869200000000 1.0
C      1  0.4708070000000  0.5588040000000  0.4830340000000 1.0
C      1  0.4246580000000  0.5601370000000  0.4589160000000 1.0
C      1  0.4983180000000  0.5151000000000  0.4089420000000 1.0
C      1  0.5135220000000  0.5824010000000  0.4821640000000 1.0
C      1  0.5590260000000  0.4353860000000  0.5367400000000 1.0
C      1  0.5321190000000  0.4675480000000  0.4878520000000 1.0
C      1  0.4868300000000  0.4474190000000  0.5642160000000 1.0
C      1  0.5399410000000  0.4394770000000  0.5582140000000 1.0
C      1  0.4330910000000  0.5477560000000  0.5282960000000 1.0
C      1  0.5390020000000  0.5114100000000  0.5285370000000 1.0
C      1  0.4402890000000  0.5369260000000  0.5542000000000 1.0
C      1  0.5053760000000  0.4925640000000  0.5681480000000 1.0
C      1  0.5250910000000  0.5621450000000  0.5448170000000 1.0
C      1  0.4745950000000  0.5690180000000  0.5392960000000 1.0
C      1  0.5414110000000  0.5859270000000  0.4892180000000 1.0
C      1  0.4241490000000  0.5298660000000  0.5072990000000 1.0
C      1  0.5091340000000  0.4254510000000  0.5277480000000 1.0
C      1  0.4769330000000  0.4423700000000  0.4337990000000 1.0
C      1  0.5188880000000  0.5315130000000  0.3993710000000 1.0
C      1  0.4624310000000  0.5553800000000  0.5591390000000 1.0
C      1  0.4558480000000  0.5343130000000  0.4827530000000 1.0
C      1  0.5145070000000  0.5510950000000  0.5691590000000 1.0
C      1  0.5307640000000  0.5299580000000  0.5833850000000 1.0
C      1  0.5348760000000  0.4665140000000  0.5435960000000 1.0
C      1  0.4602250000000  0.4808900000000  0.4335560000000 1.0
C      1  0.4714840000000  0.4229080000000  0.4899590000000 1.0
C      1  0.5134890000000  0.4534010000000  0.5211400000000 1.0
C      1  0.4507860000000  0.4642770000000  0.5383760000000 1.0
C      1  0.5855700000000  0.5192520000000  0.5047670000000 1.0
C      1  0.5618380000000  0.5521400000000  0.4587940000000 1.0
C      1  0.5585210000000  0.4547430000000  0.4944830000000 1.0
C      1  0.4516640000000  0.5707520000000  0.5233120000000 1.0
C      1  0.5045920000000  0.5655450000000  0.5251390000000 1.0
C      1  0.4886340000000  0.5269130000000  0.5061160000000 1.0
C      1  0.4919270000000  0.4964770000000  0.5419710000000 1.0
C      1  0.4126020000000  0.4829120000000  0.5301450000000 1.0
C      1  0.4288440000000  0.5323850000000  0.4743370000000 1.0
C      1  0.4383790000000  0.4426690000000  0.5228590000000 1.0
C      1  0.5565170000000  0.4863170000000  0.5354850000000 1.0
C      1  0.4794130000000  0.5230720000000  0.5340350000000 1.0
C      1  0.4545900000000  0.5813410000000  0.4949190000000 1.0
C      1  0.5637520000000  0.5451650000000  0.5028000000000 1.0
C      1  0.4679370000000  0.4682100000000  0.5758130000000 1.0
C      1  0.5201710000000  0.4122820000000  0.4789150000000 1.0
C      1  0.5360980000000  0.5332470000000  0.4636430000000 1.0
C      1  0.4376300000000  0.5809790000000  0.4723050000000 1.0
C      1  0.5467500000000  0.5324430000000  0.3994280000000 1.0
C      1  0.4216080000000  0.4863200000000  0.4630730000000 1.0
C      1  0.4694800000000  0.5182110000000  0.4164250000000 1.0
C      1  0.4587460000000  0.5461520000000  0.4185950000000 1.0
C      1  0.4734450000000  0.5108390000000  0.4840480000000 1.0
C      1  0.5472250000000  0.5089630000000  0.5730960000000 1.0
C      1  0.4829200000000  0.4287980000000  0.5405180000000 1.0
C      1  0.5274360000000  0.4133580000000  0.5069680000000 1.0
C      1  0.5457430000000  0.5044400000000  0.4169960000000 1.0
C      1  0.4855730000000  0.5460440000000  0.5725900000000 1.0
C      1  0.5150880000000  0.4475780000000  0.5723360000000 1.0
C      1  0.4579270000000  0.4877860000000  0.4953940000000 1.0
C      1  0.5336800000000  0.4762080000000  0.4601080000000 1.0
C      1  0.4631790000000  0.4266130000000  0.5185120000000 1.0
C      1  0.4908450000000  0.5101840000000  0.4570660000000 1.0
C      1  0.5363700000000  0.5357850000000  0.4937500000000 1.0
C      1  0.5732720000000  0.4606690000000  0.5229390000000 1.0
C      1  0.4228180000000  0.4866340000000  0.5580020000000 1.0
C      1  0.4430050000000  0.5609290000000  0.4381190000000 1.0
C      1  0.5530280000000  0.4265430000000  0.5102540000000 1.0
C      1  0.4407300000000  0.4644660000000  0.5665150000000 1.0
C      1  0.4397010000000  0.5097150000000  0.5652130000000 1.0
C      1  0.4315520000000  0.5103130000000  0.4555130000000 1.0
C      1  0.5085980000000  0.4830110000000  0.4439080000000 1.0
C      1  0.4606030000000  0.5077910000000  0.4417560000000 1.0
C      1  0.5097070000000  0.5105430000000  0.5902860000000 1.0
C      1  0.5143490000000  0.4981380000000  0.5220580000000 1.0
C      1  0.5701760000000  0.5455690000000  0.5330580000000 1.0
C      1  0.5120470000000  0.4858580000000  0.4961760000000 1.0
C      1  0.5050150000000  0.5353760000000  0.4579340000000 1.0
C      1  0.4620590000000  0.4579230000000  0.4545660000000 1.0
C      1  0.4294200000000  0.5048240000000  0.5207230000000 1.0
C      1  0.5662420000000  0.4953170000000  0.4348720000000 1.0
C      1  0.5178170000000  0.4964560000000  0.4204460000000 1.0
C      1  0.5640130000000  0.5683650000000  0.4824720000000 1.0
C      1  0.4635000000000  0.4982570000000  0.5784300000000 1.0
C      1  0.4935630000000  0.4641480000000  0.5022390000000 1.0
C      1  0.4346830000000  0.4702850000000  0.4452140000000 1.0
C      1  0.5732280000000  0.4592890000000  0.4678640000000 1.0
C      1  0.4557780000000  0.4895870000000  0.5237840000000 1.0
C      1  0.4744250000000  0.4509780000000  0.4848480000000 1.0
C      1  0.5513630000000  0.4489510000000  0.4528110000000 1.0
C      1  0.5119320000000  0.5425280000000  0.5055010000000 1.0
C      1  0.5367890000000  0.4243500000000  0.4567490000000 1.0
C      1  0.5908540000000  0.5101290000000  0.4774730000000 1.0
C      1  0.5809760000000  0.4864260000000  0.4584160000000 1.0
END
