TITL C-4164239-2837-182 16.8343854791012 125000 -15256.1188093019 0 0 103 (C1) n - 1
REM
REM in /home/nfs/bkarasulu/CARBON/AIRSS/Generating-Clusters/ReaxFF-fromJPCA2015/Units_Real/with-SteepDescent/Only-C1/SD-CG/Try1-3A/FIRE-CG
REM
REM
REM
REM
REM
REM ./C.cell (11c1c37f851c82e70ff6c80c92926a4b)
REM
REM compiler GCC version 9.2.1 20190827 (Red Hat 9.2.1-1)
REM options -cpp -mtune=generic -march=x86-64 -g -O0 -fpre-include=/usr/include/finclude/math-vector-fortran.h
REM seed -1709531178 -484596490 -417647588 -2060839745 -864529963 1221493143 1040830430 -884944824 1115034005 -1456032980 -787740188 1650599837 1968262313 1132952578 -90195732 340636377 -679429828 -987251314 -926616374 1874191575 -607292464 -1855186510 1192804659 3213822 -2049844650 1241202588 -1602608811 294015604 1654248078 2119266658 1620188066 970963663 -210247535
REM
CELL 1.54180   50.00000   50.00000   50.00000   90.00000   90.00000   90.00000
LATT -1
SFAC C  
C      1  0.5239020000000  0.5517030000000  0.5598200000000 1.0
C      1  0.4569920000000  0.5787160000000  0.4821440000000 1.0
C      1  0.4540480000000  0.4999680000000  0.5099470000000 1.0
C      1  0.4823600000000  0.5265850000000  0.5847170000000 1.0
C      1  0.5232760000000  0.5016380000000  0.5052200000000 1.0
C      1  0.4793270000000  0.5284870000000  0.4303300000000 1.0
C      1  0.5675320000000  0.4510160000000  0.4879300000000 1.0
C      1  0.5072250000000  0.4287200000000  0.5589470000000 1.0
C      1  0.5526730000000  0.4297470000000  0.4772640000000 1.0
C      1  0.4686270000000  0.5131350000000  0.5487850000000 1.0
C      1  0.5441230000000  0.4867370000000  0.4653790000000 1.0
C      1  0.5241350000000  0.5741330000000  0.5414680000000 1.0
C      1  0.5043250000000  0.4297510000000  0.4837190000000 1.0
C      1  0.4568430000000  0.5812440000000  0.5112560000000 1.0
C      1  0.5466470000000  0.4421060000000  0.5240400000000 1.0
C      1  0.5324550000000  0.5230160000000  0.4295080000000 1.0
C      1  0.4996090000000  0.5532850000000  0.4294320000000 1.0
C      1  0.5477140000000  0.4356820000000  0.5516730000000 1.0
C      1  0.4822820000000  0.4908300000000  0.5064010000000 1.0
C      1  0.5040620000000  0.5869540000000  0.4903580000000 1.0
C      1  0.4302920000000  0.5480170000000  0.5058070000000 1.0
C      1  0.4645550000000  0.4406290000000  0.4996260000000 1.0
C      1  0.5789210000000  0.5462720000000  0.4951020000000 1.0
C      1  0.5900490000000  0.5194840000000  0.5015560000000 1.0
C      1  0.4553700000000  0.5360540000000  0.5775780000000 1.0
C      1  0.5402280000000  0.5722300000000  0.5161140000000 1.0
C      1  0.4626910000000  0.4333400000000  0.4532770000000 1.0
C      1  0.5419770000000  0.5301610000000  0.5559370000000 1.0
C      1  0.4894840000000  0.5418570000000  0.5077260000000 1.0
C      1  0.5279210000000  0.5510200000000  0.4362040000000 1.0
C      1  0.4934770000000  0.4980680000000  0.5903670000000 1.0
C      1  0.5643790000000  0.5328490000000  0.5376950000000 1.0
C      1  0.4346400000000  0.5060590000000  0.4537540000000 1.0
C      1  0.4525330000000  0.5578780000000  0.5575490000000 1.0
C      1  0.4981410000000  0.4197080000000  0.5324290000000 1.0
C      1  0.4487830000000  0.5509870000000  0.4822450000000 1.0
C      1  0.4976800000000  0.4572950000000  0.5565750000000 1.0
C      1  0.4830460000000  0.5074440000000  0.4814680000000 1.0
C      1  0.4933270000000  0.5711390000000  0.4484160000000 1.0
C      1  0.5307690000000  0.4395170000000  0.5737560000000 1.0
C      1  0.4461260000000  0.4331450000000  0.4783460000000 1.0
C      1  0.5695820000000  0.5475680000000  0.4679180000000 1.0
C      1  0.5194040000000  0.5110980000000  0.5568450000000 1.0
C      1  0.5420190000000  0.4541920000000  0.4351170000000 1.0
C      1  0.4889010000000  0.4226930000000  0.4592430000000 1.0
C      1  0.4520850000000  0.5207860000000  0.4335770000000 1.0
C      1  0.5732760000000  0.5016450000000  0.4383620000000 1.0
C      1  0.5037120000000  0.4438730000000  0.4210750000000 1.0
C      1  0.4777110000000  0.4841870000000  0.4661570000000 1.0
C      1  0.4273870000000  0.4526440000000  0.4886460000000 1.0
C      1  0.5727320000000  0.4679260000000  0.5075800000000 1.0
C      1  0.4348440000000  0.4793140000000  0.4413810000000 1.0
C      1  0.4741640000000  0.4531590000000  0.5410740000000 1.0
C      1  0.5708470000000  0.4825650000000  0.5314580000000 1.0
C      1  0.4546280000000  0.4765220000000  0.5703420000000 1.0
C      1  0.5087730000000  0.4929040000000  0.5290510000000 1.0
C      1  0.4673550000000  0.5240820000000  0.5231220000000 1.0
C      1  0.4117130000000  0.5010950000000  0.4881370000000 1.0
C      1  0.5012770000000  0.5332340000000  0.5628110000000 1.0
C      1  0.4564870000000  0.4590890000000  0.4330220000000 1.0
C      1  0.5733010000000  0.4849940000000  0.4631840000000 1.0
C      1  0.4387460000000  0.5082310000000  0.4830220000000 1.0
C      1  0.5500000000000  0.5011050000000  0.4205840000000 1.0
C      1  0.4086550000000  0.5165080000000  0.5309710000000 1.0
C      1  0.5303410000000  0.5766520000000  0.4892230000000 1.0
C      1  0.4703220000000  0.4309700000000  0.5268360000000 1.0
C      1  0.5125080000000  0.4146760000000  0.5076000000000 1.0
C      1  0.5047860000000  0.4690960000000  0.4100370000000 1.0
C      1  0.5121910000000  0.4243110000000  0.4395650000000 1.0
C      1  0.4747090000000  0.5354670000000  0.4826230000000 1.0
C      1  0.4969320000000  0.5839550000000  0.5412550000000 1.0
C      1  0.5403660000000  0.5576050000000  0.4648020000000 1.0
C      1  0.5155310000000  0.5284250000000  0.4996970000000 1.0
C      1  0.4163880000000  0.4743240000000  0.5021880000000 1.0
C      1  0.5262580000000  0.5328060000000  0.4740570000000 1.0
C      1  0.4778800000000  0.4769800000000  0.4178150000000 1.0
C      1  0.5635960000000  0.5548890000000  0.5185960000000 1.0
C      1  0.5914070000000  0.5059380000000  0.4758450000000 1.0
C      1  0.4448750000000  0.5052480000000  0.5660580000000 1.0
C      1  0.4831430000000  0.4662170000000  0.4909810000000 1.0
C      1  0.5465600000000  0.4773410000000  0.5492310000000 1.0
C      1  0.4492160000000  0.4607200000000  0.5463370000000 1.0
C      1  0.4832230000000  0.5866900000000  0.4687910000000 1.0
C      1  0.5220350000000  0.4676510000000  0.5361880000000 1.0
C      1  0.5400960000000  0.4310820000000  0.4497380000000 1.0
C      1  0.4707040000000  0.5051420000000  0.4153380000000 1.0
C      1  0.5348870000000  0.4750070000000  0.4191260000000 1.0
C      1  0.5830520000000  0.5252010000000  0.4546650000000 1.0
C      1  0.5412580000000  0.4220630000000  0.5033660000000 1.0
C      1  0.5288290000000  0.4788120000000  0.4881920000000 1.0
C      1  0.4749380000000  0.5767530000000  0.5602400000000 1.0
C      1  0.4876240000000  0.5761250000000  0.5136960000000 1.0
C      1  0.4330710000000  0.4799130000000  0.5280020000000 1.0
C      1  0.4815960000000  0.4744970000000  0.5791410000000 1.0
C      1  0.5380370000000  0.4688880000000  0.5763450000000 1.0
C      1  0.5097520000000  0.4578250000000  0.4879540000000 1.0
C      1  0.5204310000000  0.4921710000000  0.5813040000000 1.0
C      1  0.4417890000000  0.5626020000000  0.5279890000000 1.0
C      1  0.4080470000000  0.5264920000000  0.5052750000000 1.0
C      1  0.5794930000000  0.5103200000000  0.5270970000000 1.0
C      1  0.4200740000000  0.4989500000000  0.5477740000000 1.0
C      1  0.4534870000000  0.4713140000000  0.4584620000000 1.0
C      1  0.5304240000000  0.5108630000000  0.4560240000000 1.0
END
