TITL C-4164235-1454-211 -0.215084144496369 125000 -7909.70504496182 0 0 54 (C1) n - 1
REM
REM in /home/nfs/bkarasulu/CARBON/AIRSS/Generating-Clusters/ReaxFF-fromJPCA2015/Units_Real/with-SteepDescent/Only-C1/SD-CG/Try1-3A/FIRE-CG
REM
REM
REM
REM
REM
REM ./C.cell (11c1c37f851c82e70ff6c80c92926a4b)
REM
REM compiler GCC version 9.2.1 20190827 (Red Hat 9.2.1-1)
REM options -cpp -mtune=generic -march=x86-64 -g -O0 -fpre-include=/usr/include/finclude/math-vector-fortran.h
REM seed -1341761719 2086564236 -557299059 -161039833 1419643056 -992205607 979474724 -607453690 205339545 -2017905235 601192845 -2032033747 1786789587 -1975338728 -752925421 333915142 -1538279603 -388820506 2058363386 1045099614 812241329 258242073 -1719587238 -384012193 1783093559 -1987185532 -1117089339 355708423 -913959491 2046660757 -1819981072 1440164766 1804521984
REM
CELL 1.54180   50.00000   50.00000   50.00000   90.00000   90.00000   90.00000
LATT -1
SFAC C  
C      1  0.5375160000000  0.5610560000000  0.4919310000000 1.0
C      1  0.5210880000000  0.4265840000000  0.5298710000000 1.0
C      1  0.5417590000000  0.4695860000000  0.4426700000000 1.0
C      1  0.5046010000000  0.5090400000000  0.5174270000000 1.0
C      1  0.4960490000000  0.5186600000000  0.4266070000000 1.0
C      1  0.5271830000000  0.4951230000000  0.5610060000000 1.0
C      1  0.4953610000000  0.4386280000000  0.5366900000000 1.0
C      1  0.4835190000000  0.5164730000000  0.4975810000000 1.0
C      1  0.4898020000000  0.5805760000000  0.4924770000000 1.0
C      1  0.4603610000000  0.5393050000000  0.5325640000000 1.0
C      1  0.4691410000000  0.4740880000000  0.5261700000000 1.0
C      1  0.4368150000000  0.4548170000000  0.4916630000000 1.0
C      1  0.4699080000000  0.5815160000000  0.4809020000000 1.0
C      1  0.5312680000000  0.4399160000000  0.5057640000000 1.0
C      1  0.4714740000000  0.5371080000000  0.4567280000000 1.0
C      1  0.5251780000000  0.4810650000000  0.4856960000000 1.0
C      1  0.5563750000000  0.5144480000000  0.4709920000000 1.0
C      1  0.4790160000000  0.4385590000000  0.4680380000000 1.0
C      1  0.5086380000000  0.5584730000000  0.5330140000000 1.0
C      1  0.4893670000000  0.4870860000000  0.5398880000000 1.0
C      1  0.5123000000000  0.4562840000000  0.4921430000000 1.0
C      1  0.5190180000000  0.5418020000000  0.4525460000000 1.0
C      1  0.5092700000000  0.4391280000000  0.4703970000000 1.0
C      1  0.5493100000000  0.5502440000000  0.5154780000000 1.0
C      1  0.5426460000000  0.5135150000000  0.5450380000000 1.0
C      1  0.4336920000000  0.4793930000000  0.4759020000000 1.0
C      1  0.4792540000000  0.4499950000000  0.5143060000000 1.0
C      1  0.4953860000000  0.5365760000000  0.5658470000000 1.0
C      1  0.4541080000000  0.5132330000000  0.5433400000000 1.0
C      1  0.4749990000000  0.5017860000000  0.5604390000000 1.0
C      1  0.4291380000000  0.4800000000000  0.5049760000000 1.0
C      1  0.5028810000000  0.4921360000000  0.4200080000000 1.0
C      1  0.4687590000000  0.4627050000000  0.4587200000000 1.0
C      1  0.4578910000000  0.4884490000000  0.4603850000000 1.0
C      1  0.4462450000000  0.4899570000000  0.5264440000000 1.0
C      1  0.5431600000000  0.4884160000000  0.4649900000000 1.0
C      1  0.5406680000000  0.4477030000000  0.5330870000000 1.0
C      1  0.5529380000000  0.5015550000000  0.5200580000000 1.0
C      1  0.4829150000000  0.5535610000000  0.5469600000000 1.0
C      1  0.4619910000000  0.4393920000000  0.4927290000000 1.0
C      1  0.5405150000000  0.5411270000000  0.4676930000000 1.0
C      1  0.5699500000000  0.5113730000000  0.4971120000000 1.0
C      1  0.5028740000000  0.4616740000000  0.5525940000000 1.0
C      1  0.5310540000000  0.4662980000000  0.5542210000000 1.0
C      1  0.4606570000000  0.5542060000000  0.4785660000000 1.0
C      1  0.5271820000000  0.4960910000000  0.5076960000000 1.0
C      1  0.5191880000000  0.4667710000000  0.4243090000000 1.0
C      1  0.5231660000000  0.4472830000000  0.4457880000000 1.0
C      1  0.4639600000000  0.5369080000000  0.5035980000000 1.0
C      1  0.5014240000000  0.5095990000000  0.5711120000000 1.0
C      1  0.4759080000000  0.5112170000000  0.4695510000000 1.0
C      1  0.5254430000000  0.5336040000000  0.5306130000000 1.0
C      1  0.5131170000000  0.5716860000000  0.5070510000000 1.0
C      1  0.4945750000000  0.5442260000000  0.4386230000000 1.0
END
