TITL C-4164247-2821-421 15.4666362895685 125000 -16768.9197889617 0 0 112 (C1) n - 1
REM
REM in /home/nfs/bkarasulu/CARBON/AIRSS/Generating-Clusters/ReaxFF-fromJPCA2015/Units_Real/with-SteepDescent/Only-C1/SD-CG/Try1-3A/FIRE-CG
REM
REM
REM
REM
REM
REM ./C.cell (11c1c37f851c82e70ff6c80c92926a4b)
REM
REM compiler GCC version 9.2.1 20190827 (Red Hat 9.2.1-1)
REM options -cpp -mtune=generic -march=x86-64 -g -O0 -fpre-include=/usr/include/finclude/math-vector-fortran.h
REM seed 2000936458 1569421748 -1061247555 872516491 -744926306 -149471411 1711810996 -406833400 154188144 -491812262 -720183386 1342952105 -795337001 -1887559188 1301899904 -1991518957 -1198780187 812492877 -942381675 2118138598 1845552533 2680229 2004321450 489740722 -343274680 454837672 -734483578 -1715114499 918178082 1751213896 -1667238108 468838064 1959903605
REM
CELL 1.54180   50.00000   50.00000   50.00000   90.00000   90.00000   90.00000
LATT -1
SFAC C  
C      1  0.4571730000000  0.5854250000000  0.4991640000000 1.0
C      1  0.4717160000000  0.5391310000000  0.5532980000000 1.0
C      1  0.5075690000000  0.5239020000000  0.4087250000000 1.0
C      1  0.4813060000000  0.5647750000000  0.4200200000000 1.0
C      1  0.4597100000000  0.4731690000000  0.6011280000000 1.0
C      1  0.4340370000000  0.5454770000000  0.4732260000000 1.0
C      1  0.4396520000000  0.4750440000000  0.5802010000000 1.0
C      1  0.5365250000000  0.4947290000000  0.5965040000000 1.0
C      1  0.5137280000000  0.4809020000000  0.6055720000000 1.0
C      1  0.5687860000000  0.5377300000000  0.4861990000000 1.0
C      1  0.4689620000000  0.5086990000000  0.4807420000000 1.0
C      1  0.5334400000000  0.4935790000000  0.5204900000000 1.0
C      1  0.4119400000000  0.4530510000000  0.4998350000000 1.0
C      1  0.4591210000000  0.4253010000000  0.4881990000000 1.0
C      1  0.5154310000000  0.4008080000000  0.4645040000000 1.0
C      1  0.5030130000000  0.5366510000000  0.4563130000000 1.0
C      1  0.4924570000000  0.4294940000000  0.4332830000000 1.0
C      1  0.5052200000000  0.4750650000000  0.4167900000000 1.0
C      1  0.4941020000000  0.5900650000000  0.5556520000000 1.0
C      1  0.5103010000000  0.4619280000000  0.5553890000000 1.0
C      1  0.5473170000000  0.5704270000000  0.4495220000000 1.0
C      1  0.4530030000000  0.4728030000000  0.4273150000000 1.0
C      1  0.4650670000000  0.5387940000000  0.5795880000000 1.0
C      1  0.4704160000000  0.5344790000000  0.5259080000000 1.0
C      1  0.5303350000000  0.4824510000000  0.5480350000000 1.0
C      1  0.5046390000000  0.5600660000000  0.4384220000000 1.0
C      1  0.5050940000000  0.5335700000000  0.5916020000000 1.0
C      1  0.4581110000000  0.5564910000000  0.4616420000000 1.0
C      1  0.5783060000000  0.5039130000000  0.4471490000000 1.0
C      1  0.4474350000000  0.5877410000000  0.5281640000000 1.0
C      1  0.5598020000000  0.4560630000000  0.4372470000000 1.0
C      1  0.5988330000000  0.5013440000000  0.5487250000000 1.0
C      1  0.5166680000000  0.5115030000000  0.4528640000000 1.0
C      1  0.4428850000000  0.4462120000000  0.4422830000000 1.0
C      1  0.5385980000000  0.5839120000000  0.4895080000000 1.0
C      1  0.4818730000000  0.5368800000000  0.4776580000000 1.0
C      1  0.5399270000000  0.4131860000000  0.4515490000000 1.0
C      1  0.4796330000000  0.5360100000000  0.4135760000000 1.0
C      1  0.4839980000000  0.4203720000000  0.5039900000000 1.0
C      1  0.4346980000000  0.5310510000000  0.5692570000000 1.0
C      1  0.5363140000000  0.4219420000000  0.5473060000000 1.0
C      1  0.5495850000000  0.4869720000000  0.5700060000000 1.0
C      1  0.5796200000000  0.4724260000000  0.4422820000000 1.0
C      1  0.4693280000000  0.5900350000000  0.5438250000000 1.0
C      1  0.4407400000000  0.5444350000000  0.4446040000000 1.0
C      1  0.4653180000000  0.4876720000000  0.5153890000000 1.0
C      1  0.5076900000000  0.4339840000000  0.5472170000000 1.0
C      1  0.4756020000000  0.4095860000000  0.4409500000000 1.0
C      1  0.4584550000000  0.4317830000000  0.5493880000000 1.0
C      1  0.4895950000000  0.4815470000000  0.5610740000000 1.0
C      1  0.4837740000000  0.4255170000000  0.5333010000000 1.0
C      1  0.5648650000000  0.5241930000000  0.4337580000000 1.0
C      1  0.5576040000000  0.4556480000000  0.5142850000000 1.0
C      1  0.5746290000000  0.4941890000000  0.5619390000000 1.0
C      1  0.4100530000000  0.4767590000000  0.5144270000000 1.0
C      1  0.4368810000000  0.5635190000000  0.4960090000000 1.0
C      1  0.4822870000000  0.5204400000000  0.5951540000000 1.0
C      1  0.4483990000000  0.4593480000000  0.5551740000000 1.0
C      1  0.5583080000000  0.5673700000000  0.4755410000000 1.0
C      1  0.4555710000000  0.5255110000000  0.4267400000000 1.0
C      1  0.5509940000000  0.4300840000000  0.5199010000000 1.0
C      1  0.5536440000000  0.5488080000000  0.4270730000000 1.0
C      1  0.5315520000000  0.5263340000000  0.5974340000000 1.0
C      1  0.4790490000000  0.4739320000000  0.4220620000000 1.0
C      1  0.5202770000000  0.5814890000000  0.4511870000000 1.0
C      1  0.4468260000000  0.5003380000000  0.4379220000000 1.0
C      1  0.4251040000000  0.4573490000000  0.4568910000000 1.0
C      1  0.5424060000000  0.5435520000000  0.5789440000000 1.0
C      1  0.4159380000000  0.4973330000000  0.4786210000000 1.0
C      1  0.5574250000000  0.5556220000000  0.5587330000000 1.0
C      1  0.5825720000000  0.5366780000000  0.5148030000000 1.0
C      1  0.4520220000000  0.5116720000000  0.5192410000000 1.0
C      1  0.5279770000000  0.5047860000000  0.4781160000000 1.0
C      1  0.4328480000000  0.4304550000000  0.5020160000000 1.0
C      1  0.4307910000000  0.5036120000000  0.5755450000000 1.0
C      1  0.5095560000000  0.4130820000000  0.4916120000000 1.0
C      1  0.4851880000000  0.4899660000000  0.4959360000000 1.0
C      1  0.5141480000000  0.4909980000000  0.4978690000000 1.0
C      1  0.4066830000000  0.5032600000000  0.5059050000000 1.0
C      1  0.4838180000000  0.5881270000000  0.4887180000000 1.0
C      1  0.5379420000000  0.4167280000000  0.4973780000000 1.0
C      1  0.5139470000000  0.5515740000000  0.5208440000000 1.0
C      1  0.5405010000000  0.4366720000000  0.4338160000000 1.0
C      1  0.4247210000000  0.5398880000000  0.5421660000000 1.0
C      1  0.4408390000000  0.4285990000000  0.5283940000000 1.0
C      1  0.5421440000000  0.5250450000000  0.4912130000000 1.0
C      1  0.4614810000000  0.5785490000000  0.4365500000000 1.0
C      1  0.5099370000000  0.5903860000000  0.4781230000000 1.0
C      1  0.4682140000000  0.4765220000000  0.5422540000000 1.0
C      1  0.5433760000000  0.5820540000000  0.5495810000000 1.0
C      1  0.5834490000000  0.4285680000000  0.4728830000000 1.0
C      1  0.4308630000000  0.5626120000000  0.5247130000000 1.0
C      1  0.4856890000000  0.4880190000000  0.5916890000000 1.0
C      1  0.5498930000000  0.4181010000000  0.5691910000000 1.0
C      1  0.5327800000000  0.5368710000000  0.4114300000000 1.0
C      1  0.5829850000000  0.5130840000000  0.4742060000000 1.0
C      1  0.5971090000000  0.5123060000000  0.5194460000000 1.0
C      1  0.4941390000000  0.3864230000000  0.4498690000000 1.0
C      1  0.5610300000000  0.4810960000000  0.5098210000000 1.0
C      1  0.5950530000000  0.4525040000000  0.4599760000000 1.0
C      1  0.5850980000000  0.4964500000000  0.4982680000000 1.0
C      1  0.5609740000000  0.5400760000000  0.5335180000000 1.0
C      1  0.5173730000000  0.5012090000000  0.4252700000000 1.0
C      1  0.4247860000000  0.5140790000000  0.5275190000000 1.0
C      1  0.4423900000000  0.5050090000000  0.4674420000000 1.0
C      1  0.4585770000000  0.4263290000000  0.4589720000000 1.0
C      1  0.4901700000000  0.5447410000000  0.5064970000000 1.0
C      1  0.5571460000000  0.4149330000000  0.4742610000000 1.0
C      1  0.5125650000000  0.4466050000000  0.4259580000000 1.0
C      1  0.4067980000000  0.4686690000000  0.4737950000000 1.0
C      1  0.5362850000000  0.5293660000000  0.5197290000000 1.0
C      1  0.5174790000000  0.5743920000000  0.5390920000000 1.0
END
