TITL C-4164235-1454-235 -1.32188858326096 125000 -12097.7979469888 0 0 81 (C1) n - 1
REM
REM in /home/nfs/bkarasulu/CARBON/AIRSS/Generating-Clusters/ReaxFF-fromJPCA2015/Units_Real/with-SteepDescent/Only-C1/SD-CG/Try1-3A/FIRE-CG
REM
REM
REM
REM
REM
REM ./C.cell (11c1c37f851c82e70ff6c80c92926a4b)
REM
REM compiler GCC version 9.2.1 20190827 (Red Hat 9.2.1-1)
REM options -cpp -mtune=generic -march=x86-64 -g -O0 -fpre-include=/usr/include/finclude/math-vector-fortran.h
REM seed 335607505 804947500 -835355334 930586805 434946557 1450308416 -1258599975 1462694416 -148101521 -712941121 1750239791 -1914516057 -1208846029 -1714261559 408685142 -1246919400 -810572105 -1697829474 2017958511 -1759797092 1870076588 -1535160816 -1313281010 -1374225335 -858388059 -549293577 -1082459392 1368576947 1624415601 779343019 -820211482 1299608774 -1500811133
REM
CELL 1.54180   50.00000   50.00000   50.00000   90.00000   90.00000   90.00000
LATT -1
SFAC C  
C      1  0.4347080000000  0.4441620000000  0.5317040000000 1.0
C      1  0.4261190000000  0.5138210000000  0.4818830000000 1.0
C      1  0.5615030000000  0.5533750000000  0.5163750000000 1.0
C      1  0.4850000000000  0.5514660000000  0.5646780000000 1.0
C      1  0.5318910000000  0.4172410000000  0.5159980000000 1.0
C      1  0.4958750000000  0.5242210000000  0.4625100000000 1.0
C      1  0.5189830000000  0.5719430000000  0.4907340000000 1.0
C      1  0.4787040000000  0.4870660000000  0.5098860000000 1.0
C      1  0.4591170000000  0.5704890000000  0.5300600000000 1.0
C      1  0.5004740000000  0.5590780000000  0.5394970000000 1.0
C      1  0.4937610000000  0.5298990000000  0.5203030000000 1.0
C      1  0.5190290000000  0.5490910000000  0.4704970000000 1.0
C      1  0.5040960000000  0.4625490000000  0.5871030000000 1.0
C      1  0.5312830000000  0.5529560000000  0.4410470000000 1.0
C      1  0.4618220000000  0.4561290000000  0.4446700000000 1.0
C      1  0.4911560000000  0.5645100000000  0.4370190000000 1.0
C      1  0.4586180000000  0.5496440000000  0.5508410000000 1.0
C      1  0.5259460000000  0.4351060000000  0.4670950000000 1.0
C      1  0.5006990000000  0.5185050000000  0.4291430000000 1.0
C      1  0.4430690000000  0.5151650000000  0.5085210000000 1.0
C      1  0.4595510000000  0.4288830000000  0.5322270000000 1.0
C      1  0.4558350000000  0.5611010000000  0.5022910000000 1.0
C      1  0.5504460000000  0.5453070000000  0.5432500000000 1.0
C      1  0.4216580000000  0.4544950000000  0.5073080000000 1.0
C      1  0.5524730000000  0.4687120000000  0.5418050000000 1.0
C      1  0.5698400000000  0.4654380000000  0.5190600000000 1.0
C      1  0.4694910000000  0.5659780000000  0.4548480000000 1.0
C      1  0.4664920000000  0.5341280000000  0.5064460000000 1.0
C      1  0.4987250000000  0.4274250000000  0.4725330000000 1.0
C      1  0.4887180000000  0.5026020000000  0.5331170000000 1.0
C      1  0.5374180000000  0.5019870000000  0.5121360000000 1.0
C      1  0.4936850000000  0.4959360000000  0.4725800000000 1.0
C      1  0.4721070000000  0.4327820000000  0.4594790000000 1.0
C      1  0.5082320000000  0.4850910000000  0.5456870000000 1.0
C      1  0.5026390000000  0.5335750000000  0.5794690000000 1.0
C      1  0.5082370000000  0.5479230000000  0.4229680000000 1.0
C      1  0.4935180000000  0.5837220000000  0.4977280000000 1.0
C      1  0.5429930000000  0.4293020000000  0.4906460000000 1.0
C      1  0.5185070000000  0.5006140000000  0.4258430000000 1.0
C      1  0.4399310000000  0.4682580000000  0.4595480000000 1.0
C      1  0.4478420000000  0.5241810000000  0.5423870000000 1.0
C      1  0.5520570000000  0.5332790000000  0.4368950000000 1.0
C      1  0.4816470000000  0.4739290000000  0.4323410000000 1.0
C      1  0.4819300000000  0.4529590000000  0.5695320000000 1.0
C      1  0.4326840000000  0.4715530000000  0.5259480000000 1.0
C      1  0.4839550000000  0.4348640000000  0.5466520000000 1.0
C      1  0.5380640000000  0.4839000000000  0.4321070000000 1.0
C      1  0.4767740000000  0.5023290000000  0.4254500000000 1.0
C      1  0.5257360000000  0.4771380000000  0.5026590000000 1.0
C      1  0.4695210000000  0.5773580000000  0.4821400000000 1.0
C      1  0.5610920000000  0.4963750000000  0.5463780000000 1.0
C      1  0.5258520000000  0.5151480000000  0.5777400000000 1.0
C      1  0.5205890000000  0.5239470000000  0.5073930000000 1.0
C      1  0.5158320000000  0.4871480000000  0.5738550000000 1.0
C      1  0.4622900000000  0.4774880000000  0.5679500000000 1.0
C      1  0.5624650000000  0.4515100000000  0.4946870000000 1.0
C      1  0.5576110000000  0.5039840000000  0.4416410000000 1.0
C      1  0.5665060000000  0.4953460000000  0.4688260000000 1.0
C      1  0.4557660000000  0.5145060000000  0.4421280000000 1.0
C      1  0.5008730000000  0.4747930000000  0.4540490000000 1.0
C      1  0.5243500000000  0.4643520000000  0.5309120000000 1.0
C      1  0.4365090000000  0.4991310000000  0.4595390000000 1.0
C      1  0.4327140000000  0.4495190000000  0.4799620000000 1.0
C      1  0.5679030000000  0.4971430000000  0.5160200000000 1.0
C      1  0.4857780000000  0.5799500000000  0.5256280000000 1.0
C      1  0.4521420000000  0.4275680000000  0.4795710000000 1.0
C      1  0.5353590000000  0.5323840000000  0.4857190000000 1.0
C      1  0.5294990000000  0.5652730000000  0.5398070000000 1.0
C      1  0.5385090000000  0.5719840000000  0.5125210000000 1.0
C      1  0.5292870000000  0.4621480000000  0.4535200000000 1.0
C      1  0.5476040000000  0.5196770000000  0.5577840000000 1.0
C      1  0.4546800000000  0.5013770000000  0.5570390000000 1.0
C      1  0.4493290000000  0.4854220000000  0.5086180000000 1.0
C      1  0.4654530000000  0.4193630000000  0.5049590000000 1.0
C      1  0.4690480000000  0.5354210000000  0.4574450000000 1.0
C      1  0.5634690000000  0.5371530000000  0.4923140000000 1.0
C      1  0.5762440000000  0.5116050000000  0.4902930000000 1.0
C      1  0.5084770000000  0.4338610000000  0.5273040000000 1.0
C      1  0.4989350000000  0.4800590000000  0.4936540000000 1.0
C      1  0.4933030000000  0.4233490000000  0.5010230000000 1.0
C      1  0.5499710000000  0.4718480000000  0.4770790000000 1.0
END
