TITL C-4164244-2836-192 -1.95536007406914 125000 -6139.07252741745 0 0 43 (C1) n - 1
REM
REM in /home/nfs/bkarasulu/CARBON/AIRSS/Generating-Clusters/ReaxFF-fromJPCA2015/Units_Real/with-SteepDescent/Only-C1/SD-CG/Try1-3A/FIRE-CG
REM
REM
REM
REM
REM
REM ./C.cell (11c1c37f851c82e70ff6c80c92926a4b)
REM
REM compiler GCC version 9.2.1 20190827 (Red Hat 9.2.1-1)
REM options -cpp -mtune=generic -march=x86-64 -g -O0 -fpre-include=/usr/include/finclude/math-vector-fortran.h
REM seed -1473069656 -11694520 969871280 -1626726871 -448826302 1433671908 2031222701 1018728492 -1685206090 814318453 -2016325012 -1237379571 -53988251 -2074952790 -1250492401 1605708254 2089678655 63717551 2065352634 -1166686969 1558057450 1922542110 27431793 1308310357 -543390538 -569786125 165372505 574798116 463873660 684050243 -2142059068 -145559255 1868637095
REM
CELL 1.54180   50.00000   50.00000   50.00000   90.00000   90.00000   90.00000
LATT -1
SFAC C  
C      1  0.4691150000000  0.4949170000000  0.4446880000000 1.0
C      1  0.4685870000000  0.5353340000000  0.4802490000000 1.0
C      1  0.5076160000000  0.4224790000000  0.5288600000000 1.0
C      1  0.5298450000000  0.5434300000000  0.4585660000000 1.0
C      1  0.5103560000000  0.5474330000000  0.5274110000000 1.0
C      1  0.4420300000000  0.4606870000000  0.5022990000000 1.0
C      1  0.5370480000000  0.4730610000000  0.5085030000000 1.0
C      1  0.4943280000000  0.4143430000000  0.5023430000000 1.0
C      1  0.4886640000000  0.4305010000000  0.4794000000000 1.0
C      1  0.4609810000000  0.4896210000000  0.5446340000000 1.0
C      1  0.5355330000000  0.5142840000000  0.5565270000000 1.0
C      1  0.4867960000000  0.4491910000000  0.4593470000000 1.0
C      1  0.4942740000000  0.5483380000000  0.4798640000000 1.0
C      1  0.4901310000000  0.4864360000000  0.5474790000000 1.0
C      1  0.5354080000000  0.4900080000000  0.5507890000000 1.0
C      1  0.5340540000000  0.5398810000000  0.5441780000000 1.0
C      1  0.5584230000000  0.5428930000000  0.4640760000000 1.0
C      1  0.4779500000000  0.5131560000000  0.5494540000000 1.0
C      1  0.5561840000000  0.4899880000000  0.4642690000000 1.0
C      1  0.4596470000000  0.4670880000000  0.5255150000000 1.0
C      1  0.5389620000000  0.5567120000000  0.4828640000000 1.0
C      1  0.4557210000000  0.5152240000000  0.4622430000000 1.0
C      1  0.5094040000000  0.4497270000000  0.5385830000000 1.0
C      1  0.4407990000000  0.4710910000000  0.4748200000000 1.0
C      1  0.5350170000000  0.4660100000000  0.5368900000000 1.0
C      1  0.4329590000000  0.5354450000000  0.5165730000000 1.0
C      1  0.4288860000000  0.5159640000000  0.4977740000000 1.0
C      1  0.4328700000000  0.5006020000000  0.4751860000000 1.0
C      1  0.4833180000000  0.5384730000000  0.5351330000000 1.0
C      1  0.5103090000000  0.4775070000000  0.4955070000000 1.0
C      1  0.4633590000000  0.4676970000000  0.4559300000000 1.0
C      1  0.5676710000000  0.5156280000000  0.4554260000000 1.0
C      1  0.4907480000000  0.4678250000000  0.5232930000000 1.0
C      1  0.5481660000000  0.4967200000000  0.4938580000000 1.0
C      1  0.5122610000000  0.4623000000000  0.4669910000000 1.0
C      1  0.5353230000000  0.4723550000000  0.4515240000000 1.0
C      1  0.5184540000000  0.5053340000000  0.4883900000000 1.0
C      1  0.5687960000000  0.5189820000000  0.5089780000000 1.0
C      1  0.4586850000000  0.5495260000000  0.5248860000000 1.0
C      1  0.5152140000000  0.5560940000000  0.5001820000000 1.0
C      1  0.5081730000000  0.5246040000000  0.4692530000000 1.0
C      1  0.4513470000000  0.5500410000000  0.4989490000000 1.0
C      1  0.5565880000000  0.5330700000000  0.5283170000000 1.0
END
