TITL C-4164244-2836-359 32.848457309904 125000 -23596.3162826984 0 0 159 (C1) n - 1
REM
REM in /home/nfs/bkarasulu/CARBON/AIRSS/Generating-Clusters/ReaxFF-fromJPCA2015/Units_Real/with-SteepDescent/Only-C1/SD-CG/Try1-3A/FIRE-CG
REM
REM
REM
REM
REM
REM ./C.cell (11c1c37f851c82e70ff6c80c92926a4b)
REM
REM compiler GCC version 9.2.1 20190827 (Red Hat 9.2.1-1)
REM options -cpp -mtune=generic -march=x86-64 -g -O0 -fpre-include=/usr/include/finclude/math-vector-fortran.h
REM seed -585071916 -533901303 -1966616049 -180194257 -693609307 2005662537 116265719 1773512805 297521892 -1933998640 981936449 -703383824 -1797047235 -2109434462 -1036052431 501109909 -469229340 -858177442 -1444191746 1000603587 -85577142 -2051961837 739906289 515753305 -2068664031 -890562911 609461349 -2136452367 82736123 1569994725 755372053 292961562 1695270621
REM
CELL 1.54180   50.00000   50.00000   50.00000   90.00000   90.00000   90.00000
LATT -1
SFAC C  
C      1  0.4812780000000  0.5063340000000  0.5098620000000 1.0
C      1  0.5271720000000  0.5610560000000  0.5752340000000 1.0
C      1  0.5752780000000  0.4462770000000  0.4770480000000 1.0
C      1  0.4211820000000  0.4856750000000  0.5692700000000 1.0
C      1  0.5657580000000  0.5021900000000  0.5597000000000 1.0
C      1  0.4289900000000  0.5746940000000  0.4487070000000 1.0
C      1  0.4454300000000  0.4482890000000  0.5463340000000 1.0
C      1  0.4685020000000  0.5891220000000  0.5191840000000 1.0
C      1  0.4811760000000  0.4633180000000  0.4185450000000 1.0
C      1  0.4715740000000  0.5357220000000  0.4127630000000 1.0
C      1  0.5530980000000  0.4099980000000  0.5110180000000 1.0
C      1  0.5748420000000  0.5318880000000  0.5127900000000 1.0
C      1  0.4036870000000  0.5287900000000  0.4685220000000 1.0
C      1  0.4009230000000  0.5626430000000  0.4929380000000 1.0
C      1  0.5292870000000  0.4412220000000  0.5936060000000 1.0
C      1  0.4520840000000  0.5594790000000  0.4804540000000 1.0
C      1  0.5350900000000  0.6173720000000  0.4883860000000 1.0
C      1  0.5114740000000  0.3872370000000  0.5151080000000 1.0
C      1  0.4862250000000  0.6006180000000  0.4954510000000 1.0
C      1  0.4625720000000  0.4203790000000  0.5529930000000 1.0
C      1  0.4734000000000  0.4000070000000  0.4780140000000 1.0
C      1  0.5569180000000  0.5976280000000  0.4912820000000 1.0
C      1  0.5730990000000  0.5437180000000  0.5402590000000 1.0
C      1  0.4945870000000  0.5631080000000  0.5830910000000 1.0
C      1  0.5970930000000  0.4986500000000  0.5489530000000 1.0
C      1  0.4556710000000  0.4729540000000  0.5881590000000 1.0
C      1  0.4480700000000  0.5429510000000  0.5579040000000 1.0
C      1  0.5317390000000  0.4723260000000  0.3922550000000 1.0
C      1  0.5897650000000  0.5069750000000  0.5026110000000 1.0
C      1  0.4959190000000  0.4381890000000  0.4132130000000 1.0
C      1  0.5792540000000  0.5592460000000  0.4681350000000 1.0
C      1  0.5218780000000  0.5250600000000  0.4018010000000 1.0
C      1  0.5005050000000  0.5418190000000  0.4134010000000 1.0
C      1  0.5345730000000  0.4172860000000  0.5552760000000 1.0
C      1  0.4550180000000  0.5170540000000  0.3953660000000 1.0
C      1  0.4200290000000  0.5041470000000  0.4632050000000 1.0
C      1  0.5098060000000  0.6150180000000  0.5046290000000 1.0
C      1  0.5616650000000  0.5831650000000  0.4658060000000 1.0
C      1  0.4519330000000  0.4327870000000  0.4497660000000 1.0
C      1  0.5448540000000  0.5351060000000  0.5833320000000 1.0
C      1  0.4110500000000  0.5016290000000  0.5207630000000 1.0
C      1  0.4983790000000  0.4196720000000  0.4382890000000 1.0
C      1  0.3990910000000  0.5333900000000  0.4977170000000 1.0
C      1  0.5399810000000  0.4798400000000  0.5098480000000 1.0
C      1  0.5273820000000  0.5379970000000  0.4485620000000 1.0
C      1  0.4818940000000  0.5812690000000  0.5686910000000 1.0
C      1  0.5134950000000  0.4236460000000  0.5756790000000 1.0
C      1  0.5031610000000  0.5530960000000  0.4411560000000 1.0
C      1  0.4779030000000  0.4877900000000  0.5501530000000 1.0
C      1  0.5029280000000  0.4382130000000  0.5316210000000 1.0
C      1  0.5281140000000  0.5756560000000  0.5272650000000 1.0
C      1  0.4431380000000  0.4979520000000  0.5837670000000 1.0
C      1  0.5329840000000  0.4764840000000  0.5353230000000 1.0
C      1  0.4772120000000  0.5404620000000  0.5940270000000 1.0
C      1  0.4145950000000  0.5797600000000  0.5119870000000 1.0
C      1  0.5578500000000  0.4502940000000  0.4325060000000 1.0
C      1  0.3943850000000  0.4797870000000  0.5149810000000 1.0
C      1  0.6066940000000  0.4872820000000  0.4562140000000 1.0
C      1  0.5507710000000  0.5798650000000  0.5663470000000 1.0
C      1  0.5791640000000  0.4503950000000  0.5062470000000 1.0
C      1  0.5599380000000  0.4317040000000  0.5517390000000 1.0
C      1  0.5889050000000  0.4751040000000  0.5155740000000 1.0
C      1  0.4867190000000  0.5196800000000  0.6087650000000 1.0
C      1  0.5702300000000  0.4285460000000  0.5246290000000 1.0
C      1  0.4149880000000  0.4443560000000  0.5440510000000 1.0
C      1  0.4911800000000  0.4828260000000  0.5002430000000 1.0
C      1  0.5246020000000  0.5535650000000  0.5464890000000 1.0
C      1  0.4489670000000  0.4721190000000  0.4851450000000 1.0
C      1  0.4546430000000  0.4123530000000  0.4961540000000 1.0
C      1  0.5736190000000  0.4557610000000  0.5621570000000 1.0
C      1  0.5045020000000  0.4812030000000  0.4756150000000 1.0
C      1  0.4974410000000  0.4433980000000  0.5039820000000 1.0
C      1  0.3972020000000  0.5266760000000  0.5596270000000 1.0
C      1  0.5527930000000  0.4248230000000  0.4414340000000 1.0
C      1  0.5185340000000  0.5312570000000  0.5106410000000 1.0
C      1  0.4868550000000  0.5140390000000  0.5378240000000 1.0
C      1  0.4484050000000  0.5407120000000  0.4996620000000 1.0
C      1  0.4587360000000  0.5242170000000  0.4364530000000 1.0
C      1  0.5669590000000  0.5300480000000  0.5647620000000 1.0
C      1  0.5667980000000  0.5396980000000  0.4281170000000 1.0
C      1  0.4756370000000  0.5280900000000  0.4933560000000 1.0
C      1  0.4713600000000  0.4116580000000  0.4516630000000 1.0
C      1  0.5543460000000  0.5819590000000  0.5170710000000 1.0
C      1  0.5379840000000  0.5818060000000  0.4487530000000 1.0
C      1  0.5212770000000  0.5241850000000  0.5385420000000 1.0
C      1  0.5529740000000  0.4635020000000  0.4612440000000 1.0
C      1  0.5488540000000  0.4725370000000  0.4154370000000 1.0
C      1  0.5226510000000  0.4610690000000  0.4641590000000 1.0
C      1  0.4784780000000  0.4558740000000  0.5850340000000 1.0
C      1  0.4725030000000  0.5049600000000  0.3773000000000 1.0
C      1  0.4433090000000  0.5054250000000  0.4206730000000 1.0
C      1  0.4024190000000  0.4997840000000  0.5495220000000 1.0
C      1  0.4203470000000  0.5414720000000  0.5439220000000 1.0
C      1  0.5213220000000  0.6051150000000  0.5314700000000 1.0
C      1  0.5174320000000  0.4499480000000  0.4003800000000 1.0
C      1  0.5449410000000  0.4213080000000  0.4856330000000 1.0
C      1  0.5928310000000  0.4705670000000  0.5438480000000 1.0
C      1  0.5400740000000  0.4686430000000  0.5950020000000 1.0
C      1  0.4404780000000  0.4286160000000  0.4757870000000 1.0
C      1  0.5324530000000  0.3995560000000  0.5308480000000 1.0
C      1  0.4728840000000  0.5999620000000  0.5493060000000 1.0
C      1  0.4080910000000  0.5574560000000  0.4654560000000 1.0
C      1  0.5427900000000  0.4973960000000  0.4331640000000 1.0
C      1  0.4266370000000  0.5776800000000  0.4235590000000 1.0
C      1  0.5634920000000  0.5461410000000  0.4891590000000 1.0
C      1  0.5082500000000  0.5796750000000  0.4524610000000 1.0
C      1  0.4727750000000  0.4622430000000  0.5054150000000 1.0
C      1  0.5859060000000  0.5084570000000  0.4670360000000 1.0
C      1  0.5130030000000  0.4597720000000  0.5477710000000 1.0
C      1  0.5409470000000  0.5022130000000  0.5432690000000 1.0
C      1  0.4918900000000  0.4942160000000  0.3625350000000 1.0
C      1  0.5831690000000  0.5348960000000  0.4521300000000 1.0
C      1  0.4559490000000  0.4575560000000  0.4322450000000 1.0
C      1  0.4543540000000  0.5270470000000  0.5814350000000 1.0
C      1  0.5090790000000  0.4362190000000  0.4606780000000 1.0
C      1  0.4006370000000  0.4580890000000  0.4979160000000 1.0
C      1  0.5588350000000  0.4928840000000  0.4623320000000 1.0
C      1  0.5122230000000  0.5022860000000  0.4363530000000 1.0
C      1  0.3970300000000  0.4531870000000  0.5247830000000 1.0
C      1  0.5448890000000  0.4962240000000  0.4886820000000 1.0
C      1  0.4722540000000  0.5139840000000  0.4623240000000 1.0
C      1  0.5619820000000  0.4759630000000  0.5780930000000 1.0
C      1  0.4980150000000  0.6104440000000  0.5452700000000 1.0
C      1  0.6105320000000  0.5114250000000  0.5250700000000 1.0
C      1  0.4475350000000  0.4977140000000  0.4743790000000 1.0
C      1  0.4982270000000  0.4986000000000  0.6219250000000 1.0
C      1  0.4250100000000  0.4581040000000  0.5658620000000 1.0
C      1  0.5028970000000  0.3933490000000  0.4864180000000 1.0
C      1  0.4970670000000  0.5009100000000  0.4589950000000 1.0
C      1  0.5445270000000  0.5578420000000  0.4334340000000 1.0
C      1  0.4174560000000  0.4768770000000  0.4539080000000 1.0
C      1  0.5227710000000  0.3873050000000  0.4617040000000 1.0
C      1  0.5948220000000  0.4628070000000  0.4656000000000 1.0
C      1  0.5304660000000  0.5192710000000  0.4906800000000 1.0
C      1  0.4416090000000  0.5766870000000  0.5160660000000 1.0
C      1  0.4965730000000  0.4891370000000  0.4158890000000 1.0
C      1  0.5676750000000  0.5732080000000  0.5431060000000 1.0
C      1  0.5482180000000  0.5209980000000  0.4142340000000 1.0
C      1  0.5168580000000  0.4901960000000  0.5945600000000 1.0
C      1  0.4724630000000  0.5417510000000  0.5416560000000 1.0
C      1  0.4853250000000  0.5906650000000  0.4684140000000 1.0
C      1  0.4617370000000  0.4100470000000  0.5244980000000 1.0
C      1  0.4966000000000  0.5478760000000  0.5026760000000 1.0
C      1  0.4854300000000  0.4157720000000  0.5366860000000 1.0
C      1  0.5477840000000  0.4053200000000  0.4610510000000 1.0
C      1  0.4840090000000  0.4290020000000  0.5747880000000 1.0
C      1  0.4587230000000  0.5773920000000  0.4638820000000 1.0
C      1  0.5116190000000  0.4973620000000  0.3912070000000 1.0
C      1  0.4629180000000  0.4697420000000  0.5342050000000 1.0
C      1  0.4242350000000  0.4563470000000  0.4788280000000 1.0
C      1  0.5125900000000  0.3897950000000  0.4356620000000 1.0
C      1  0.5394610000000  0.5378740000000  0.4750610000000 1.0
C      1  0.4821430000000  0.5612980000000  0.5235940000000 1.0
C      1  0.5310050000000  0.5128960000000  0.5889920000000 1.0
C      1  0.4977130000000  0.4744570000000  0.5690050000000 1.0
C      1  0.5122970000000  0.4263140000000  0.4861310000000 1.0
C      1  0.4357990000000  0.4780700000000  0.4310890000000 1.0
C      1  0.4240360000000  0.5705690000000  0.5377660000000 1.0
C      1  0.4215330000000  0.5268930000000  0.5133900000000 1.0
END
