TITL C-4164244-2836-56 21.7498791410851 125000 -14474.3564042791 0 0 99 (C1) n - 1
REM
REM in /home/nfs/bkarasulu/CARBON/AIRSS/Generating-Clusters/ReaxFF-fromJPCA2015/Units_Real/with-SteepDescent/Only-C1/SD-CG/Try1-3A/FIRE-CG
REM
REM
REM
REM
REM
REM ./C.cell (11c1c37f851c82e70ff6c80c92926a4b)
REM
REM compiler GCC version 9.2.1 20190827 (Red Hat 9.2.1-1)
REM options -cpp -mtune=generic -march=x86-64 -g -O0 -fpre-include=/usr/include/finclude/math-vector-fortran.h
REM seed -380138386 -308940364 -467457630 -775126727 1494997948 -1113965664 -593115793 1439861846 -216645623 93082111 323452043 1427870827 430782237 1190397337 -983745176 -1413372329 1666305675 2073174080 1909589366 -882265714 -1046819090 1540997531 1489971155 1480717020 234774820 1595279512 -264801584 2044681665 -760052666 1177889592 202090677 -1633996900 1433868874
REM
CELL 1.54180   50.00000   50.00000   50.00000   90.00000   90.00000   90.00000
LATT -1
SFAC C  
C      1  0.5204410000000  0.4439760000000  0.5487970000000 1.0
C      1  0.4443660000000  0.4749600000000  0.5751600000000 1.0
C      1  0.4595170000000  0.4313810000000  0.4856920000000 1.0
C      1  0.5032680000000  0.5584000000000  0.4627980000000 1.0
C      1  0.4755100000000  0.5769540000000  0.5545100000000 1.0
C      1  0.4245080000000  0.4863160000000  0.4922380000000 1.0
C      1  0.4512900000000  0.4516520000000  0.5546130000000 1.0
C      1  0.5799580000000  0.5297120000000  0.5153800000000 1.0
C      1  0.4798870000000  0.5117810000000  0.5864630000000 1.0
C      1  0.5060220000000  0.5392730000000  0.4270730000000 1.0
C      1  0.5810490000000  0.4947110000000  0.5514020000000 1.0
C      1  0.4871090000000  0.4210820000000  0.4812420000000 1.0
C      1  0.4658660000000  0.5927540000000  0.5084420000000 1.0
C      1  0.5249040000000  0.5128320000000  0.5226400000000 1.0
C      1  0.4984660000000  0.4617700000000  0.5788040000000 1.0
C      1  0.4428330000000  0.4969730000000  0.4449120000000 1.0
C      1  0.5084870000000  0.4849290000000  0.4704040000000 1.0
C      1  0.4293480000000  0.5145410000000  0.4977560000000 1.0
C      1  0.4929820000000  0.4122810000000  0.5222330000000 1.0
C      1  0.5583690000000  0.4611530000000  0.5548840000000 1.0
C      1  0.5880920000000  0.4825600000000  0.5048190000000 1.0
C      1  0.5491400000000  0.4384220000000  0.5412030000000 1.0
C      1  0.5165410000000  0.4644970000000  0.4308540000000 1.0
C      1  0.4733060000000  0.4285870000000  0.5567460000000 1.0
C      1  0.5028110000000  0.5700470000000  0.5563620000000 1.0
C      1  0.4686780000000  0.5538640000000  0.5710950000000 1.0
C      1  0.4950300000000  0.5226860000000  0.4082230000000 1.0
C      1  0.5389640000000  0.4554960000000  0.4478180000000 1.0
C      1  0.5557080000000  0.5287820000000  0.4409730000000 1.0
C      1  0.4498660000000  0.5406490000000  0.5583120000000 1.0
C      1  0.4572110000000  0.5770860000000  0.5308940000000 1.0
C      1  0.5166040000000  0.5487070000000  0.5651710000000 1.0
C      1  0.5100760000000  0.4642310000000  0.5294220000000 1.0
C      1  0.4341760000000  0.5252720000000  0.5243750000000 1.0
C      1  0.5893240000000  0.4984990000000  0.4805540000000 1.0
C      1  0.5612670000000  0.5468140000000  0.5300110000000 1.0
C      1  0.4935620000000  0.4474440000000  0.4372730000000 1.0
C      1  0.5454440000000  0.5582200000000  0.5086150000000 1.0
C      1  0.5431720000000  0.5111910000000  0.5514070000000 1.0
C      1  0.5052410000000  0.4928090000000  0.5310700000000 1.0
C      1  0.5807380000000  0.5260460000000  0.4866300000000 1.0
C      1  0.5281090000000  0.5767790000000  0.4671550000000 1.0
C      1  0.4673560000000  0.5230670000000  0.4132650000000 1.0
C      1  0.4390730000000  0.5275330000000  0.4434030000000 1.0
C      1  0.5145710000000  0.5324900000000  0.4545640000000 1.0
C      1  0.4952750000000  0.5856070000000  0.5062740000000 1.0
C      1  0.5215550000000  0.5415710000000  0.5131870000000 1.0
C      1  0.4680890000000  0.5315920000000  0.4724840000000 1.0
C      1  0.4810290000000  0.4871010000000  0.4721750000000 1.0
C      1  0.4730640000000  0.5077760000000  0.4555600000000 1.0
C      1  0.4961500000000  0.4894300000000  0.5775780000000 1.0
C      1  0.5905110000000  0.5033750000000  0.5260510000000 1.0
C      1  0.4353370000000  0.5603110000000  0.4925730000000 1.0
C      1  0.5029090000000  0.4291920000000  0.4575550000000 1.0
C      1  0.4337470000000  0.4441500000000  0.5283650000000 1.0
C      1  0.4471390000000  0.5865050000000  0.4852600000000 1.0
C      1  0.5514410000000  0.4793380000000  0.4583560000000 1.0
C      1  0.4378170000000  0.5336270000000  0.4752200000000 1.0
C      1  0.5441640000000  0.5069110000000  0.4256630000000 1.0
C      1  0.4861880000000  0.5576810000000  0.4380870000000 1.0
C      1  0.5162260000000  0.4656260000000  0.4887580000000 1.0
C      1  0.4879970000000  0.5019410000000  0.4249380000000 1.0
C      1  0.5363260000000  0.4253270000000  0.4926750000000 1.0
C      1  0.4393380000000  0.5551520000000  0.5210510000000 1.0
C      1  0.5264080000000  0.5085780000000  0.4687610000000 1.0
C      1  0.5364920000000  0.5066050000000  0.4964250000000 1.0
C      1  0.4831720000000  0.4957650000000  0.5488720000000 1.0
C      1  0.4350190000000  0.4649690000000  0.5093240000000 1.0
C      1  0.4597400000000  0.5439980000000  0.4311930000000 1.0
C      1  0.4962510000000  0.4537370000000  0.5062220000000 1.0
C      1  0.4639370000000  0.4538070000000  0.4385510000000 1.0
C      1  0.4912750000000  0.5373040000000  0.5787370000000 1.0
C      1  0.5123060000000  0.5908890000000  0.4848860000000 1.0
C      1  0.5509890000000  0.5629710000000  0.4800370000000 1.0
C      1  0.4980060000000  0.5562770000000  0.5100610000000 1.0
C      1  0.5633050000000  0.4856480000000  0.4335720000000 1.0
C      1  0.5652700000000  0.5413840000000  0.4661400000000 1.0
C      1  0.5550750000000  0.4370360000000  0.5112830000000 1.0
C      1  0.4679050000000  0.4127690000000  0.5333050000000 1.0
C      1  0.4991470000000  0.4354260000000  0.5689950000000 1.0
C      1  0.4793690000000  0.5380350000000  0.4985050000000 1.0
C      1  0.5447950000000  0.5394510000000  0.5544320000000 1.0
C      1  0.5574460000000  0.4882130000000  0.5656220000000 1.0
C      1  0.4508430000000  0.4750680000000  0.4237340000000 1.0
C      1  0.4490330000000  0.5174780000000  0.5478660000000 1.0
C      1  0.4769420000000  0.5142190000000  0.5076390000000 1.0
C      1  0.4495370000000  0.4507930000000  0.4655030000000 1.0
C      1  0.4349470000000  0.4756080000000  0.4670760000000 1.0
C      1  0.5652760000000  0.4636520000000  0.5033890000000 1.0
C      1  0.5798290000000  0.4837420000000  0.4573790000000 1.0
C      1  0.4689490000000  0.4673140000000  0.5133900000000 1.0
C      1  0.4720450000000  0.4901820000000  0.4982630000000 1.0
C      1  0.4480150000000  0.4250160000000  0.5121340000000 1.0
C      1  0.4512480000000  0.5028920000000  0.5746180000000 1.0
C      1  0.5167470000000  0.4923970000000  0.4229210000000 1.0
C      1  0.5310000000000  0.4331520000000  0.4649470000000 1.0
C      1  0.5093560000000  0.4127040000000  0.5003940000000 1.0
C      1  0.5408560000000  0.4780270000000  0.4975670000000 1.0
C      1  0.4669320000000  0.4734730000000  0.5407990000000 1.0
END
