TITL C-4164233-775-751 3.44593768799327 125000 -26209.5323922068 0 0 173 (C1) n - 1
REM
REM in /home/nfs/bkarasulu/CARBON/AIRSS/Generating-Clusters/ReaxFF-fromJPCA2015/Units_Real/with-SteepDescent/Only-C1/SD-CG/Try1-3A/FIRE-CG
REM
REM
REM
REM
REM
REM ./C.cell (11c1c37f851c82e70ff6c80c92926a4b)
REM
REM compiler GCC version 9.2.1 20190827 (Red Hat 9.2.1-1)
REM options -cpp -mtune=generic -march=x86-64 -g -O0 -fpre-include=/usr/include/finclude/math-vector-fortran.h
REM seed -1489357924 923891879 -51450573 -1656082384 -1675762608 -927337213 -1004229996 1422672199 572204420 -1150830846 -1685936785 -1092067292 -1442164183 1440836588 -1002253454 367490074 1025196511 1683604212 642005668 671450837 -93949088 324852849 1694468535 -918058927 -1511488906 1027776743 1350955874 140706928 1623655072 1655940913 -1020013042 -1146563900 -401331046
REM
CELL 1.54180   50.00000   50.00000   50.00000   90.00000   90.00000   90.00000
LATT -1
SFAC C  
C      1  0.5479900000000  0.4516970000000  0.4113230000000 1.0
C      1  0.4731860000000  0.4421560000000  0.4024910000000 1.0
C      1  0.4369060000000  0.5732280000000  0.5363340000000 1.0
C      1  0.5899740000000  0.4297300000000  0.5273570000000 1.0
C      1  0.5615490000000  0.4704900000000  0.5689460000000 1.0
C      1  0.5408900000000  0.4830000000000  0.5005060000000 1.0
C      1  0.5310450000000  0.4873210000000  0.4565750000000 1.0
C      1  0.5180280000000  0.5403720000000  0.5914220000000 1.0
C      1  0.5083500000000  0.4014900000000  0.5533650000000 1.0
C      1  0.5664540000000  0.4057710000000  0.4776710000000 1.0
C      1  0.5758840000000  0.5456290000000  0.4379160000000 1.0
C      1  0.6053570000000  0.5252620000000  0.5028450000000 1.0
C      1  0.6001870000000  0.4985080000000  0.4935150000000 1.0
C      1  0.4296880000000  0.4756610000000  0.4074070000000 1.0
C      1  0.5726000000000  0.4211760000000  0.5461530000000 1.0
C      1  0.5981300000000  0.5405530000000  0.4788140000000 1.0
C      1  0.5145620000000  0.4046830000000  0.4629240000000 1.0
C      1  0.5503380000000  0.5006130000000  0.4780410000000 1.0
C      1  0.4774600000000  0.4817350000000  0.5245980000000 1.0
C      1  0.5252900000000  0.4644350000000  0.3977580000000 1.0
C      1  0.4403220000000  0.5227280000000  0.5893790000000 1.0
C      1  0.4323070000000  0.4281270000000  0.5192330000000 1.0
C      1  0.5210200000000  0.4707510000000  0.5973880000000 1.0
C      1  0.5260830000000  0.3869540000000  0.4999460000000 1.0
C      1  0.5365200000000  0.3988730000000  0.5461480000000 1.0
C      1  0.4804240000000  0.4818730000000  0.3950420000000 1.0
C      1  0.4861690000000  0.5137620000000  0.4791190000000 1.0
C      1  0.4038160000000  0.5010800000000  0.4568910000000 1.0
C      1  0.4139180000000  0.4504540000000  0.5257880000000 1.0
C      1  0.4557010000000  0.4383100000000  0.5668230000000 1.0
C      1  0.5222510000000  0.5424730000000  0.4095700000000 1.0
C      1  0.5416020000000  0.4886960000000  0.4294000000000 1.0
C      1  0.5529270000000  0.4387960000000  0.4549270000000 1.0
C      1  0.4940970000000  0.6080520000000  0.5115060000000 1.0
C      1  0.4531950000000  0.5249250000000  0.4016770000000 1.0
C      1  0.4895710000000  0.5757370000000  0.4213950000000 1.0
C      1  0.4806800000000  0.5299280000000  0.5286370000000 1.0
C      1  0.4853450000000  0.5653020000000  0.5635170000000 1.0
C      1  0.5463680000000  0.4788890000000  0.5468640000000 1.0
C      1  0.4232640000000  0.4702470000000  0.5444680000000 1.0
C      1  0.4305390000000  0.5028760000000  0.4401000000000 1.0
C      1  0.4825140000000  0.4620620000000  0.4771150000000 1.0
C      1  0.5619220000000  0.5736480000000  0.4417510000000 1.0
C      1  0.5101780000000  0.5895300000000  0.4375350000000 1.0
C      1  0.4133640000000  0.5309060000000  0.5260320000000 1.0
C      1  0.5869960000000  0.5255600000000  0.5532160000000 1.0
C      1  0.5525400000000  0.5191750000000  0.5202300000000 1.0
C      1  0.4363690000000  0.5349520000000  0.4679350000000 1.0
C      1  0.4799460000000  0.5918400000000  0.5516450000000 1.0
C      1  0.4909100000000  0.4806090000000  0.5507730000000 1.0
C      1  0.4714560000000  0.5992010000000  0.4581920000000 1.0
C      1  0.4320960000000  0.5575160000000  0.5603050000000 1.0
C      1  0.4757310000000  0.4866200000000  0.6024640000000 1.0
C      1  0.4761740000000  0.5571800000000  0.4873320000000 1.0
C      1  0.4960340000000  0.4421750000000  0.4955840000000 1.0
C      1  0.4171090000000  0.4687130000000  0.4819550000000 1.0
C      1  0.4552160000000  0.5417110000000  0.5720190000000 1.0
C      1  0.5641050000000  0.5810700000000  0.5221380000000 1.0
C      1  0.4599460000000  0.5850030000000  0.4827970000000 1.0
C      1  0.5437580000000  0.5367640000000  0.5411690000000 1.0
C      1  0.4689090000000  0.5222400000000  0.5544630000000 1.0
C      1  0.5248800000000  0.5566520000000  0.5310580000000 1.0
C      1  0.4216080000000  0.4274120000000  0.6043580000000 1.0
C      1  0.5579040000000  0.5982730000000  0.5456930000000 1.0
C      1  0.4105260000000  0.5393150000000  0.5554960000000 1.0
C      1  0.4521270000000  0.5147560000000  0.4853190000000 1.0
C      1  0.4896470000000  0.3918280000000  0.5326770000000 1.0
C      1  0.5820660000000  0.4978920000000  0.4678910000000 1.0
C      1  0.5246210000000  0.5489940000000  0.4607980000000 1.0
C      1  0.5068260000000  0.4230690000000  0.5735910000000 1.0
C      1  0.5583610000000  0.5268150000000  0.4253920000000 1.0
C      1  0.5392640000000  0.3933800000000  0.4738940000000 1.0
C      1  0.4957030000000  0.4662630000000  0.4524860000000 1.0
C      1  0.4919070000000  0.5050210000000  0.5086230000000 1.0
C      1  0.5267580000000  0.4937010000000  0.4038840000000 1.0
C      1  0.5076560000000  0.5652930000000  0.5838760000000 1.0
C      1  0.4320240000000  0.5047600000000  0.4101070000000 1.0
C      1  0.4514010000000  0.4822350000000  0.4418550000000 1.0
C      1  0.5480510000000  0.5510260000000  0.4856840000000 1.0
C      1  0.5912440000000  0.4880430000000  0.5177870000000 1.0
C      1  0.4101310000000  0.4681530000000  0.5713870000000 1.0
C      1  0.4896830000000  0.4100070000000  0.4824850000000 1.0
C      1  0.4482310000000  0.4962010000000  0.5990890000000 1.0
C      1  0.4920320000000  0.4624370000000  0.5966490000000 1.0
C      1  0.4580930000000  0.5922580000000  0.5334070000000 1.0
C      1  0.4940260000000  0.5047850000000  0.4043000000000 1.0
C      1  0.4287380000000  0.4347440000000  0.4374660000000 1.0
C      1  0.4039530000000  0.4731950000000  0.4530720000000 1.0
C      1  0.4005440000000  0.5361030000000  0.4975320000000 1.0
C      1  0.4797550000000  0.5304450000000  0.3918500000000 1.0
C      1  0.5591570000000  0.4894160000000  0.5224990000000 1.0
C      1  0.5735200000000  0.5869550000000  0.5672210000000 1.0
C      1  0.4670290000000  0.5999840000000  0.5082660000000 1.0
C      1  0.4473230000000  0.4179070000000  0.5419960000000 1.0
C      1  0.4955050000000  0.5527490000000  0.4032510000000 1.0
C      1  0.4974000000000  0.4959680000000  0.4545220000000 1.0
C      1  0.4990910000000  0.6058060000000  0.4597400000000 1.0
C      1  0.5224370000000  0.4996530000000  0.5964590000000 1.0
C      1  0.4648600000000  0.5839050000000  0.4346560000000 1.0
C      1  0.4352830000000  0.4939610000000  0.4974200000000 1.0
C      1  0.4851300000000  0.4563030000000  0.5178780000000 1.0
C      1  0.6014210000000  0.4535470000000  0.5409170000000 1.0
C      1  0.4843900000000  0.5035110000000  0.5661460000000 1.0
C      1  0.5434390000000  0.5217830000000  0.3965260000000 1.0
C      1  0.4152860000000  0.4593230000000  0.4292900000000 1.0
C      1  0.5807960000000  0.4713730000000  0.4524210000000 1.0
C      1  0.5897890000000  0.4732280000000  0.5609450000000 1.0
C      1  0.5295950000000  0.4512810000000  0.4941260000000 1.0
C      1  0.4607020000000  0.4125180000000  0.4735950000000 1.0
C      1  0.4275250000000  0.4413020000000  0.5846400000000 1.0
C      1  0.5582560000000  0.5657440000000  0.5767410000000 1.0
C      1  0.5369790000000  0.5999030000000  0.4918140000000 1.0
C      1  0.3948510000000  0.4913900000000  0.5066630000000 1.0
C      1  0.4337700000000  0.5512660000000  0.5175900000000 1.0
C      1  0.4748600000000  0.4267860000000  0.4268620000000 1.0
C      1  0.5313270000000  0.5331090000000  0.4351530000000 1.0
C      1  0.5406190000000  0.4054640000000  0.5176840000000 1.0
C      1  0.4441100000000  0.5402870000000  0.4426790000000 1.0
C      1  0.4203310000000  0.4974560000000  0.5223550000000 1.0
C      1  0.4453820000000  0.4587050000000  0.5505690000000 1.0
C      1  0.4596240000000  0.5406320000000  0.5059500000000 1.0
C      1  0.4602280000000  0.3914320000000  0.5398920000000 1.0
C      1  0.5326800000000  0.5742280000000  0.4478530000000 1.0
C      1  0.5390230000000  0.5230700000000  0.5887470000000 1.0
C      1  0.4130910000000  0.5216120000000  0.5786040000000 1.0
C      1  0.4419030000000  0.5679050000000  0.4446660000000 1.0
C      1  0.5644180000000  0.4715090000000  0.4273220000000 1.0
C      1  0.5437810000000  0.4555300000000  0.5880830000000 1.0
C      1  0.4407280000000  0.4245010000000  0.4911350000000 1.0
C      1  0.4846540000000  0.4401220000000  0.5803910000000 1.0
C      1  0.5883280000000  0.5262290000000  0.4552990000000 1.0
C      1  0.5447210000000  0.4284860000000  0.4283750000000 1.0
C      1  0.3995380000000  0.4631080000000  0.5038250000000 1.0
C      1  0.5102910000000  0.6093900000000  0.4871360000000 1.0
C      1  0.4974900000000  0.3909280000000  0.5042330000000 1.0
C      1  0.4564420000000  0.4649880000000  0.4650270000000 1.0
C      1  0.4360990000000  0.4492170000000  0.4769670000000 1.0
C      1  0.5341640000000  0.4584500000000  0.4660870000000 1.0
C      1  0.4527900000000  0.4197390000000  0.4459380000000 1.0
C      1  0.5031100000000  0.6040390000000  0.5394830000000 1.0
C      1  0.4643150000000  0.5273350000000  0.4291040000000 1.0
C      1  0.5189330000000  0.4819400000000  0.5407860000000 1.0
C      1  0.5596590000000  0.5358810000000  0.5673360000000 1.0
C      1  0.5350760000000  0.4291190000000  0.5805670000000 1.0
C      1  0.4232680000000  0.4805620000000  0.5972230000000 1.0
C      1  0.6025230000000  0.4654660000000  0.5164410000000 1.0
C      1  0.4985850000000  0.4419240000000  0.4358900000000 1.0
C      1  0.5186650000000  0.4198260000000  0.4390040000000 1.0
C      1  0.5575110000000  0.6018260000000  0.4721850000000 1.0
C      1  0.4025160000000  0.4946310000000  0.5836250000000 1.0
C      1  0.5762590000000  0.4297150000000  0.4934640000000 1.0
C      1  0.4588170000000  0.4693120000000  0.4099630000000 1.0
C      1  0.5286450000000  0.5993640000000  0.5530200000000 1.0
C      1  0.3947370000000  0.5108420000000  0.4840510000000 1.0
C      1  0.5966160000000  0.5376010000000  0.5283710000000 1.0
C      1  0.4953150000000  0.5417050000000  0.4739950000000 1.0
C      1  0.5862410000000  0.5634730000000  0.5163700000000 1.0
C      1  0.5956680000000  0.4989690000000  0.5491320000000 1.0
C      1  0.5718190000000  0.5968270000000  0.4544830000000 1.0
C      1  0.5316810000000  0.5808370000000  0.5752600000000 1.0
C      1  0.4975170000000  0.5527960000000  0.5388570000000 1.0
C      1  0.4868150000000  0.5105700000000  0.4316010000000 1.0
C      1  0.4320620000000  0.5752310000000  0.4709920000000 1.0
C      1  0.5546170000000  0.4123230000000  0.5656080000000 1.0
C      1  0.4937210000000  0.5074370000000  0.5926520000000 1.0
C      1  0.5485410000000  0.4314230000000  0.5061790000000 1.0
C      1  0.5390150000000  0.5723240000000  0.5068600000000 1.0
C      1  0.5793950000000  0.4457620000000  0.4655270000000 1.0
C      1  0.5176540000000  0.4928770000000  0.5150140000000 1.0
C      1  0.4154060000000  0.5527680000000  0.4785440000000 1.0
C      1  0.5473390000000  0.5244630000000  0.4936510000000 1.0
C      1  0.5780820000000  0.5589160000000  0.4888800000000 1.0
C      1  0.4966990000000  0.4583890000000  0.3935950000000 1.0
END
