TITL C-4164235-1454-362 9.02273467811147 125000 -14064.2382110402 0 0 95 (C1) n - 1
REM
REM in /home/nfs/bkarasulu/CARBON/AIRSS/Generating-Clusters/ReaxFF-fromJPCA2015/Units_Real/with-SteepDescent/Only-C1/SD-CG/Try1-3A/FIRE-CG
REM
REM
REM
REM
REM
REM ./C.cell (11c1c37f851c82e70ff6c80c92926a4b)
REM
REM compiler GCC version 9.2.1 20190827 (Red Hat 9.2.1-1)
REM options -cpp -mtune=generic -march=x86-64 -g -O0 -fpre-include=/usr/include/finclude/math-vector-fortran.h
REM seed 189130576 61188236 872368358 -1249350980 -680721543 -828927298 -263577890 1771763824 1990768055 -1589327053 2105096698 -1544185940 288778976 -1820809644 -1881921371 1762077297 1647590204 2032539542 1854916781 449239557 -210837130 28106722 -2045116114 452323809 -1006987651 -1532271086 1753700952 -1600286758 -560664610 1905452453 -319668482 1722288862 -1993320166
REM
CELL 1.54180   50.00000   50.00000   50.00000   90.00000   90.00000   90.00000
LATT -1
SFAC C  
C      1  0.4584510000000  0.5612530000000  0.5005410000000 1.0
C      1  0.5547110000000  0.5223680000000  0.5305270000000 1.0
C      1  0.4993850000000  0.4646390000000  0.5902270000000 1.0
C      1  0.5100580000000  0.4281060000000  0.5551780000000 1.0
C      1  0.4996470000000  0.5885430000000  0.5373270000000 1.0
C      1  0.4117290000000  0.4887510000000  0.5329030000000 1.0
C      1  0.4308740000000  0.4621480000000  0.4587800000000 1.0
C      1  0.4677760000000  0.5115470000000  0.4947830000000 1.0
C      1  0.4583130000000  0.4828910000000  0.5376080000000 1.0
C      1  0.4917230000000  0.4955990000000  0.4911350000000 1.0
C      1  0.5354250000000  0.5759410000000  0.4672710000000 1.0
C      1  0.4581370000000  0.4355740000000  0.5239470000000 1.0
C      1  0.5373280000000  0.5726790000000  0.4379620000000 1.0
C      1  0.5451070000000  0.5330290000000  0.4098900000000 1.0
C      1  0.4476550000000  0.4634560000000  0.4369380000000 1.0
C      1  0.4758800000000  0.5300290000000  0.5991540000000 1.0
C      1  0.4396580000000  0.5417680000000  0.4559370000000 1.0
C      1  0.4960560000000  0.4472040000000  0.4888540000000 1.0
C      1  0.5186840000000  0.4689430000000  0.4269540000000 1.0
C      1  0.5479010000000  0.5704890000000  0.5222970000000 1.0
C      1  0.5763450000000  0.5448900000000  0.4891630000000 1.0
C      1  0.4916100000000  0.4303610000000  0.4478900000000 1.0
C      1  0.5063050000000  0.5139530000000  0.5386210000000 1.0
C      1  0.5145780000000  0.5384890000000  0.5721850000000 1.0
C      1  0.5438740000000  0.5172450000000  0.4777820000000 1.0
C      1  0.4843530000000  0.4686070000000  0.5008820000000 1.0
C      1  0.4660780000000  0.4929870000000  0.4149180000000 1.0
C      1  0.5200750000000  0.4278680000000  0.4522830000000 1.0
C      1  0.5055200000000  0.5571160000000  0.4999740000000 1.0
C      1  0.5040850000000  0.4882980000000  0.4624020000000 1.0
C      1  0.4826340000000  0.5293740000000  0.5323610000000 1.0
C      1  0.5134250000000  0.5031330000000  0.5134280000000 1.0
C      1  0.4234810000000  0.4893660000000  0.4701200000000 1.0
C      1  0.4952560000000  0.4513160000000  0.4276530000000 1.0
C      1  0.5107260000000  0.4961070000000  0.4359680000000 1.0
C      1  0.4611030000000  0.5129520000000  0.5225560000000 1.0
C      1  0.4546350000000  0.4888050000000  0.5668150000000 1.0
C      1  0.4331520000000  0.4705190000000  0.5238120000000 1.0
C      1  0.4395840000000  0.5138020000000  0.5679400000000 1.0
C      1  0.4731390000000  0.4803090000000  0.5878190000000 1.0
C      1  0.5337930000000  0.4955710000000  0.5782130000000 1.0
C      1  0.5647680000000  0.4774080000000  0.4498640000000 1.0
C      1  0.5166310000000  0.5407460000000  0.4077450000000 1.0
C      1  0.4683140000000  0.4646010000000  0.4178730000000 1.0
C      1  0.5140650000000  0.4628560000000  0.4725930000000 1.0
C      1  0.5726360000000  0.4961390000000  0.5352720000000 1.0
C      1  0.5385200000000  0.5130780000000  0.5069850000000 1.0
C      1  0.4239960000000  0.5178830000000  0.4641210000000 1.0
C      1  0.4794510000000  0.5607610000000  0.4548490000000 1.0
C      1  0.4517870000000  0.5632140000000  0.4722050000000 1.0
C      1  0.4382970000000  0.4463280000000  0.5060830000000 1.0
C      1  0.5418160000000  0.4689090000000  0.5703060000000 1.0
C      1  0.5810880000000  0.4916680000000  0.4674390000000 1.0
C      1  0.4883020000000  0.5785640000000  0.4314090000000 1.0
C      1  0.4340440000000  0.5506670000000  0.5067060000000 1.0
C      1  0.5564790000000  0.4034930000000  0.5189570000000 1.0
C      1  0.4672400000000  0.4267240000000  0.4677070000000 1.0
C      1  0.5128410000000  0.4903180000000  0.5978060000000 1.0
C      1  0.5598510000000  0.4453440000000  0.4823910000000 1.0
C      1  0.4710430000000  0.5206110000000  0.4171740000000 1.0
C      1  0.4829790000000  0.5456520000000  0.5095050000000 1.0
C      1  0.4901580000000  0.4143260000000  0.5403180000000 1.0
C      1  0.5726190000000  0.5196850000000  0.4736950000000 1.0
C      1  0.4744010000000  0.4120750000000  0.5167880000000 1.0
C      1  0.5775300000000  0.4791180000000  0.5137280000000 1.0
C      1  0.4741580000000  0.5803930000000  0.5500410000000 1.0
C      1  0.5182460000000  0.4482540000000  0.5759290000000 1.0
C      1  0.5284360000000  0.5346810000000  0.4604710000000 1.0
C      1  0.5577500000000  0.5642690000000  0.4811280000000 1.0
C      1  0.4637100000000  0.5389700000000  0.4403410000000 1.0
C      1  0.4855930000000  0.5026640000000  0.6022660000000 1.0
C      1  0.4446450000000  0.4427710000000  0.4772920000000 1.0
C      1  0.5185370000000  0.5757450000000  0.5182740000000 1.0
C      1  0.5468360000000  0.4609410000000  0.4361010000000 1.0
C      1  0.5087910000000  0.4512290000000  0.5361380000000 1.0
C      1  0.5802770000000  0.4690200000000  0.4882320000000 1.0
C      1  0.5306170000000  0.4483350000000  0.5176240000000 1.0
C      1  0.5105990000000  0.5565840000000  0.4716080000000 1.0
C      1  0.5522830000000  0.4271380000000  0.5110220000000 1.0
C      1  0.5004730000000  0.5177580000000  0.4171990000000 1.0
C      1  0.4337200000000  0.5299520000000  0.5239220000000 1.0
C      1  0.4689940000000  0.5612430000000  0.5722200000000 1.0
C      1  0.5311900000000  0.5203430000000  0.5577470000000 1.0
C      1  0.5663710000000  0.5476620000000  0.5184110000000 1.0
C      1  0.4472410000000  0.5044640000000  0.4755080000000 1.0
C      1  0.4781900000000  0.4600770000000  0.5280900000000 1.0
C      1  0.5464110000000  0.5447440000000  0.4385140000000 1.0
C      1  0.4848780000000  0.4194260000000  0.4889680000000 1.0
C      1  0.5362490000000  0.4606200000000  0.4922150000000 1.0
C      1  0.5468480000000  0.4377690000000  0.4549430000000 1.0
C      1  0.4941170000000  0.5510550000000  0.5867230000000 1.0
C      1  0.5593560000000  0.4765140000000  0.5501970000000 1.0
C      1  0.4544050000000  0.5366380000000  0.5803210000000 1.0
C      1  0.5139190000000  0.5697160000000  0.4202760000000 1.0
C      1  0.4200570000000  0.5148290000000  0.5457600000000 1.0
END
