TITL C-4164234-2335-249 30.6614719566212 125000 -20474.4674644254 0 0 138 (C1) n - 1
REM
REM in /home/nfs/bkarasulu/CARBON/AIRSS/Generating-Clusters/ReaxFF-fromJPCA2015/Units_Real/with-SteepDescent/Only-C1/SD-CG/Try1-3A/FIRE-CG
REM
REM
REM
REM
REM
REM ./C.cell (11c1c37f851c82e70ff6c80c92926a4b)
REM
REM compiler GCC version 9.2.1 20190827 (Red Hat 9.2.1-1)
REM options -cpp -mtune=generic -march=x86-64 -g -O0 -fpre-include=/usr/include/finclude/math-vector-fortran.h
REM seed -1441906889 566258190 -748936137 -1567098769 -581711396 959052165 946701341 -450465668 -952302970 -1972107150 -57056498 -711792984 164917428 -1076442634 1387009351 1446620166 1911489936 -1008884519 -1788335993 791538305 -673967234 -766412356 1307153437 -167260816 -1765440524 869672185 -1556291284 -1916331809 -961069983 -107618201 -1237965259 1976446727 -2069595683
REM
CELL 1.54180   50.00000   50.00000   50.00000   90.00000   90.00000   90.00000
LATT -1
SFAC C  
C      1  0.4929480000000  0.4693330000000  0.4987260000000 1.0
C      1  0.5960970000000  0.4893910000000  0.5053490000000 1.0
C      1  0.4818070000000  0.5023930000000  0.5873710000000 1.0
C      1  0.5348890000000  0.4147540000000  0.4475550000000 1.0
C      1  0.4720480000000  0.4623690000000  0.4138930000000 1.0
C      1  0.5592600000000  0.4470340000000  0.4414060000000 1.0
C      1  0.5785740000000  0.5652420000000  0.4855870000000 1.0
C      1  0.5498580000000  0.5824270000000  0.5421880000000 1.0
C      1  0.4012310000000  0.4773570000000  0.5426390000000 1.0
C      1  0.4465830000000  0.5115120000000  0.4668890000000 1.0
C      1  0.5430210000000  0.4040940000000  0.4990730000000 1.0
C      1  0.4113000000000  0.4856510000000  0.4405160000000 1.0
C      1  0.4821520000000  0.4293210000000  0.4511050000000 1.0
C      1  0.5323820000000  0.5310460000000  0.5578540000000 1.0
C      1  0.5247080000000  0.4487950000000  0.4799330000000 1.0
C      1  0.4111670000000  0.4758490000000  0.5129880000000 1.0
C      1  0.5568530000000  0.5440700000000  0.5656470000000 1.0
C      1  0.4892380000000  0.4411990000000  0.4245360000000 1.0
C      1  0.4856320000000  0.4864510000000  0.4043440000000 1.0
C      1  0.4721770000000  0.5458610000000  0.4888500000000 1.0
C      1  0.5026920000000  0.4612430000000  0.5447560000000 1.0
C      1  0.4872750000000  0.4151650000000  0.4996800000000 1.0
C      1  0.5174730000000  0.4586820000000  0.5843030000000 1.0
C      1  0.5378700000000  0.4638090000000  0.4580090000000 1.0
C      1  0.4718450000000  0.4556560000000  0.5870540000000 1.0
C      1  0.5084530000000  0.5601500000000  0.5160470000000 1.0
C      1  0.4160910000000  0.4525850000000  0.5471700000000 1.0
C      1  0.5424210000000  0.5243060000000  0.5076300000000 1.0
C      1  0.4333170000000  0.4523890000000  0.5221030000000 1.0
C      1  0.4371320000000  0.4312470000000  0.4983300000000 1.0
C      1  0.4737470000000  0.4615900000000  0.5571830000000 1.0
C      1  0.4679780000000  0.4701630000000  0.4840000000000 1.0
C      1  0.5453950000000  0.5951160000000  0.5157440000000 1.0
C      1  0.5864510000000  0.5562510000000  0.4613800000000 1.0
C      1  0.5616480000000  0.5072160000000  0.5168920000000 1.0
C      1  0.5541970000000  0.5069910000000  0.5925650000000 1.0
C      1  0.5847840000000  0.5420210000000  0.5300150000000 1.0
C      1  0.4991120000000  0.5541380000000  0.4900670000000 1.0
C      1  0.5586610000000  0.5895910000000  0.4894740000000 1.0
C      1  0.4613890000000  0.5473850000000  0.5692130000000 1.0
C      1  0.5683930000000  0.4174200000000  0.5086540000000 1.0
C      1  0.4327670000000  0.5144400000000  0.5690960000000 1.0
C      1  0.5232140000000  0.5133030000000  0.5811280000000 1.0
C      1  0.5298990000000  0.5524490000000  0.4225260000000 1.0
C      1  0.5099030000000  0.5961810000000  0.4630150000000 1.0
C      1  0.4858420000000  0.5529480000000  0.5795850000000 1.0
C      1  0.4256630000000  0.5493890000000  0.4649680000000 1.0
C      1  0.4530200000000  0.4125900000000  0.5324560000000 1.0
C      1  0.4577090000000  0.5330340000000  0.4215790000000 1.0
C      1  0.4857430000000  0.4215180000000  0.5558920000000 1.0
C      1  0.4333520000000  0.4948890000000  0.5109320000000 1.0
C      1  0.5897850000000  0.5144130000000  0.4602330000000 1.0
C      1  0.5464290000000  0.5006660000000  0.4199220000000 1.0
C      1  0.5310830000000  0.4102780000000  0.5247130000000 1.0
C      1  0.4003140000000  0.4807520000000  0.4843550000000 1.0
C      1  0.5708620000000  0.5192340000000  0.5739610000000 1.0
C      1  0.4978020000000  0.5708790000000  0.5574660000000 1.0
C      1  0.4359300000000  0.4461600000000  0.5668590000000 1.0
C      1  0.5437990000000  0.4516250000000  0.5752720000000 1.0
C      1  0.4018410000000  0.5076060000000  0.4823820000000 1.0
C      1  0.4765120000000  0.5505520000000  0.4367840000000 1.0
C      1  0.4691770000000  0.5805410000000  0.4420360000000 1.0
C      1  0.4313820000000  0.5370950000000  0.4389350000000 1.0
C      1  0.5244160000000  0.5772950000000  0.5546070000000 1.0
C      1  0.5448500000000  0.4836340000000  0.5148270000000 1.0
C      1  0.4485350000000  0.4913160000000  0.4876640000000 1.0
C      1  0.4619920000000  0.5890430000000  0.4689900000000 1.0
C      1  0.5005140000000  0.4222030000000  0.5250330000000 1.0
C      1  0.5501640000000  0.4887940000000  0.4668410000000 1.0
C      1  0.4087500000000  0.5362140000000  0.5133090000000 1.0
C      1  0.5406000000000  0.6001790000000  0.4698060000000 1.0
C      1  0.5704660000000  0.4706270000000  0.5491150000000 1.0
C      1  0.4712870000000  0.5102610000000  0.4121200000000 1.0
C      1  0.5081590000000  0.5080120000000  0.4461710000000 1.0
C      1  0.5330010000000  0.5080990000000  0.4841270000000 1.0
C      1  0.5810990000000  0.5141190000000  0.5416200000000 1.0
C      1  0.4546810000000  0.4958810000000  0.5297980000000 1.0
C      1  0.5929540000000  0.5381700000000  0.4462100000000 1.0
C      1  0.4346800000000  0.5749430000000  0.5105320000000 1.0
C      1  0.5157860000000  0.5664610000000  0.4698270000000 1.0
C      1  0.4073320000000  0.5030910000000  0.5552010000000 1.0
C      1  0.4068000000000  0.5351560000000  0.4830850000000 1.0
C      1  0.5024200000000  0.4247150000000  0.4758480000000 1.0
C      1  0.4380390000000  0.5416590000000  0.5593820000000 1.0
C      1  0.4667390000000  0.5428980000000  0.5190890000000 1.0
C      1  0.5028160000000  0.5070220000000  0.5247650000000 1.0
C      1  0.4963690000000  0.5879540000000  0.4352320000000 1.0
C      1  0.5033920000000  0.4960590000000  0.4942490000000 1.0
C      1  0.4519690000000  0.4969380000000  0.5814100000000 1.0
C      1  0.5682010000000  0.4949220000000  0.4447310000000 1.0
C      1  0.4553570000000  0.4681690000000  0.5361450000000 1.0
C      1  0.4843160000000  0.5689930000000  0.5293160000000 1.0
C      1  0.5559030000000  0.4207220000000  0.5356090000000 1.0
C      1  0.4345610000000  0.5508370000000  0.5271280000000 1.0
C      1  0.5154330000000  0.4481220000000  0.4149830000000 1.0
C      1  0.5015140000000  0.5625300000000  0.4227050000000 1.0
C      1  0.5703380000000  0.5612000000000  0.5461570000000 1.0
C      1  0.5807630000000  0.4665590000000  0.4395350000000 1.0
C      1  0.4331220000000  0.4394680000000  0.4714770000000 1.0
C      1  0.5159990000000  0.4866500000000  0.5433710000000 1.0
C      1  0.4547440000000  0.4714350000000  0.4356220000000 1.0
C      1  0.4585040000000  0.4111970000000  0.5045820000000 1.0
C      1  0.5929130000000  0.5141260000000  0.4895360000000 1.0
C      1  0.5717550000000  0.4443140000000  0.4973440000000 1.0
C      1  0.4728980000000  0.4783970000000  0.4574190000000 1.0
C      1  0.5912760000000  0.4868050000000  0.5344010000000 1.0
C      1  0.5273840000000  0.4056870000000  0.4728370000000 1.0
C      1  0.4253800000000  0.5097440000000  0.4471710000000 1.0
C      1  0.4962650000000  0.5272860000000  0.5900080000000 1.0
C      1  0.5387490000000  0.4324840000000  0.4256470000000 1.0
C      1  0.5005420000000  0.4510420000000  0.5191530000000 1.0
C      1  0.5870500000000  0.5414640000000  0.5012990000000 1.0
C      1  0.5142120000000  0.4770520000000  0.4092450000000 1.0
C      1  0.5172100000000  0.5893920000000  0.5157000000000 1.0
C      1  0.4848930000000  0.5993730000000  0.4830080000000 1.0
C      1  0.5227870000000  0.4879420000000  0.4330050000000 1.0
C      1  0.4748970000000  0.5167500000000  0.5292580000000 1.0
C      1  0.5438980000000  0.4824750000000  0.5434110000000 1.0
C      1  0.5326010000000  0.5508970000000  0.4522650000000 1.0
C      1  0.4574460000000  0.4343560000000  0.4610130000000 1.0
C      1  0.5067120000000  0.4873420000000  0.5843280000000 1.0
C      1  0.4562260000000  0.4235310000000  0.5580040000000 1.0
C      1  0.5062440000000  0.4373220000000  0.5673790000000 1.0
C      1  0.4444700000000  0.5673950000000  0.4818990000000 1.0
C      1  0.5255350000000  0.5248120000000  0.4605550000000 1.0
C      1  0.4896920000000  0.5950170000000  0.5108860000000 1.0
C      1  0.5919550000000  0.4608520000000  0.4644800000000 1.0
C      1  0.5394700000000  0.5266320000000  0.4179110000000 1.0
C      1  0.4705780000000  0.5282770000000  0.4652710000000 1.0
C      1  0.4271570000000  0.4655420000000  0.4368550000000 1.0
C      1  0.4037590000000  0.5168200000000  0.5317740000000 1.0
C      1  0.5628140000000  0.4427640000000  0.5562550000000 1.0
C      1  0.4880250000000  0.5030290000000  0.4652670000000 1.0
C      1  0.4441230000000  0.4682790000000  0.5850850000000 1.0
C      1  0.5235940000000  0.5322760000000  0.5290380000000 1.0
C      1  0.5446440000000  0.4567580000000  0.4995200000000 1.0
C      1  0.5955940000000  0.4622860000000  0.4921320000000 1.0
C      1  0.4104100000000  0.4621300000000  0.4606040000000 1.0
END
