TITL C-4164245-3996-136 10.5612478489062 125000 -24545.7868889121 0 0 166 (C1) n - 1
REM
REM in /home/nfs/bkarasulu/CARBON/AIRSS/Generating-Clusters/ReaxFF-fromJPCA2015/Units_Real/with-SteepDescent/Only-C1/SD-CG/Try1-3A/FIRE-CG
REM
REM
REM
REM
REM
REM ./C.cell (11c1c37f851c82e70ff6c80c92926a4b)
REM
REM compiler GCC version 9.2.1 20190827 (Red Hat 9.2.1-1)
REM options -cpp -mtune=generic -march=x86-64 -g -O0 -fpre-include=/usr/include/finclude/math-vector-fortran.h
REM seed 2106267809 -257968013 1371531805 -2069849090 -1774017396 -1796260093 -1136482744 2035493226 -597667820 -1762452167 1531152431 -569570756 108397507 -1457569507 -481483127 -689188888 749274745 -231936815 -1383738563 1731055733 2028318301 -1330665071 -42144904 1124522608 1982717538 -1463149352 -619175812 1620930052 2023520866 2106383214 -493350205 96806092 1202111758
REM
CELL 1.54180   50.00000   50.00000   50.00000   90.00000   90.00000   90.00000
LATT -1
SFAC C  
C      1  0.5519300000000  0.4588650000000  0.5893410000000 1.0
C      1  0.4240400000000  0.4682510000000  0.5822780000000 1.0
C      1  0.5071710000000  0.4102960000000  0.5541060000000 1.0
C      1  0.5296740000000  0.5283990000000  0.4609840000000 1.0
C      1  0.5381780000000  0.5739620000000  0.4714070000000 1.0
C      1  0.5333960000000  0.4233130000000  0.5598730000000 1.0
C      1  0.4705980000000  0.4896920000000  0.5436220000000 1.0
C      1  0.5126700000000  0.4474000000000  0.4728220000000 1.0
C      1  0.5048660000000  0.5600580000000  0.5416580000000 1.0
C      1  0.4276800000000  0.5800260000000  0.5198140000000 1.0
C      1  0.4073640000000  0.5083610000000  0.5141940000000 1.0
C      1  0.5130230000000  0.4088680000000  0.4391460000000 1.0
C      1  0.5835240000000  0.5521970000000  0.4882590000000 1.0
C      1  0.4039130000000  0.4542760000000  0.4948280000000 1.0
C      1  0.4721770000000  0.4614970000000  0.4494670000000 1.0
C      1  0.5464980000000  0.5866320000000  0.5327380000000 1.0
C      1  0.4720800000000  0.4753200000000  0.4052660000000 1.0
C      1  0.4578100000000  0.5037910000000  0.4538600000000 1.0
C      1  0.5136930000000  0.4959600000000  0.4821270000000 1.0
C      1  0.4726960000000  0.4411970000000  0.5835150000000 1.0
C      1  0.4375820000000  0.4891920000000  0.4670500000000 1.0
C      1  0.4432560000000  0.4187340000000  0.5240460000000 1.0
C      1  0.4602380000000  0.5296130000000  0.4110580000000 1.0
C      1  0.5232220000000  0.5981400000000  0.5666940000000 1.0
C      1  0.4831480000000  0.6071230000000  0.4863610000000 1.0
C      1  0.4916380000000  0.4015020000000  0.4578150000000 1.0
C      1  0.5842790000000  0.5527570000000  0.5388320000000 1.0
C      1  0.4376630000000  0.5306750000000  0.4961310000000 1.0
C      1  0.4984110000000  0.5595560000000  0.5831400000000 1.0
C      1  0.5295110000000  0.4507040000000  0.4477420000000 1.0
C      1  0.4658490000000  0.3897100000000  0.4905130000000 1.0
C      1  0.4505580000000  0.5974950000000  0.5282830000000 1.0
C      1  0.5724220000000  0.4315620000000  0.4697250000000 1.0
C      1  0.5262550000000  0.5578130000000  0.5833820000000 1.0
C      1  0.5068600000000  0.3939000000000  0.4826480000000 1.0
C      1  0.5533400000000  0.4283100000000  0.4483110000000 1.0
C      1  0.4770160000000  0.4897410000000  0.5920920000000 1.0
C      1  0.4329580000000  0.5657600000000  0.4612670000000 1.0
C      1  0.5043040000000  0.5328050000000  0.5519330000000 1.0
C      1  0.4394360000000  0.5771280000000  0.4923590000000 1.0
C      1  0.4902460000000  0.3845590000000  0.5049680000000 1.0
C      1  0.4826760000000  0.5364670000000  0.5906810000000 1.0
C      1  0.5003670000000  0.4741850000000  0.3987410000000 1.0
C      1  0.5586920000000  0.4331410000000  0.5481180000000 1.0
C      1  0.4222250000000  0.5424310000000  0.4453000000000 1.0
C      1  0.4268570000000  0.4935710000000  0.5657440000000 1.0
C      1  0.5472620000000  0.4872640000000  0.5985420000000 1.0
C      1  0.3947970000000  0.4711520000000  0.4740690000000 1.0
C      1  0.5707810000000  0.4987180000000  0.5852490000000 1.0
C      1  0.5093950000000  0.4923630000000  0.5275670000000 1.0
C      1  0.4324160000000  0.4252070000000  0.4976210000000 1.0
C      1  0.5610580000000  0.4202440000000  0.4945920000000 1.0
C      1  0.4097120000000  0.4906810000000  0.5363030000000 1.0
C      1  0.5286170000000  0.5992320000000  0.5164120000000 1.0
C      1  0.4285810000000  0.4708150000000  0.4235590000000 1.0
C      1  0.4793620000000  0.5839600000000  0.4380770000000 1.0
C      1  0.5226020000000  0.5171800000000  0.5665130000000 1.0
C      1  0.4599770000000  0.5125050000000  0.5285810000000 1.0
C      1  0.4891680000000  0.5074510000000  0.4869390000000 1.0
C      1  0.5420170000000  0.5759980000000  0.5649130000000 1.0
C      1  0.5650990000000  0.5716290000000  0.4910100000000 1.0
C      1  0.4576430000000  0.4914370000000  0.5694130000000 1.0
C      1  0.5209470000000  0.5987590000000  0.4698050000000 1.0
C      1  0.4186050000000  0.5414140000000  0.5552210000000 1.0
C      1  0.5304610000000  0.4823420000000  0.4381840000000 1.0
C      1  0.5795230000000  0.4800770000000  0.4777350000000 1.0
C      1  0.4464840000000  0.4061630000000  0.4783760000000 1.0
C      1  0.5519320000000  0.4589160000000  0.4109070000000 1.0
C      1  0.5976350000000  0.4953260000000  0.5349930000000 1.0
C      1  0.4486300000000  0.5043840000000  0.5038220000000 1.0
C      1  0.5367370000000  0.4064650000000  0.4564200000000 1.0
C      1  0.5581250000000  0.4679530000000  0.5238340000000 1.0
C      1  0.4543490000000  0.5748800000000  0.5622050000000 1.0
C      1  0.5748050000000  0.4673670000000  0.4290100000000 1.0
C      1  0.5034110000000  0.5221820000000  0.5257560000000 1.0
C      1  0.4573490000000  0.5514760000000  0.5554860000000 1.0
C      1  0.5117780000000  0.5597890000000  0.4880500000000 1.0
C      1  0.4314680000000  0.4467160000000  0.4373250000000 1.0
C      1  0.5849200000000  0.4561420000000  0.5217880000000 1.0
C      1  0.4862580000000  0.4509050000000  0.4713180000000 1.0
C      1  0.4042160000000  0.4655330000000  0.5217010000000 1.0
C      1  0.4960850000000  0.5108420000000  0.5982180000000 1.0
C      1  0.4550290000000  0.4294050000000  0.4320840000000 1.0
C      1  0.5140570000000  0.4665310000000  0.5712320000000 1.0
C      1  0.4637650000000  0.4113260000000  0.4541130000000 1.0
C      1  0.5375150000000  0.5290930000000  0.5899980000000 1.0
C      1  0.4309830000000  0.4378520000000  0.5410870000000 1.0
C      1  0.5248940000000  0.5741790000000  0.4270530000000 1.0
C      1  0.5118170000000  0.5373920000000  0.4421230000000 1.0
C      1  0.4728130000000  0.4216560000000  0.5327590000000 1.0
C      1  0.4875420000000  0.5462190000000  0.4569240000000 1.0
C      1  0.6052780000000  0.5138850000000  0.4722370000000 1.0
C      1  0.4913150000000  0.4639620000000  0.5890650000000 1.0
C      1  0.4442340000000  0.4475820000000  0.5893720000000 1.0
C      1  0.4619600000000  0.5406320000000  0.5295780000000 1.0
C      1  0.4718770000000  0.4502070000000  0.4201970000000 1.0
C      1  0.4847810000000  0.5445330000000  0.4052990000000 1.0
C      1  0.4331910000000  0.4605200000000  0.5215070000000 1.0
C      1  0.5185020000000  0.4385800000000  0.5000120000000 1.0
C      1  0.5686200000000  0.4546180000000  0.5657950000000 1.0
C      1  0.4129500000000  0.5573770000000  0.5324520000000 1.0
C      1  0.5716960000000  0.4294140000000  0.5203890000000 1.0
C      1  0.5687040000000  0.5742180000000  0.5194810000000 1.0
C      1  0.5494130000000  0.5251050000000  0.4152960000000 1.0
C      1  0.4261200000000  0.4976790000000  0.4189580000000 1.0
C      1  0.5785750000000  0.4830560000000  0.5596700000000 1.0
C      1  0.4118380000000  0.4958620000000  0.4821590000000 1.0
C      1  0.5227680000000  0.5358500000000  0.4146680000000 1.0
C      1  0.5602020000000  0.5030120000000  0.4792160000000 1.0
C      1  0.4958790000000  0.5817740000000  0.5591860000000 1.0
C      1  0.5463570000000  0.5645760000000  0.4438850000000 1.0
C      1  0.4804050000000  0.4886550000000  0.4455870000000 1.0
C      1  0.4901760000000  0.4712520000000  0.5335910000000 1.0
C      1  0.4110720000000  0.5146660000000  0.4408920000000 1.0
C      1  0.5079520000000  0.4926120000000  0.4518330000000 1.0
C      1  0.5687720000000  0.5268950000000  0.5860860000000 1.0
C      1  0.4925890000000  0.3988680000000  0.5310110000000 1.0
C      1  0.5262890000000  0.4904740000000  0.5554130000000 1.0
C      1  0.4511020000000  0.5730240000000  0.4401710000000 1.0
C      1  0.5846940000000  0.4934650000000  0.4343020000000 1.0
C      1  0.5926600000000  0.5221550000000  0.5246110000000 1.0
C      1  0.5247800000000  0.5055130000000  0.6056090000000 1.0
C      1  0.5535040000000  0.5170420000000  0.4545540000000 1.0
C      1  0.3945480000000  0.4992490000000  0.4586240000000 1.0
C      1  0.4409680000000  0.4607800000000  0.4635400000000 1.0
C      1  0.5513180000000  0.5190910000000  0.5013570000000 1.0
C      1  0.4582680000000  0.6002500000000  0.4992710000000 1.0
C      1  0.5596780000000  0.5199490000000  0.5301230000000 1.0
C      1  0.5132110000000  0.6100940000000  0.4959440000000 1.0
C      1  0.4905750000000  0.4463070000000  0.5188160000000 1.0
C      1  0.4289120000000  0.5241570000000  0.5743150000000 1.0
C      1  0.5140610000000  0.4356090000000  0.4269270000000 1.0
C      1  0.5205070000000  0.4813510000000  0.5047740000000 1.0
C      1  0.4548830000000  0.5387790000000  0.5798800000000 1.0
C      1  0.6051270000000  0.4775350000000  0.5140800000000 1.0
C      1  0.5923220000000  0.5180090000000  0.4452780000000 1.0
C      1  0.4437060000000  0.4505010000000  0.4952720000000 1.0
C      1  0.4705530000000  0.4883570000000  0.4954650000000 1.0
C      1  0.4237930000000  0.4418010000000  0.5695510000000 1.0
C      1  0.5649130000000  0.5375500000000  0.4368550000000 1.0
C      1  0.5047070000000  0.5269580000000  0.3934760000000 1.0
C      1  0.4816890000000  0.4222530000000  0.5636020000000 1.0
C      1  0.5234430000000  0.4528990000000  0.4054680000000 1.0
C      1  0.5995420000000  0.5315750000000  0.4951710000000 1.0
C      1  0.6063670000000  0.4877440000000  0.4859390000000 1.0
C      1  0.5781910000000  0.5464680000000  0.5674980000000 1.0
C      1  0.5260150000000  0.5204910000000  0.4870050000000 1.0
C      1  0.4538090000000  0.5005390000000  0.4092360000000 1.0
C      1  0.5544010000000  0.4904810000000  0.5425700000000 1.0
C      1  0.5380760000000  0.4597350000000  0.5053380000000 1.0
C      1  0.4730840000000  0.4573880000000  0.4962080000000 1.0
C      1  0.4586700000000  0.5521030000000  0.5017370000000 1.0
C      1  0.4959160000000  0.5699640000000  0.4196800000000 1.0
C      1  0.5381890000000  0.4978480000000  0.4134560000000 1.0
C      1  0.4743860000000  0.5221200000000  0.4674850000000 1.0
C      1  0.4684430000000  0.5955260000000  0.5518320000000 1.0
C      1  0.5143600000000  0.4990620000000  0.3954220000000 1.0
C      1  0.5278170000000  0.4429920000000  0.5814960000000 1.0
C      1  0.4128900000000  0.5363410000000  0.5107740000000 1.0
C      1  0.5595620000000  0.5450340000000  0.5469410000000 1.0
C      1  0.4929200000000  0.5990080000000  0.4600220000000 1.0
C      1  0.5801080000000  0.4579910000000  0.4578570000000 1.0
C      1  0.4846860000000  0.5584240000000  0.4830930000000 1.0
C      1  0.5328270000000  0.4105250000000  0.4876070000000 1.0
C      1  0.4420000000000  0.5487940000000  0.4244350000000 1.0
C      1  0.5097040000000  0.5492520000000  0.5153720000000 1.0
END
