TITL C-4164232-771-473 0.0896521666303679 125000 -12404.9704764565 0 0 83 (C1) n - 1
REM
REM in /home/nfs/bkarasulu/CARBON/AIRSS/Generating-Clusters/ReaxFF-fromJPCA2015/Units_Real/with-SteepDescent/Only-C1/SD-CG/Try1-3A/FIRE-CG
REM
REM
REM
REM
REM
REM ./C.cell (11c1c37f851c82e70ff6c80c92926a4b)
REM
REM compiler GCC version 9.2.1 20190827 (Red Hat 9.2.1-1)
REM options -cpp -mtune=generic -march=x86-64 -g -O0 -fpre-include=/usr/include/finclude/math-vector-fortran.h
REM seed 525088444 -242257695 1798532759 1008272298 -695830647 -558812407 2066432448 1339417566 1541346605 -1095695189 463827355 1654296631 -2131187075 734775738 -1785208246 -1681612004 -1129291783 -1731798191 -35682896 -2037110108 -645860987 1144531778 -1730315413 -690467906 756329068 -1460169030 -770172967 -342169431 902359382 -579753522 -13077069 568624985 -560907962
REM
CELL 1.54180   50.00000   50.00000   50.00000   90.00000   90.00000   90.00000
LATT -1
SFAC C  
C      1  0.5301820000000  0.4743440000000  0.5268600000000 1.0
C      1  0.4250480000000  0.5056820000000  0.5328530000000 1.0
C      1  0.5819300000000  0.4944040000000  0.4922290000000 1.0
C      1  0.4223980000000  0.5106150000000  0.4818370000000 1.0
C      1  0.4637860000000  0.4798200000000  0.4776210000000 1.0
C      1  0.5526140000000  0.5279270000000  0.4772150000000 1.0
C      1  0.4631080000000  0.4896750000000  0.5017470000000 1.0
C      1  0.4414290000000  0.5210740000000  0.5519020000000 1.0
C      1  0.5762560000000  0.4660110000000  0.4985890000000 1.0
C      1  0.4685440000000  0.4812330000000  0.4236080000000 1.0
C      1  0.4663200000000  0.5104470000000  0.4284720000000 1.0
C      1  0.5683620000000  0.4897640000000  0.4437470000000 1.0
C      1  0.4456160000000  0.5248460000000  0.4698420000000 1.0
C      1  0.4978140000000  0.5371760000000  0.5606190000000 1.0
C      1  0.4851560000000  0.5728650000000  0.5226210000000 1.0
C      1  0.5111360000000  0.5394650000000  0.5106380000000 1.0
C      1  0.4908430000000  0.5005470000000  0.5319380000000 1.0
C      1  0.4864900000000  0.4214330000000  0.4632900000000 1.0
C      1  0.4588780000000  0.4596840000000  0.4403890000000 1.0
C      1  0.5291410000000  0.5419220000000  0.5523520000000 1.0
C      1  0.4807470000000  0.4415230000000  0.4433320000000 1.0
C      1  0.5695950000000  0.5384210000000  0.5017300000000 1.0
C      1  0.4649440000000  0.5332880000000  0.4905280000000 1.0
C      1  0.4398090000000  0.4633800000000  0.4643290000000 1.0
C      1  0.5142630000000  0.5015870000000  0.4289940000000 1.0
C      1  0.5798830000000  0.4586570000000  0.5264990000000 1.0
C      1  0.4863220000000  0.5137080000000  0.5734790000000 1.0
C      1  0.5757750000000  0.4790080000000  0.5473800000000 1.0
C      1  0.5269260000000  0.5251620000000  0.5295700000000 1.0
C      1  0.5424000000000  0.4267250000000  0.5426110000000 1.0
C      1  0.4608090000000  0.5729650000000  0.4707930000000 1.0
C      1  0.5255360000000  0.4478950000000  0.4837360000000 1.0
C      1  0.5754430000000  0.5061580000000  0.4656410000000 1.0
C      1  0.4892300000000  0.4821100000000  0.5725200000000 1.0
C      1  0.4654220000000  0.5577540000000  0.4453640000000 1.0
C      1  0.4269800000000  0.4764340000000  0.5298400000000 1.0
C      1  0.4878830000000  0.4922170000000  0.4686060000000 1.0
C      1  0.4514410000000  0.5314770000000  0.4421040000000 1.0
C      1  0.4658500000000  0.5016290000000  0.5265100000000 1.0
C      1  0.5355260000000  0.5657380000000  0.5330230000000 1.0
C      1  0.4529790000000  0.5439090000000  0.5393330000000 1.0
C      1  0.4203160000000  0.4657830000000  0.5027810000000 1.0
C      1  0.4583310000000  0.4342450000000  0.5038410000000 1.0
C      1  0.5253860000000  0.4603190000000  0.4559430000000 1.0
C      1  0.4574140000000  0.5087780000000  0.5715770000000 1.0
C      1  0.4925500000000  0.5251740000000  0.4947440000000 1.0
C      1  0.4936620000000  0.4551940000000  0.5297260000000 1.0
C      1  0.5549030000000  0.4460300000000  0.4956390000000 1.0
C      1  0.5133350000000  0.5716400000000  0.5121480000000 1.0
C      1  0.5612410000000  0.4337540000000  0.5222250000000 1.0
C      1  0.4795570000000  0.5540310000000  0.5451240000000 1.0
C      1  0.4607760000000  0.4799080000000  0.5677820000000 1.0
C      1  0.4905440000000  0.5092370000000  0.4451950000000 1.0
C      1  0.4189430000000  0.4818220000000  0.4784800000000 1.0
C      1  0.5219450000000  0.4991990000000  0.5386930000000 1.0
C      1  0.4357160000000  0.4451200000000  0.4893370000000 1.0
C      1  0.4942910000000  0.5564110000000  0.4405940000000 1.0
C      1  0.5220760000000  0.5717650000000  0.4810960000000 1.0
C      1  0.4798770000000  0.4197930000000  0.4900980000000 1.0
C      1  0.4236510000000  0.5220240000000  0.5086060000000 1.0
C      1  0.5024500000000  0.4623460000000  0.5565350000000 1.0
C      1  0.5016640000000  0.5683430000000  0.4635990000000 1.0
C      1  0.5552960000000  0.5550730000000  0.5178860000000 1.0
C      1  0.5109380000000  0.4674230000000  0.5069830000000 1.0
C      1  0.5080560000000  0.4984030000000  0.4895470000000 1.0
C      1  0.5362000000000  0.4878130000000  0.4510940000000 1.0
C      1  0.4453430000000  0.5418630000000  0.5112820000000 1.0
C      1  0.5339400000000  0.5045870000000  0.4759660000000 1.0
C      1  0.4977920000000  0.4785280000000  0.4190690000000 1.0
C      1  0.5420890000000  0.5558100000000  0.4666700000000 1.0
C      1  0.5398840000000  0.4992780000000  0.5669660000000 1.0
C      1  0.5374830000000  0.5517070000000  0.4382280000000 1.0
C      1  0.5537730000000  0.5228060000000  0.5589570000000 1.0
C      1  0.5805280000000  0.5139000000000  0.5136200000000 1.0
C      1  0.5055820000000  0.4554220000000  0.4358520000000 1.0
C      1  0.4479320000000  0.4642810000000  0.5454830000000 1.0
C      1  0.5148920000000  0.5358010000000  0.4244600000000 1.0
C      1  0.5067100000000  0.4244620000000  0.4820800000000 1.0
C      1  0.4667300000000  0.5763320000000  0.4997500000000 1.0
C      1  0.5327950000000  0.4568810000000  0.5515450000000 1.0
C      1  0.5538710000000  0.4744630000000  0.5659240000000 1.0
C      1  0.5733010000000  0.5081170000000  0.5416090000000 1.0
C      1  0.4654200000000  0.4474520000000  0.5289740000000 1.0
END
