TITL C-4164235-1454-693 36.9093369423242 125000 -22921.2786779714 0 0 152 (C1) n - 1
REM
REM in /home/nfs/bkarasulu/CARBON/AIRSS/Generating-Clusters/ReaxFF-fromJPCA2015/Units_Real/with-SteepDescent/Only-C1/SD-CG/Try1-3A/FIRE-CG
REM
REM
REM
REM
REM
REM ./C.cell (11c1c37f851c82e70ff6c80c92926a4b)
REM
REM compiler GCC version 9.2.1 20190827 (Red Hat 9.2.1-1)
REM options -cpp -mtune=generic -march=x86-64 -g -O0 -fpre-include=/usr/include/finclude/math-vector-fortran.h
REM seed 1316563665 -930591136 -253327129 -1542094123 992763600 804279941 -1184409588 1782896582 1499098183 103138158 -818764039 681189501 -1830935077 -1907992174 1749379053 -2124405011 1545047455 -1012600909 -229202334 1417713190 -725540602 -1958018979 -18200289 -696434966 -880018892 103947278 -1711854684 1897115838 2082962544 -460059940 63493265 -1725310806 220743479
REM
CELL 1.54180   50.00000   50.00000   50.00000   90.00000   90.00000   90.00000
LATT -1
SFAC C  
C      1  0.5170180000000  0.4831490000000  0.4411250000000 1.0
C      1  0.4963660000000  0.5562350000000  0.5673150000000 1.0
C      1  0.4495470000000  0.4527250000000  0.5753470000000 1.0
C      1  0.4089470000000  0.5219230000000  0.4691430000000 1.0
C      1  0.4790740000000  0.4540920000000  0.5366780000000 1.0
C      1  0.5451240000000  0.5175320000000  0.5127340000000 1.0
C      1  0.5558600000000  0.4635810000000  0.4227720000000 1.0
C      1  0.5499280000000  0.4468410000000  0.5727680000000 1.0
C      1  0.4679610000000  0.4698540000000  0.5156160000000 1.0
C      1  0.5011260000000  0.4388200000000  0.4165550000000 1.0
C      1  0.5060020000000  0.3943620000000  0.5069400000000 1.0
C      1  0.4523980000000  0.4153700000000  0.4723760000000 1.0
C      1  0.5173340000000  0.3954510000000  0.4797850000000 1.0
C      1  0.4552050000000  0.4611610000000  0.4654670000000 1.0
C      1  0.5661120000000  0.5545840000000  0.5339780000000 1.0
C      1  0.5449550000000  0.3981600000000  0.4936880000000 1.0
C      1  0.5393270000000  0.5933620000000  0.4888900000000 1.0
C      1  0.5096520000000  0.5424230000000  0.4776850000000 1.0
C      1  0.5522570000000  0.4782120000000  0.4962960000000 1.0
C      1  0.5099540000000  0.4879840000000  0.5558530000000 1.0
C      1  0.4780320000000  0.4250100000000  0.5375200000000 1.0
C      1  0.4179030000000  0.4560130000000  0.4404780000000 1.0
C      1  0.5252330000000  0.6047710000000  0.5103030000000 1.0
C      1  0.4320710000000  0.5666830000000  0.4770440000000 1.0
C      1  0.5375470000000  0.5478970000000  0.5963990000000 1.0
C      1  0.4273790000000  0.5058160000000  0.4258030000000 1.0
C      1  0.4765200000000  0.6050640000000  0.5249920000000 1.0
C      1  0.4411090000000  0.5713480000000  0.5412460000000 1.0
C      1  0.4137020000000  0.4651150000000  0.5384090000000 1.0
C      1  0.5205940000000  0.4315580000000  0.4388370000000 1.0
C      1  0.4098240000000  0.4890740000000  0.5544320000000 1.0
C      1  0.5670530000000  0.4139450000000  0.4837810000000 1.0
C      1  0.4949230000000  0.4628260000000  0.5980900000000 1.0
C      1  0.5213370000000  0.4469550000000  0.5024350000000 1.0
C      1  0.4833820000000  0.5639160000000  0.5176300000000 1.0
C      1  0.5745030000000  0.5448210000000  0.4458340000000 1.0
C      1  0.4584790000000  0.4044930000000  0.4959540000000 1.0
C      1  0.4360510000000  0.4407740000000  0.4736040000000 1.0
C      1  0.4908390000000  0.5456570000000  0.4044570000000 1.0
C      1  0.4624370000000  0.5098940000000  0.4719990000000 1.0
C      1  0.5508210000000  0.5444520000000  0.5091080000000 1.0
C      1  0.4041500000000  0.5326740000000  0.5232730000000 1.0
C      1  0.5208880000000  0.5455210000000  0.4102760000000 1.0
C      1  0.4363630000000  0.5227180000000  0.5801600000000 1.0
C      1  0.4389220000000  0.4143880000000  0.5112480000000 1.0
C      1  0.4912970000000  0.4873900000000  0.3971490000000 1.0
C      1  0.4293290000000  0.4453500000000  0.5533570000000 1.0
C      1  0.4786990000000  0.5968640000000  0.5532830000000 1.0
C      1  0.4994010000000  0.5533880000000  0.5371680000000 1.0
C      1  0.3921410000000  0.4942750000000  0.5107710000000 1.0
C      1  0.5345700000000  0.5673100000000  0.4247630000000 1.0
C      1  0.4690640000000  0.5828050000000  0.4680740000000 1.0
C      1  0.5994160000000  0.5294170000000  0.4523990000000 1.0
C      1  0.4044230000000  0.4724780000000  0.4589860000000 1.0
C      1  0.4587250000000  0.5750790000000  0.5633690000000 1.0
C      1  0.4903380000000  0.6013210000000  0.4754200000000 1.0
C      1  0.4269930000000  0.4949260000000  0.5777780000000 1.0
C      1  0.4631670000000  0.5070120000000  0.5426060000000 1.0
C      1  0.5406290000000  0.5484950000000  0.4811820000000 1.0
C      1  0.4994810000000  0.5071800000000  0.4402050000000 1.0
C      1  0.4991090000000  0.4457240000000  0.5790780000000 1.0
C      1  0.4118520000000  0.5006370000000  0.4505140000000 1.0
C      1  0.4737340000000  0.4988370000000  0.5937270000000 1.0
C      1  0.5334660000000  0.4848670000000  0.5404740000000 1.0
C      1  0.5301490000000  0.5176760000000  0.4103780000000 1.0
C      1  0.5610830000000  0.4392040000000  0.4668070000000 1.0
C      1  0.4720630000000  0.4103080000000  0.5624040000000 1.0
C      1  0.4056460000000  0.4681700000000  0.5092230000000 1.0
C      1  0.3996910000000  0.5194950000000  0.4967080000000 1.0
C      1  0.4875240000000  0.5676080000000  0.4231260000000 1.0
C      1  0.4939720000000  0.4412160000000  0.4968250000000 1.0
C      1  0.4643600000000  0.4982690000000  0.3964680000000 1.0
C      1  0.5301600000000  0.4765310000000  0.4153040000000 1.0
C      1  0.5577640000000  0.5688700000000  0.4427280000000 1.0
C      1  0.4672010000000  0.5262850000000  0.4036310000000 1.0
C      1  0.4439710000000  0.5270180000000  0.5518050000000 1.0
C      1  0.5047990000000  0.4099400000000  0.4579710000000 1.0
C      1  0.5462110000000  0.5185860000000  0.5935220000000 1.0
C      1  0.5900780000000  0.5062440000000  0.4393150000000 1.0
C      1  0.6029060000000  0.5427070000000  0.5007300000000 1.0
C      1  0.5836960000000  0.4383910000000  0.5295200000000 1.0
C      1  0.5934560000000  0.4659590000000  0.5275460000000 1.0
C      1  0.4952700000000  0.4642140000000  0.5576460000000 1.0
C      1  0.4627700000000  0.5265090000000  0.5914930000000 1.0
C      1  0.5312140000000  0.4004260000000  0.5199540000000 1.0
C      1  0.5105370000000  0.5517560000000  0.5896150000000 1.0
C      1  0.5028330000000  0.5089600000000  0.4115660000000 1.0
C      1  0.4764510000000  0.4324640000000  0.4305390000000 1.0
C      1  0.4509460000000  0.4801030000000  0.5850170000000 1.0
C      1  0.4746350000000  0.5569870000000  0.4486580000000 1.0
C      1  0.4590260000000  0.5823640000000  0.5182600000000 1.0
C      1  0.4915780000000  0.5080500000000  0.5482690000000 1.0
C      1  0.5899520000000  0.4486800000000  0.4836180000000 1.0
C      1  0.5924370000000  0.4982680000000  0.4862560000000 1.0
C      1  0.5510620000000  0.4402390000000  0.4383490000000 1.0
C      1  0.5458890000000  0.5656760000000  0.5750080000000 1.0
C      1  0.5701540000000  0.5181320000000  0.5767980000000 1.0
C      1  0.4767470000000  0.4149120000000  0.4544280000000 1.0
C      1  0.5091490000000  0.6035050000000  0.4523410000000 1.0
C      1  0.4974770000000  0.5334190000000  0.4537140000000 1.0
C      1  0.5307390000000  0.5962270000000  0.5400790000000 1.0
C      1  0.3952880000000  0.5078640000000  0.5370380000000 1.0
C      1  0.5638440000000  0.5020260000000  0.4795020000000 1.0
C      1  0.5103130000000  0.4995710000000  0.4837110000000 1.0
C      1  0.5515900000000  0.4749910000000  0.5822580000000 1.0
C      1  0.4258580000000  0.5458820000000  0.4610080000000 1.0
C      1  0.5362600000000  0.4885350000000  0.4767900000000 1.0
C      1  0.4312850000000  0.4276620000000  0.5319970000000 1.0
C      1  0.5863760000000  0.4269760000000  0.5018070000000 1.0
C      1  0.5108670000000  0.5848180000000  0.4293330000000 1.0
C      1  0.4598540000000  0.4562900000000  0.4370470000000 1.0
C      1  0.4478680000000  0.5088840000000  0.4968410000000 1.0
C      1  0.5510030000000  0.5760600000000  0.4711280000000 1.0
C      1  0.5332520000000  0.4478160000000  0.4760040000000 1.0
C      1  0.4968190000000  0.6077670000000  0.5043810000000 1.0
C      1  0.5357830000000  0.4681280000000  0.5181480000000 1.0
C      1  0.4461830000000  0.5278390000000  0.4230050000000 1.0
C      1  0.4276990000000  0.5457740000000  0.5360100000000 1.0
C      1  0.5169130000000  0.4578510000000  0.4548610000000 1.0
C      1  0.5517440000000  0.5778140000000  0.5509100000000 1.0
C      1  0.5270430000000  0.4303920000000  0.5688160000000 1.0
C      1  0.4839350000000  0.4904620000000  0.4742840000000 1.0
C      1  0.4393450000000  0.4870800000000  0.4075550000000 1.0
C      1  0.4838730000000  0.4155060000000  0.5073400000000 1.0
C      1  0.5172980000000  0.5139290000000  0.5071600000000 1.0
C      1  0.5067010000000  0.4632040000000  0.4020780000000 1.0
C      1  0.5834410000000  0.4863660000000  0.5446180000000 1.0
C      1  0.4771350000000  0.4636470000000  0.4885780000000 1.0
C      1  0.5697990000000  0.4912670000000  0.4280210000000 1.0
C      1  0.5984910000000  0.4720000000000  0.4977880000000 1.0
C      1  0.5010110000000  0.4896860000000  0.6005930000000 1.0
C      1  0.4479100000000  0.5853930000000  0.4877240000000 1.0
C      1  0.5757230000000  0.4888810000000  0.5722610000000 1.0
C      1  0.5301580000000  0.4944280000000  0.5900810000000 1.0
C      1  0.4630130000000  0.5319900000000  0.4884840000000 1.0
C      1  0.4557440000000  0.4934610000000  0.5196190000000 1.0
C      1  0.4515520000000  0.5396580000000  0.4471690000000 1.0
C      1  0.4359550000000  0.4599940000000  0.4188590000000 1.0
C      1  0.5494420000000  0.5122330000000  0.4322470000000 1.0
C      1  0.5562650000000  0.5042620000000  0.5368390000000 1.0
C      1  0.5654740000000  0.5295850000000  0.5507260000000 1.0
C      1  0.5030830000000  0.5261840000000  0.5293570000000 1.0
C      1  0.5062340000000  0.5956500000000  0.5514650000000 1.0
C      1  0.4708050000000  0.4337540000000  0.5818910000000 1.0
C      1  0.4869730000000  0.5454340000000  0.4963570000000 1.0
C      1  0.4116650000000  0.4563330000000  0.4832340000000 1.0
C      1  0.5380910000000  0.4169080000000  0.5449170000000 1.0
C      1  0.6070540000000  0.5233930000000  0.4812840000000 1.0
C      1  0.5634240000000  0.4313960000000  0.5488100000000 1.0
C      1  0.5542230000000  0.5267390000000  0.4582650000000 1.0
C      1  0.4702520000000  0.5541670000000  0.5814160000000 1.0
C      1  0.5964500000000  0.5601370000000  0.5201320000000 1.0
END
