TITL C-4164247-2821-772 -10.9508976623031 125000 -14408.9131297662 0 0 97 (C1) n - 1
REM
REM in /home/nfs/bkarasulu/CARBON/AIRSS/Generating-Clusters/ReaxFF-fromJPCA2015/Units_Real/with-SteepDescent/Only-C1/SD-CG/Try1-3A/FIRE-CG
REM
REM
REM
REM
REM
REM ./C.cell (11c1c37f851c82e70ff6c80c92926a4b)
REM
REM compiler GCC version 9.2.1 20190827 (Red Hat 9.2.1-1)
REM options -cpp -mtune=generic -march=x86-64 -g -O0 -fpre-include=/usr/include/finclude/math-vector-fortran.h
REM seed -1648405317 -801920529 277139238 1253095003 994591255 334866787 -352669782 -1177397786 -156655318 -1637346775 1997914912 1404407235 1776034525 -1218448734 -692070730 -418083874 -1472817289 -4914546 -1735092749 -452715427 -2092098193 -35255591 -1676806825 130690431 1660182355 -283770178 -1986920942 -2048630057 986134505 -640012399 914088984 -1688606131 614553296
REM
CELL 1.54180   50.00000   50.00000   50.00000   90.00000   90.00000   90.00000
LATT -1
SFAC C  
C      1  0.5504720000000  0.4269570000000  0.4972670000000 1.0
C      1  0.5179710000000  0.5880560000000  0.4959420000000 1.0
C      1  0.4968340000000  0.5826280000000  0.4554600000000 1.0
C      1  0.4391440000000  0.4557320000000  0.4551700000000 1.0
C      1  0.5241620000000  0.5115440000000  0.5800550000000 1.0
C      1  0.4962170000000  0.4549130000000  0.5017550000000 1.0
C      1  0.4411450000000  0.4892970000000  0.4546280000000 1.0
C      1  0.4592750000000  0.4399890000000  0.4445770000000 1.0
C      1  0.4533570000000  0.5606240000000  0.4469820000000 1.0
C      1  0.4084200000000  0.4776680000000  0.4987470000000 1.0
C      1  0.5289470000000  0.4312720000000  0.5447900000000 1.0
C      1  0.5100390000000  0.4587600000000  0.5815990000000 1.0
C      1  0.5031220000000  0.4196490000000  0.5368500000000 1.0
C      1  0.4883440000000  0.4649970000000  0.4291830000000 1.0
C      1  0.5065590000000  0.4927410000000  0.5235830000000 1.0
C      1  0.4414600000000  0.4413650000000  0.5075080000000 1.0
C      1  0.5122500000000  0.5017830000000  0.4125120000000 1.0
C      1  0.5339460000000  0.5572760000000  0.4345880000000 1.0
C      1  0.4881720000000  0.5025960000000  0.4638800000000 1.0
C      1  0.5907850000000  0.5041410000000  0.5102300000000 1.0
C      1  0.4910160000000  0.5481130000000  0.5430930000000 1.0
C      1  0.5680120000000  0.5247630000000  0.5509390000000 1.0
C      1  0.4970040000000  0.5257080000000  0.4192930000000 1.0
C      1  0.5013980000000  0.6006300000000  0.4742200000000 1.0
C      1  0.5275700000000  0.4826500000000  0.5835070000000 1.0
C      1  0.4374220000000  0.5522690000000  0.4695200000000 1.0
C      1  0.4387490000000  0.5368150000000  0.4426260000000 1.0
C      1  0.5260220000000  0.5331610000000  0.4824060000000 1.0
C      1  0.4931180000000  0.4523470000000  0.4725430000000 1.0
C      1  0.5520020000000  0.5025260000000  0.5404270000000 1.0
C      1  0.4467710000000  0.4657500000000  0.5544840000000 1.0
C      1  0.4880310000000  0.4866270000000  0.4114240000000 1.0
C      1  0.4832110000000  0.4525670000000  0.5707940000000 1.0
C      1  0.4362290000000  0.5205890000000  0.5106330000000 1.0
C      1  0.4701150000000  0.4486300000000  0.5210960000000 1.0
C      1  0.4628160000000  0.4723910000000  0.5784840000000 1.0
C      1  0.5620910000000  0.5617610000000  0.4817550000000 1.0
C      1  0.5332680000000  0.4069920000000  0.4890110000000 1.0
C      1  0.4708090000000  0.5000500000000  0.5833140000000 1.0
C      1  0.5399670000000  0.5090540000000  0.4824630000000 1.0
C      1  0.4569990000000  0.5925070000000  0.4991100000000 1.0
C      1  0.5368650000000  0.4914260000000  0.4268490000000 1.0
C      1  0.4218040000000  0.5004110000000  0.4662060000000 1.0
C      1  0.5624040000000  0.4996760000000  0.4702220000000 1.0
C      1  0.4392550000000  0.4451590000000  0.4806850000000 1.0
C      1  0.4844430000000  0.5671370000000  0.4429890000000 1.0
C      1  0.4186510000000  0.4670030000000  0.5452970000000 1.0
C      1  0.5362710000000  0.5543670000000  0.5536200000000 1.0
C      1  0.4742880000000  0.6042030000000  0.4822900000000 1.0
C      1  0.4720440000000  0.5094960000000  0.4184020000000 1.0
C      1  0.5536530000000  0.5084420000000  0.4441020000000 1.0
C      1  0.5455010000000  0.5308780000000  0.5698840000000 1.0
C      1  0.4470900000000  0.5099770000000  0.4342020000000 1.0
C      1  0.5255370000000  0.5118590000000  0.5340900000000 1.0
C      1  0.4941640000000  0.4756770000000  0.4553680000000 1.0
C      1  0.5377220000000  0.5634710000000  0.4987690000000 1.0
C      1  0.5554470000000  0.5600540000000  0.4536660000000 1.0
C      1  0.5055570000000  0.5520650000000  0.4286270000000 1.0
C      1  0.5330340000000  0.4444890000000  0.4539730000000 1.0
C      1  0.5815020000000  0.5286180000000  0.5245470000000 1.0
C      1  0.5683150000000  0.4608240000000  0.5287990000000 1.0
C      1  0.5626210000000  0.4771850000000  0.5512030000000 1.0
C      1  0.5316550000000  0.4448590000000  0.5690590000000 1.0
C      1  0.4626570000000  0.4747910000000  0.5300090000000 1.0
C      1  0.4178330000000  0.4555590000000  0.5172860000000 1.0
C      1  0.5469420000000  0.5649220000000  0.5283660000000 1.0
C      1  0.4200540000000  0.4948320000000  0.5455370000000 1.0
C      1  0.4140460000000  0.5057190000000  0.4924320000000 1.0
C      1  0.4648200000000  0.5121390000000  0.5549980000000 1.0
C      1  0.5857070000000  0.5170800000000  0.4849190000000 1.0
C      1  0.5792050000000  0.4761320000000  0.5073920000000 1.0
C      1  0.5165870000000  0.5388480000000  0.5371360000000 1.0
C      1  0.5060670000000  0.4065330000000  0.4822870000000 1.0
C      1  0.4404820000000  0.5481010000000  0.4982730000000 1.0
C      1  0.5345750000000  0.4667130000000  0.4392620000000 1.0
C      1  0.4852240000000  0.4356880000000  0.4345610000000 1.0
C      1  0.4890040000000  0.5094970000000  0.5060540000000 1.0
C      1  0.4998520000000  0.4094610000000  0.5097410000000 1.0
C      1  0.5408280000000  0.5340610000000  0.4505120000000 1.0
C      1  0.5489440000000  0.4665200000000  0.5728690000000 1.0
C      1  0.4802590000000  0.5344810000000  0.5638060000000 1.0
C      1  0.4619150000000  0.4975240000000  0.4741950000000 1.0
C      1  0.4361040000000  0.5166370000000  0.5407180000000 1.0
C      1  0.4780470000000  0.5692640000000  0.5278380000000 1.0
C      1  0.5052870000000  0.4290810000000  0.4577170000000 1.0
C      1  0.4811730000000  0.4364530000000  0.5465550000000 1.0
C      1  0.4959560000000  0.5837590000000  0.5111090000000 1.0
C      1  0.5431890000000  0.4443140000000  0.5229080000000 1.0
C      1  0.4613440000000  0.5000420000000  0.5034650000000 1.0
C      1  0.5467380000000  0.4506760000000  0.4803630000000 1.0
C      1  0.5212020000000  0.4648140000000  0.5105280000000 1.0
C      1  0.4829190000000  0.4904110000000  0.5412880000000 1.0
C      1  0.5662220000000  0.4723170000000  0.4822540000000 1.0
C      1  0.4501660000000  0.5698870000000  0.5146340000000 1.0
C      1  0.5793430000000  0.5425400000000  0.4967060000000 1.0
C      1  0.4952310000000  0.5167230000000  0.5818710000000 1.0
C      1  0.5010180000000  0.5193160000000  0.4831150000000 1.0
END
