TITL C-4164242-3624-624 6.12049215290872 125000 -8911.09420439239 0 0 61 (C1) n - 1
REM
REM in /home/nfs/bkarasulu/CARBON/AIRSS/Generating-Clusters/ReaxFF-fromJPCA2015/Units_Real/with-SteepDescent/Only-C1/SD-CG/Try1-3A/FIRE-CG
REM
REM
REM
REM
REM
REM ./C.cell (11c1c37f851c82e70ff6c80c92926a4b)
REM
REM compiler GCC version 9.2.1 20190827 (Red Hat 9.2.1-1)
REM options -cpp -mtune=generic -march=x86-64 -g -O0 -fpre-include=/usr/include/finclude/math-vector-fortran.h
REM seed 965674688 -1484173945 -706097273 852904185 1669366371 -1449152756 857820058 -714446832 782168222 1147916118 -718888047 1103580218 1304141179 1864753058 1745695867 1279328401 1322831358 -1527664048 -1019542800 429469098 -1165000749 349828751 1582947366 -921778777 -1867220355 -1991495721 -1506854925 714992400 1898079312 655675810 -2079768004 -923700823 -1525095630
REM
CELL 1.54180   50.00000   50.00000   50.00000   90.00000   90.00000   90.00000
LATT -1
SFAC C  
C      1  0.4970890000000  0.5102620000000  0.4583740000000 1.0
C      1  0.5076540000000  0.5671790000000  0.5037490000000 1.0
C      1  0.4619150000000  0.4224840000000  0.4878760000000 1.0
C      1  0.4618930000000  0.5235570000000  0.4997130000000 1.0
C      1  0.5407160000000  0.5305930000000  0.4483480000000 1.0
C      1  0.4628570000000  0.4516100000000  0.4832560000000 1.0
C      1  0.4780570000000  0.4658500000000  0.4617170000000 1.0
C      1  0.5637410000000  0.5069960000000  0.5322600000000 1.0
C      1  0.4802400000000  0.5670310000000  0.5201390000000 1.0
C      1  0.4523570000000  0.4689210000000  0.5056680000000 1.0
C      1  0.5758710000000  0.4841420000000  0.5174590000000 1.0
C      1  0.4907620000000  0.5150280000000  0.4866220000000 1.0
C      1  0.5198120000000  0.4992780000000  0.5665060000000 1.0
C      1  0.4586280000000  0.5553150000000  0.5036590000000 1.0
C      1  0.5181020000000  0.4346910000000  0.4630200000000 1.0
C      1  0.5322170000000  0.5808090000000  0.5235310000000 1.0
C      1  0.4758520000000  0.4284720000000  0.5368270000000 1.0
C      1  0.4366020000000  0.4951690000000  0.4713000000000 1.0
C      1  0.4894550000000  0.4925790000000  0.5630360000000 1.0
C      1  0.4809570000000  0.4676320000000  0.5512200000000 1.0
C      1  0.4686030000000  0.4763910000000  0.5260100000000 1.0
C      1  0.4723360000000  0.5114180000000  0.4423710000000 1.0
C      1  0.4652090000000  0.5401980000000  0.4443240000000 1.0
C      1  0.5249480000000  0.5430310000000  0.5088410000000 1.0
C      1  0.4445410000000  0.5693530000000  0.4812650000000 1.0
C      1  0.5413950000000  0.5546570000000  0.5320190000000 1.0
C      1  0.5594760000000  0.4501360000000  0.4823450000000 1.0
C      1  0.4767100000000  0.4132760000000  0.5128630000000 1.0
C      1  0.5328310000000  0.4558900000000  0.5222160000000 1.0
C      1  0.5079220000000  0.4996620000000  0.4975370000000 1.0
C      1  0.4669040000000  0.5033360000000  0.5229790000000 1.0
C      1  0.4534050000000  0.5343570000000  0.5542780000000 1.0
C      1  0.4835580000000  0.5550580000000  0.4594590000000 1.0
C      1  0.4418410000000  0.5463870000000  0.4616090000000 1.0
C      1  0.4598470000000  0.4878270000000  0.4542990000000 1.0
C      1  0.5510570000000  0.5354340000000  0.4955750000000 1.0
C      1  0.5297860000000  0.5089430000000  0.5888430000000 1.0
C      1  0.4295260000000  0.4863380000000  0.4989010000000 1.0
C      1  0.5455520000000  0.4276690000000  0.4748860000000 1.0
C      1  0.4240390000000  0.5054320000000  0.5206200000000 1.0
C      1  0.5038880000000  0.5665260000000  0.4728920000000 1.0
C      1  0.4952930000000  0.4413450000000  0.5519540000000 1.0
C      1  0.5067910000000  0.4161080000000  0.5111090000000 1.0
C      1  0.5556280000000  0.5199290000000  0.4705510000000 1.0
C      1  0.4315370000000  0.5219350000000  0.5395730000000 1.0
C      1  0.4702070000000  0.5546770000000  0.5432640000000 1.0
C      1  0.5585790000000  0.4648260000000  0.5284010000000 1.0
C      1  0.4755200000000  0.5139850000000  0.5492170000000 1.0
C      1  0.4390730000000  0.5226170000000  0.4794470000000 1.0
C      1  0.5229010000000  0.4856470000000  0.5165890000000 1.0
C      1  0.5282100000000  0.5633380000000  0.4266480000000 1.0
C      1  0.5073930000000  0.4614080000000  0.4586150000000 1.0
C      1  0.5193990000000  0.4158410000000  0.4847620000000 1.0
C      1  0.5233510000000  0.5071500000000  0.4435670000000 1.0
C      1  0.5533350000000  0.4904290000000  0.4693460000000 1.0
C      1  0.5363850000000  0.4990030000000  0.5393750000000 1.0
C      1  0.5634180000000  0.5349820000000  0.5219730000000 1.0
C      1  0.5707920000000  0.4746610000000  0.4884830000000 1.0
C      1  0.5298180000000  0.4809140000000  0.4539690000000 1.0
C      1  0.5169570000000  0.4335050000000  0.5325730000000 1.0
C      1  0.5272600000000  0.5587820000000  0.4521740000000 1.0
END
