TITL C-4164244-2836-40 56.2934438910199 125000 -23856.721427436 0 0 163 (C1) n - 1
REM
REM in /home/nfs/bkarasulu/CARBON/AIRSS/Generating-Clusters/ReaxFF-fromJPCA2015/Units_Real/with-SteepDescent/Only-C1/SD-CG/Try1-3A/FIRE-CG
REM
REM
REM
REM
REM
REM ./C.cell (11c1c37f851c82e70ff6c80c92926a4b)
REM
REM compiler GCC version 9.2.1 20190827 (Red Hat 9.2.1-1)
REM options -cpp -mtune=generic -march=x86-64 -g -O0 -fpre-include=/usr/include/finclude/math-vector-fortran.h
REM seed -1137412980 932135214 -1936616877 -308167676 1686010760 776756652 37118416 -471136281 -1806175387 -1880133541 -1996098167 103087686 -1430040032 907813923 561592973 -926058692 1265280690 1693098542 -9674307 809874936 649030282 -332667489 1445933343 -1997434894 587967142 69015455 -1147791484 1411651083 -628073943 835567875 538143642 -1193632800 1241443216
REM
CELL 1.54180   50.00000   50.00000   50.00000   90.00000   90.00000   90.00000
LATT -1
SFAC C  
C      1  0.4908960000000  0.5307340000000  0.6107840000000 1.0
C      1  0.4746130000000  0.5373110000000  0.4718710000000 1.0
C      1  0.4189140000000  0.5794500000000  0.5270830000000 1.0
C      1  0.5586770000000  0.5970430000000  0.5177790000000 1.0
C      1  0.4608190000000  0.5685800000000  0.4611470000000 1.0
C      1  0.5006730000000  0.4371320000000  0.4094780000000 1.0
C      1  0.4858060000000  0.5697870000000  0.4199290000000 1.0
C      1  0.5026640000000  0.5918150000000  0.4571460000000 1.0
C      1  0.5520260000000  0.4455770000000  0.4237780000000 1.0
C      1  0.5687170000000  0.5847090000000  0.4641850000000 1.0
C      1  0.4524870000000  0.5253670000000  0.4135110000000 1.0
C      1  0.4782060000000  0.4759390000000  0.4254430000000 1.0
C      1  0.5758620000000  0.5616060000000  0.4839730000000 1.0
C      1  0.5734830000000  0.5266600000000  0.4468640000000 1.0
C      1  0.4598240000000  0.4619500000000  0.5819480000000 1.0
C      1  0.4788760000000  0.4844350000000  0.4653190000000 1.0
C      1  0.4257770000000  0.4956380000000  0.5234020000000 1.0
C      1  0.5641210000000  0.4676960000000  0.5401500000000 1.0
C      1  0.5490150000000  0.6053600000000  0.4719460000000 1.0
C      1  0.4366010000000  0.4123910000000  0.4767530000000 1.0
C      1  0.4725910000000  0.4070360000000  0.4556940000000 1.0
C      1  0.4635630000000  0.4617780000000  0.5071920000000 1.0
C      1  0.4255720000000  0.5334260000000  0.5461130000000 1.0
C      1  0.5353510000000  0.5356230000000  0.4674060000000 1.0
C      1  0.4987970000000  0.5026160000000  0.5552150000000 1.0
C      1  0.4980130000000  0.5724010000000  0.5592390000000 1.0
C      1  0.5195780000000  0.5321380000000  0.6085460000000 1.0
C      1  0.4608440000000  0.3974150000000  0.4808620000000 1.0
C      1  0.3984610000000  0.4601580000000  0.5013700000000 1.0
C      1  0.4817740000000  0.5212840000000  0.4165640000000 1.0
C      1  0.5013110000000  0.4874370000000  0.3911710000000 1.0
C      1  0.4924600000000  0.4315960000000  0.4587770000000 1.0
C      1  0.4947350000000  0.4985500000000  0.4306540000000 1.0
C      1  0.4121990000000  0.4498990000000  0.4499740000000 1.0
C      1  0.3857960000000  0.4859120000000  0.5108050000000 1.0
C      1  0.4447900000000  0.5300250000000  0.5901850000000 1.0
C      1  0.4838810000000  0.4083990000000  0.5485600000000 1.0
C      1  0.5129470000000  0.4097770000000  0.4468480000000 1.0
C      1  0.4215950000000  0.5244350000000  0.5761210000000 1.0
C      1  0.5901380000000  0.4241990000000  0.4463830000000 1.0
C      1  0.5125510000000  0.6076860000000  0.5100550000000 1.0
C      1  0.4641360000000  0.5097800000000  0.4635260000000 1.0
C      1  0.5694390000000  0.5626870000000  0.5356330000000 1.0
C      1  0.4724270000000  0.4409190000000  0.5041690000000 1.0
C      1  0.5080150000000  0.4771970000000  0.6029300000000 1.0
C      1  0.4147360000000  0.4897700000000  0.4585300000000 1.0
C      1  0.5001330000000  0.5066340000000  0.5053700000000 1.0
C      1  0.5860910000000  0.5013360000000  0.5424130000000 1.0
C      1  0.5510020000000  0.5456770000000  0.4379350000000 1.0
C      1  0.5594410000000  0.5749820000000  0.5518720000000 1.0
C      1  0.4728270000000  0.4409890000000  0.4053990000000 1.0
C      1  0.5034100000000  0.5709410000000  0.4770840000000 1.0
C      1  0.5912930000000  0.4352920000000  0.4993230000000 1.0
C      1  0.5138560000000  0.5454260000000  0.5541660000000 1.0
C      1  0.5440430000000  0.5093780000000  0.4779010000000 1.0
C      1  0.4324110000000  0.5385440000000  0.4266640000000 1.0
C      1  0.4583360000000  0.5976180000000  0.5081500000000 1.0
C      1  0.5057560000000  0.5054350000000  0.6117920000000 1.0
C      1  0.5670360000000  0.5007330000000  0.4342190000000 1.0
C      1  0.5299800000000  0.4863360000000  0.4696940000000 1.0
C      1  0.4230240000000  0.5329440000000  0.4719700000000 1.0
C      1  0.4522390000000  0.4882110000000  0.5110620000000 1.0
C      1  0.5257880000000  0.4415370000000  0.4161040000000 1.0
C      1  0.5099450000000  0.5768060000000  0.5077010000000 1.0
C      1  0.5357620000000  0.4016000000000  0.5594170000000 1.0
C      1  0.5265880000000  0.3974130000000  0.5304120000000 1.0
C      1  0.5316080000000  0.5966170000000  0.4497490000000 1.0
C      1  0.5741740000000  0.4220480000000  0.5459600000000 1.0
C      1  0.5047830000000  0.4320120000000  0.5523160000000 1.0
C      1  0.5033100000000  0.5454610000000  0.4631560000000 1.0
C      1  0.4044030000000  0.4644130000000  0.4715030000000 1.0
C      1  0.5734470000000  0.4648340000000  0.5724070000000 1.0
C      1  0.5226750000000  0.5420760000000  0.5285510000000 1.0
C      1  0.4162060000000  0.4438230000000  0.5175400000000 1.0
C      1  0.4536560000000  0.5692870000000  0.5553830000000 1.0
C      1  0.4563070000000  0.4182680000000  0.5504260000000 1.0
C      1  0.5092940000000  0.4372680000000  0.4836450000000 1.0
C      1  0.5270430000000  0.4386030000000  0.5318750000000 1.0
C      1  0.4787190000000  0.5840430000000  0.4426960000000 1.0
C      1  0.4544930000000  0.4907210000000  0.5796040000000 1.0
C      1  0.4460480000000  0.5886820000000  0.5335590000000 1.0
C      1  0.4030120000000  0.5341700000000  0.4918210000000 1.0
C      1  0.4689410000000  0.5350760000000  0.5003460000000 1.0
C      1  0.4562680000000  0.5400260000000  0.5470910000000 1.0
C      1  0.5356420000000  0.4704300000000  0.5917450000000 1.0
C      1  0.5209110000000  0.5899010000000  0.5749610000000 1.0
C      1  0.5546160000000  0.4417510000000  0.5359960000000 1.0
C      1  0.4975250000000  0.5162380000000  0.3896370000000 1.0
C      1  0.5238040000000  0.4645680000000  0.5214880000000 1.0
C      1  0.5221610000000  0.5219460000000  0.5128720000000 1.0
C      1  0.4954660000000  0.5461510000000  0.4297420000000 1.0
C      1  0.5910120000000  0.5122540000000  0.4912650000000 1.0
C      1  0.5432470000000  0.5727320000000  0.5771900000000 1.0
C      1  0.4028650000000  0.5106190000000  0.5113600000000 1.0
C      1  0.4325360000000  0.5542150000000  0.4522370000000 1.0
C      1  0.5951730000000  0.4644060000000  0.5032150000000 1.0
C      1  0.5773810000000  0.5762760000000  0.5145520000000 1.0
C      1  0.4706830000000  0.5083430000000  0.5607280000000 1.0
C      1  0.5408270000000  0.4139260000000  0.4546940000000 1.0
C      1  0.5426800000000  0.4636630000000  0.4596810000000 1.0
C      1  0.5533490000000  0.4480030000000  0.5844100000000 1.0
C      1  0.4478770000000  0.5854560000000  0.4825100000000 1.0
C      1  0.5948680000000  0.4843740000000  0.4820080000000 1.0
C      1  0.5068040000000  0.4616610000000  0.4997740000000 1.0
C      1  0.5365010000000  0.5435400000000  0.5875010000000 1.0
C      1  0.5285570000000  0.5029850000000  0.5578400000000 1.0
C      1  0.4257840000000  0.4956880000000  0.5749040000000 1.0
C      1  0.4363570000000  0.5071020000000  0.4699720000000 1.0
C      1  0.4223940000000  0.4857900000000  0.4309720000000 1.0
C      1  0.4252590000000  0.4537290000000  0.5446570000000 1.0
C      1  0.5649680000000  0.4715040000000  0.4419880000000 1.0
C      1  0.5412590000000  0.6114970000000  0.5008710000000 1.0
C      1  0.5052560000000  0.4860980000000  0.4851330000000 1.0
C      1  0.4725600000000  0.5497540000000  0.5240720000000 1.0
C      1  0.4968020000000  0.3970100000000  0.5259960000000 1.0
C      1  0.4912800000000  0.4563660000000  0.5566020000000 1.0
C      1  0.4824970000000  0.4818880000000  0.5486460000000 1.0
C      1  0.5916950000000  0.4738970000000  0.4547840000000 1.0
C      1  0.5410250000000  0.4860930000000  0.5305880000000 1.0
C      1  0.5777060000000  0.5141910000000  0.5177640000000 1.0
C      1  0.4294520000000  0.5111190000000  0.4177230000000 1.0
C      1  0.4897030000000  0.5715670000000  0.5293250000000 1.0
C      1  0.4687220000000  0.5445960000000  0.5947890000000 1.0
C      1  0.6031840000000  0.4477320000000  0.4534440000000 1.0
C      1  0.4011140000000  0.5651270000000  0.4929560000000 1.0
C      1  0.4782500000000  0.4687450000000  0.3966720000000 1.0
C      1  0.4844750000000  0.6131620000000  0.5069830000000 1.0
C      1  0.6007860000000  0.4280010000000  0.4731490000000 1.0
C      1  0.4729720000000  0.5676430000000  0.5764070000000 1.0
C      1  0.5851960000000  0.5335560000000  0.4721730000000 1.0
C      1  0.5487380000000  0.5076600000000  0.5085360000000 1.0
C      1  0.5355130000000  0.4380970000000  0.4711990000000 1.0
C      1  0.5631080000000  0.4218740000000  0.4362190000000 1.0
C      1  0.5553290000000  0.4205340000000  0.5693770000000 1.0
C      1  0.5177000000000  0.5371880000000  0.3935560000000 1.0
C      1  0.5769930000000  0.4154540000000  0.5167800000000 1.0
C      1  0.4216550000000  0.5764160000000  0.4739250000000 1.0
C      1  0.4466330000000  0.4437940000000  0.5619250000000 1.0
C      1  0.4724610000000  0.5090280000000  0.5119190000000 1.0
C      1  0.5100830000000  0.5613170000000  0.4083470000000 1.0
C      1  0.5919690000000  0.4757820000000  0.5300290000000 1.0
C      1  0.4753780000000  0.4082170000000  0.5064390000000 1.0
C      1  0.5447160000000  0.5050450000000  0.4160810000000 1.0
C      1  0.5734280000000  0.4936020000000  0.5694150000000 1.0
C      1  0.4198440000000  0.4817980000000  0.5488850000000 1.0
C      1  0.4799180000000  0.4604130000000  0.4497660000000 1.0
C      1  0.4494640000000  0.4097510000000  0.5232050000000 1.0
C      1  0.4081440000000  0.5581820000000  0.5437470000000 1.0
C      1  0.5359560000000  0.5596660000000  0.5138030000000 1.0
C      1  0.4299090000000  0.4214520000000  0.5044820000000 1.0
C      1  0.5462810000000  0.4947530000000  0.5795490000000 1.0
C      1  0.4259870000000  0.4557530000000  0.4262840000000 1.0
C      1  0.5184030000000  0.4900820000000  0.4151990000000 1.0
C      1  0.5023870000000  0.4442600000000  0.5792410000000 1.0
C      1  0.4475890000000  0.4192540000000  0.4473610000000 1.0
C      1  0.5521780000000  0.5761220000000  0.4420200000000 1.0
C      1  0.4489180000000  0.4370270000000  0.4245640000000 1.0
C      1  0.5479510000000  0.5523500000000  0.4884120000000 1.0
C      1  0.5323490000000  0.5302210000000  0.5646350000000 1.0
C      1  0.4853350000000  0.4589980000000  0.5965370000000 1.0
C      1  0.5407490000000  0.5332360000000  0.4112020000000 1.0
C      1  0.4258300000000  0.5520440000000  0.5246430000000 1.0
C      1  0.5488170000000  0.4087550000000  0.5154570000000 1.0
END
