TITL C-4164246-3563-69 9.95269430853966 125000 -17915.1284019446 0 0 122 (C1) n - 1
REM
REM in /home/nfs/bkarasulu/CARBON/AIRSS/Generating-Clusters/ReaxFF-fromJPCA2015/Units_Real/with-SteepDescent/Only-C1/SD-CG/Try1-3A/FIRE-CG
REM
REM
REM
REM
REM
REM ./C.cell (11c1c37f851c82e70ff6c80c92926a4b)
REM
REM compiler GCC version 9.2.1 20190827 (Red Hat 9.2.1-1)
REM options -cpp -mtune=generic -march=x86-64 -g -O0 -fpre-include=/usr/include/finclude/math-vector-fortran.h
REM seed 520500795 964000778 585113967 641633435 949068154 1587956041 1618307975 -874356313 1423684665 1496004190 1009301786 -1499690571 -1173495854 -1643303641 2069617304 1956003837 965886416 -241968426 -363437825 -1380834839 -972920053 -1268452101 1584303986 1149243273 2136321855 1820478205 -251985063 -1552767282 -663826874 596292907 -1886083804 1104068548 1078969136
REM
CELL 1.54180   50.00000   50.00000   50.00000   90.00000   90.00000   90.00000
LATT -1
SFAC C  
C      1  0.5462340000000  0.5011480000000  0.5403030000000 1.0
C      1  0.4794500000000  0.4020690000000  0.4717080000000 1.0
C      1  0.4494040000000  0.4589700000000  0.5622230000000 1.0
C      1  0.4825470000000  0.5942170000000  0.5186420000000 1.0
C      1  0.5707380000000  0.4854600000000  0.5440220000000 1.0
C      1  0.4022690000000  0.5036360000000  0.4894160000000 1.0
C      1  0.4604110000000  0.5650190000000  0.5539810000000 1.0
C      1  0.5125590000000  0.4805350000000  0.5602880000000 1.0
C      1  0.4406390000000  0.5977210000000  0.5142630000000 1.0
C      1  0.5858000000000  0.5355540000000  0.5129590000000 1.0
C      1  0.4591750000000  0.4155090000000  0.4544030000000 1.0
C      1  0.4851200000000  0.4812540000000  0.5711560000000 1.0
C      1  0.4580230000000  0.4760210000000  0.4749340000000 1.0
C      1  0.5518430000000  0.4441760000000  0.4331830000000 1.0
C      1  0.5577840000000  0.4992530000000  0.4242230000000 1.0
C      1  0.5353700000000  0.5394930000000  0.5783360000000 1.0
C      1  0.4051260000000  0.4901070000000  0.4635680000000 1.0
C      1  0.5146390000000  0.4704450000000  0.5329650000000 1.0
C      1  0.4766620000000  0.4522670000000  0.5717710000000 1.0
C      1  0.5332680000000  0.4975090000000  0.5658730000000 1.0
C      1  0.5481580000000  0.5098700000000  0.4789250000000 1.0
C      1  0.4814880000000  0.5191400000000  0.4860250000000 1.0
C      1  0.4877300000000  0.5450120000000  0.4132180000000 1.0
C      1  0.5772800000000  0.4621380000000  0.4992860000000 1.0
C      1  0.4614500000000  0.4539180000000  0.4194430000000 1.0
C      1  0.4943210000000  0.4438880000000  0.4835530000000 1.0
C      1  0.4735600000000  0.4313430000000  0.4319220000000 1.0
C      1  0.4166440000000  0.4873230000000  0.5099740000000 1.0
C      1  0.5561540000000  0.4218210000000  0.4854730000000 1.0
C      1  0.4178390000000  0.5432490000000  0.5109170000000 1.0
C      1  0.5881210000000  0.5171200000000  0.4679960000000 1.0
C      1  0.5032440000000  0.5031550000000  0.4988670000000 1.0
C      1  0.5821170000000  0.5803790000000  0.4833920000000 1.0
C      1  0.4584240000000  0.5219450000000  0.5059830000000 1.0
C      1  0.5835530000000  0.5448650000000  0.4604220000000 1.0
C      1  0.4322620000000  0.4381540000000  0.5096650000000 1.0
C      1  0.5089000000000  0.5645210000000  0.4911630000000 1.0
C      1  0.4976550000000  0.4047900000000  0.5218500000000 1.0
C      1  0.4536120000000  0.4250690000000  0.4950120000000 1.0
C      1  0.5101280000000  0.4273290000000  0.5020690000000 1.0
C      1  0.5822050000000  0.4862250000000  0.5146880000000 1.0
C      1  0.5672080000000  0.4364320000000  0.5078950000000 1.0
C      1  0.5300450000000  0.4164700000000  0.4838830000000 1.0
C      1  0.5106980000000  0.5881050000000  0.5258890000000 1.0
C      1  0.4534060000000  0.5257650000000  0.5654800000000 1.0
C      1  0.5067470000000  0.4534760000000  0.4625020000000 1.0
C      1  0.4192300000000  0.5314100000000  0.5376120000000 1.0
C      1  0.5176680000000  0.5724910000000  0.4454670000000 1.0
C      1  0.5583800000000  0.4720830000000  0.4302640000000 1.0
C      1  0.5621650000000  0.5341970000000  0.5626740000000 1.0
C      1  0.5040260000000  0.4329850000000  0.4401860000000 1.0
C      1  0.5001080000000  0.5490750000000  0.4514350000000 1.0
C      1  0.4764180000000  0.5209920000000  0.4063210000000 1.0
C      1  0.5088860000000  0.4064000000000  0.4617220000000 1.0
C      1  0.4475630000000  0.5535150000000  0.4541310000000 1.0
C      1  0.4510110000000  0.4512290000000  0.5317690000000 1.0
C      1  0.4456210000000  0.5479850000000  0.5023670000000 1.0
C      1  0.5181100000000  0.5559360000000  0.5212730000000 1.0
C      1  0.4678860000000  0.4506580000000  0.4860650000000 1.0
C      1  0.5395070000000  0.5285860000000  0.4598270000000 1.0
C      1  0.4543290000000  0.5120250000000  0.5380890000000 1.0
C      1  0.4096100000000  0.5313050000000  0.4851520000000 1.0
C      1  0.4875110000000  0.5517740000000  0.5576940000000 1.0
C      1  0.5448200000000  0.4833710000000  0.4692740000000 1.0
C      1  0.5398550000000  0.5356270000000  0.5222800000000 1.0
C      1  0.5373470000000  0.4184560000000  0.5526590000000 1.0
C      1  0.4504200000000  0.4982860000000  0.4390160000000 1.0
C      1  0.4754540000000  0.4928000000000  0.5383980000000 1.0
C      1  0.4715110000000  0.4975170000000  0.4600550000000 1.0
C      1  0.4741020000000  0.5011040000000  0.5916910000000 1.0
C      1  0.5273350000000  0.4346430000000  0.4200180000000 1.0
C      1  0.4066590000000  0.4612180000000  0.4710580000000 1.0
C      1  0.5223640000000  0.5841450000000  0.4727880000000 1.0
C      1  0.5326090000000  0.4431780000000  0.5671530000000 1.0
C      1  0.5163560000000  0.5117590000000  0.6131060000000 1.0
C      1  0.5317830000000  0.5105470000000  0.5023090000000 1.0
C      1  0.5160580000000  0.4802350000000  0.4668520000000 1.0
C      1  0.5595000000000  0.4334180000000  0.5360260000000 1.0
C      1  0.4754340000000  0.4364760000000  0.5320690000000 1.0
C      1  0.5473300000000  0.6192400000000  0.5429250000000 1.0
C      1  0.5566730000000  0.5476320000000  0.4478410000000 1.0
C      1  0.4701720000000  0.4119630000000  0.5174840000000 1.0
C      1  0.5876320000000  0.5103330000000  0.5000150000000 1.0
C      1  0.4829650000000  0.4942860000000  0.4016130000000 1.0
C      1  0.5011860000000  0.4366320000000  0.5653230000000 1.0
C      1  0.4625220000000  0.5910080000000  0.4949090000000 1.0
C      1  0.4633830000000  0.4750410000000  0.5186780000000 1.0
C      1  0.5381170000000  0.5597830000000  0.4284300000000 1.0
C      1  0.4964980000000  0.5380550000000  0.5334980000000 1.0
C      1  0.4254400000000  0.5337070000000  0.4601820000000 1.0
C      1  0.4932940000000  0.5228860000000  0.5984290000000 1.0
C      1  0.5760380000000  0.5059950000000  0.4453440000000 1.0
C      1  0.4474510000000  0.4905060000000  0.4993670000000 1.0
C      1  0.4463630000000  0.5030300000000  0.5830370000000 1.0
C      1  0.5657200000000  0.5423140000000  0.5329090000000 1.0
C      1  0.4137550000000  0.4580230000000  0.5001940000000 1.0
C      1  0.4658920000000  0.5525280000000  0.4311120000000 1.0
C      1  0.5670460000000  0.4639900000000  0.4713160000000 1.0
C      1  0.5081450000000  0.4130770000000  0.5484230000000 1.0
C      1  0.4949800000000  0.5108450000000  0.5257890000000 1.0
C      1  0.4606110000000  0.5895880000000  0.5371440000000 1.0
C      1  0.4534560000000  0.5658920000000  0.4806580000000 1.0
C      1  0.5061080000000  0.5427490000000  0.5787490000000 1.0
C      1  0.5555580000000  0.4559390000000  0.5527650000000 1.0
C      1  0.5771930000000  0.5090850000000  0.5637560000000 1.0
C      1  0.5344550000000  0.4869470000000  0.5195780000000 1.0
C      1  0.5894070000000  0.5564280000000  0.4888400000000 1.0
C      1  0.5003900000000  0.4480630000000  0.5228200000000 1.0
C      1  0.5026790000000  0.4989320000000  0.4476530000000 1.0
C      1  0.4350990000000  0.4837670000000  0.5641210000000 1.0
C      1  0.5137650000000  0.5250780000000  0.4498370000000 1.0
C      1  0.5591270000000  0.4372830000000  0.4624370000000 1.0
C      1  0.4363200000000  0.5472200000000  0.5556510000000 1.0
C      1  0.5210130000000  0.5405390000000  0.4140810000000 1.0
C      1  0.4250140000000  0.5014610000000  0.5393920000000 1.0
C      1  0.4909220000000  0.5464200000000  0.4782020000000 1.0
C      1  0.4239760000000  0.5077510000000  0.4477940000000 1.0
C      1  0.5298290000000  0.6044380000000  0.5348060000000 1.0
C      1  0.4581920000000  0.4833590000000  0.4142930000000 1.0
C      1  0.5376180000000  0.5134380000000  0.5907470000000 1.0
C      1  0.5084450000000  0.4947480000000  0.4164910000000 1.0
C      1  0.5305720000000  0.5127060000000  0.4128610000000 1.0
END
