TITL C-4164233-775-503 45.9720225416381 125000 -22852.5433599382 0 0 152 (C1) n - 1
REM
REM in /home/nfs/bkarasulu/CARBON/AIRSS/Generating-Clusters/ReaxFF-fromJPCA2015/Units_Real/with-SteepDescent/Only-C1/SD-CG/Try1-3A/FIRE-CG
REM
REM
REM
REM
REM
REM ./C.cell (11c1c37f851c82e70ff6c80c92926a4b)
REM
REM compiler GCC version 9.2.1 20190827 (Red Hat 9.2.1-1)
REM options -cpp -mtune=generic -march=x86-64 -g -O0 -fpre-include=/usr/include/finclude/math-vector-fortran.h
REM seed 894027888 1787406451 510553736 -2108507192 1955172117 -1056667025 1957897081 -1318656503 -1186738913 1821367223 418851765 497661705 1521726476 1636460297 -1219989467 -300766695 546389342 2015756247 -1056585596 890507772 1537892359 2003800412 1886620204 848992319 -1003233394 -200771896 1495842540 725835514 -1908394366 -1650637937 1526213085 -405215686 1243058434
REM
CELL 1.54180   50.00000   50.00000   50.00000   90.00000   90.00000   90.00000
LATT -1
SFAC C  
C      1  0.5676760000000  0.4393440000000  0.5420010000000 1.0
C      1  0.5022880000000  0.5974130000000  0.5294390000000 1.0
C      1  0.5637140000000  0.5214920000000  0.4835120000000 1.0
C      1  0.4752370000000  0.4647450000000  0.5382570000000 1.0
C      1  0.4728660000000  0.4640940000000  0.5102130000000 1.0
C      1  0.5659190000000  0.4252020000000  0.4882840000000 1.0
C      1  0.5570990000000  0.5883230000000  0.5050500000000 1.0
C      1  0.5469360000000  0.4350450000000  0.5621800000000 1.0
C      1  0.4164090000000  0.5512270000000  0.4682180000000 1.0
C      1  0.4706340000000  0.5164230000000  0.4696240000000 1.0
C      1  0.4810800000000  0.4210900000000  0.4553390000000 1.0
C      1  0.4411720000000  0.5611010000000  0.5550300000000 1.0
C      1  0.4375530000000  0.4801210000000  0.4358120000000 1.0
C      1  0.4456050000000  0.5059450000000  0.4785080000000 1.0
C      1  0.4090700000000  0.5040140000000  0.5092070000000 1.0
C      1  0.5697230000000  0.4401690000000  0.4440960000000 1.0
C      1  0.4934050000000  0.5796840000000  0.4340050000000 1.0
C      1  0.5379260000000  0.4640390000000  0.4647580000000 1.0
C      1  0.4232440000000  0.5001830000000  0.4590970000000 1.0
C      1  0.5182130000000  0.5756960000000  0.4176030000000 1.0
C      1  0.4255090000000  0.4914070000000  0.5783480000000 1.0
C      1  0.5840470000000  0.5115900000000  0.5565930000000 1.0
C      1  0.4777110000000  0.5583950000000  0.4447870000000 1.0
C      1  0.4283000000000  0.4525680000000  0.4292910000000 1.0
C      1  0.4071190000000  0.4693570000000  0.5009180000000 1.0
C      1  0.4412830000000  0.5423920000000  0.5036750000000 1.0
C      1  0.4929500000000  0.4824360000000  0.4544010000000 1.0
C      1  0.4479510000000  0.4511530000000  0.4703680000000 1.0
C      1  0.5966130000000  0.5389650000000  0.5161880000000 1.0
C      1  0.5318050000000  0.5238060000000  0.5618400000000 1.0
C      1  0.5045000000000  0.5979950000000  0.5003850000000 1.0
C      1  0.4657440000000  0.5534110000000  0.4969210000000 1.0
C      1  0.4396710000000  0.5861370000000  0.5132760000000 1.0
C      1  0.3925240000000  0.5268980000000  0.5089150000000 1.0
C      1  0.4376860000000  0.5702790000000  0.4644440000000 1.0
C      1  0.5978660000000  0.5445660000000  0.4749480000000 1.0
C      1  0.5372990000000  0.4803740000000  0.4866250000000 1.0
C      1  0.6036980000000  0.4723720000000  0.4970970000000 1.0
C      1  0.5143400000000  0.4885030000000  0.5388190000000 1.0
C      1  0.4604190000000  0.4133110000000  0.5017190000000 1.0
C      1  0.4025740000000  0.4824740000000  0.4758370000000 1.0
C      1  0.4892280000000  0.4834910000000  0.3993990000000 1.0
C      1  0.5158320000000  0.4708700000000  0.3941250000000 1.0
C      1  0.5616910000000  0.4951070000000  0.4381030000000 1.0
C      1  0.4982840000000  0.5048270000000  0.5224750000000 1.0
C      1  0.5385350000000  0.5760620000000  0.4391850000000 1.0
C      1  0.5431280000000  0.5474190000000  0.4385530000000 1.0
C      1  0.4583290000000  0.5181220000000  0.4156430000000 1.0
C      1  0.4675070000000  0.4535020000000  0.5910340000000 1.0
C      1  0.4316540000000  0.4477250000000  0.5266500000000 1.0
C      1  0.4640600000000  0.4651720000000  0.4500230000000 1.0
C      1  0.5426770000000  0.4557380000000  0.5824820000000 1.0
C      1  0.5828790000000  0.4400840000000  0.4698320000000 1.0
C      1  0.5222040000000  0.4617570000000  0.5020140000000 1.0
C      1  0.5482860000000  0.5368670000000  0.4122030000000 1.0
C      1  0.4219080000000  0.4641430000000  0.5695640000000 1.0
C      1  0.5587460000000  0.5538620000000  0.5397410000000 1.0
C      1  0.5215130000000  0.5429210000000  0.5042180000000 1.0
C      1  0.5588920000000  0.5143430000000  0.5102740000000 1.0
C      1  0.4704700000000  0.4801500000000  0.6008990000000 1.0
C      1  0.4700120000000  0.3906590000000  0.4845750000000 1.0
C      1  0.4519440000000  0.4474830000000  0.4127310000000 1.0
C      1  0.4032550000000  0.4538090000000  0.4760180000000 1.0
C      1  0.5119330000000  0.4561510000000  0.4565080000000 1.0
C      1  0.5271760000000  0.5536250000000  0.3987550000000 1.0
C      1  0.5128760000000  0.5439590000000  0.5545370000000 1.0
C      1  0.5294340000000  0.4230250000000  0.4226590000000 1.0
C      1  0.5523510000000  0.5816820000000  0.5338490000000 1.0
C      1  0.4484670000000  0.5094630000000  0.5387900000000 1.0
C      1  0.5424950000000  0.5348410000000  0.5236180000000 1.0
C      1  0.4878470000000  0.4977130000000  0.4767850000000 1.0
C      1  0.4800560000000  0.5297610000000  0.5830040000000 1.0
C      1  0.4238250000000  0.4432340000000  0.4567780000000 1.0
C      1  0.4772270000000  0.4305320000000  0.5430950000000 1.0
C      1  0.5231060000000  0.4431120000000  0.4019420000000 1.0
C      1  0.5005540000000  0.5350890000000  0.5268600000000 1.0
C      1  0.5184110000000  0.5949550000000  0.5732680000000 1.0
C      1  0.5011660000000  0.4827660000000  0.6060880000000 1.0
C      1  0.5498980000000  0.5085620000000  0.4617130000000 1.0
C      1  0.5782370000000  0.5468640000000  0.4886360000000 1.0
C      1  0.5650160000000  0.4733410000000  0.5764500000000 1.0
C      1  0.4439120000000  0.4455430000000  0.5748290000000 1.0
C      1  0.6120590000000  0.5191460000000  0.4738530000000 1.0
C      1  0.5932250000000  0.4876740000000  0.5430480000000 1.0
C      1  0.4163650000000  0.4674270000000  0.5405620000000 1.0
C      1  0.5106700000000  0.4349660000000  0.5002610000000 1.0
C      1  0.4556220000000  0.5385830000000  0.5424080000000 1.0
C      1  0.4544890000000  0.5832440000000  0.4866970000000 1.0
C      1  0.4732090000000  0.4411840000000  0.4320400000000 1.0
C      1  0.5838830000000  0.5379260000000  0.5419430000000 1.0
C      1  0.4461060000000  0.4928790000000  0.4100190000000 1.0
C      1  0.5127050000000  0.5389730000000  0.4779890000000 1.0
C      1  0.4787140000000  0.5930980000000  0.5464170000000 1.0
C      1  0.5076430000000  0.4428850000000  0.4271420000000 1.0
C      1  0.4470420000000  0.4345690000000  0.5481400000000 1.0
C      1  0.5221470000000  0.5013080000000  0.6016680000000 1.0
C      1  0.3985740000000  0.5140160000000  0.5339720000000 1.0
C      1  0.4481090000000  0.4984050000000  0.5953820000000 1.0
C      1  0.4519960000000  0.4440590000000  0.4994220000000 1.0
C      1  0.5282630000000  0.5931650000000  0.4607880000000 1.0
C      1  0.4376590000000  0.5141360000000  0.5056040000000 1.0
C      1  0.4536710000000  0.5282400000000  0.5963370000000 1.0
C      1  0.4850290000000  0.4895630000000  0.5024610000000 1.0
C      1  0.5279140000000  0.5946180000000  0.5445470000000 1.0
C      1  0.4872290000000  0.5089570000000  0.4151350000000 1.0
C      1  0.4203010000000  0.5289690000000  0.4498700000000 1.0
C      1  0.4429870000000  0.5490320000000  0.5803460000000 1.0
C      1  0.4814410000000  0.4099410000000  0.5197750000000 1.0
C      1  0.4412570000000  0.5361290000000  0.4316060000000 1.0
C      1  0.4695130000000  0.4906480000000  0.5504670000000 1.0
C      1  0.4690680000000  0.3967430000000  0.4575510000000 1.0
C      1  0.5036490000000  0.5059830000000  0.4385640000000 1.0
C      1  0.6116430000000  0.5179950000000  0.5043410000000 1.0
C      1  0.4223610000000  0.5625420000000  0.5124790000000 1.0
C      1  0.5550450000000  0.5069370000000  0.4117090000000 1.0
C      1  0.4030790000000  0.5499410000000  0.4946190000000 1.0
C      1  0.4514240000000  0.5858610000000  0.5394990000000 1.0
C      1  0.6073930000000  0.4903070000000  0.5169760000000 1.0
C      1  0.5229430000000  0.3977960000000  0.4857230000000 1.0
C      1  0.5388930000000  0.4897120000000  0.3946720000000 1.0
C      1  0.6022660000000  0.4641060000000  0.4722180000000 1.0
C      1  0.4944430000000  0.4416340000000  0.5867500000000 1.0
C      1  0.4908590000000  0.5833380000000  0.5718580000000 1.0
C      1  0.5008060000000  0.4340930000000  0.4731030000000 1.0
C      1  0.4986790000000  0.4254740000000  0.5631590000000 1.0
C      1  0.5674770000000  0.5023650000000  0.5787190000000 1.0
C      1  0.4985470000000  0.5967750000000  0.4576250000000 1.0
C      1  0.4980220000000  0.3939390000000  0.4997710000000 1.0
C      1  0.5240640000000  0.4223560000000  0.5493080000000 1.0
C      1  0.5458810000000  0.4099560000000  0.4722910000000 1.0
C      1  0.5564940000000  0.4669270000000  0.4425210000000 1.0
C      1  0.5244430000000  0.5252710000000  0.4534130000000 1.0
C      1  0.5345720000000  0.4728850000000  0.5256640000000 1.0
C      1  0.4754230000000  0.5481620000000  0.5227960000000 1.0
C      1  0.4873520000000  0.5055510000000  0.5678610000000 1.0
C      1  0.5698670000000  0.5705930000000  0.4883090000000 1.0
C      1  0.4952360000000  0.5537610000000  0.5748560000000 1.0
C      1  0.4826700000000  0.5966500000000  0.4818600000000 1.0
C      1  0.4506360000000  0.5610330000000  0.4417780000000 1.0
C      1  0.5330400000000  0.5933980000000  0.4890060000000 1.0
C      1  0.5430830000000  0.5160010000000  0.5886510000000 1.0
C      1  0.5535030000000  0.4865160000000  0.5090480000000 1.0
C      1  0.5798260000000  0.4638290000000  0.5529080000000 1.0
C      1  0.6070690000000  0.4928820000000  0.4615210000000 1.0
C      1  0.5292240000000  0.4208610000000  0.5200420000000 1.0
C      1  0.4826040000000  0.5432460000000  0.4712470000000 1.0
C      1  0.4200740000000  0.5000840000000  0.5491090000000 1.0
C      1  0.5146340000000  0.5006910000000  0.5626200000000 1.0
C      1  0.5160990000000  0.4594050000000  0.5953030000000 1.0
C      1  0.4625630000000  0.4714770000000  0.3987170000000 1.0
C      1  0.5575450000000  0.4279860000000  0.5165540000000 1.0
C      1  0.5492800000000  0.4191270000000  0.4438460000000 1.0
END
