TITL C-4164233-775-366 -29.4072498132288 125000 -8014.95088671549 0 0 56 (C1) n - 1
REM
REM in /home/nfs/bkarasulu/CARBON/AIRSS/Generating-Clusters/ReaxFF-fromJPCA2015/Units_Real/with-SteepDescent/Only-C1/SD-CG/Try1-3A/FIRE-CG
REM
REM
REM
REM
REM
REM ./C.cell (11c1c37f851c82e70ff6c80c92926a4b)
REM
REM compiler GCC version 9.2.1 20190827 (Red Hat 9.2.1-1)
REM options -cpp -mtune=generic -march=x86-64 -g -O0 -fpre-include=/usr/include/finclude/math-vector-fortran.h
REM seed 162050378 -862811634 1075378093 885478763 -1119008259 890752702 -274988452 -449149872 -415489667 -849603725 -46269039 1920522931 153974773 -98660632 1563525316 2015002821 -1154149698 1570836609 -241315533 528677154 -1838485982 -324425704 1560603366 -2146811059 -1977258615 -596189574 2015271904 -1400613075 -1920126161 1279390891 824859282 -1988274369 -1834597969
REM
CELL 1.54180   50.00000   50.00000   50.00000   90.00000   90.00000   90.00000
LATT -1
SFAC C  
C      1  0.4523460000000  0.4534850000000  0.5609550000000 1.0
C      1  0.5193150000000  0.5109530000000  0.4431410000000 1.0
C      1  0.5319950000000  0.4656280000000  0.5070990000000 1.0
C      1  0.5441370000000  0.4397840000000  0.5008490000000 1.0
C      1  0.5663750000000  0.4530150000000  0.4887720000000 1.0
C      1  0.4852640000000  0.5044650000000  0.5429470000000 1.0
C      1  0.5628210000000  0.4834750000000  0.4591410000000 1.0
C      1  0.5748140000000  0.4942520000000  0.5289400000000 1.0
C      1  0.4500730000000  0.4694240000000  0.4338340000000 1.0
C      1  0.4923940000000  0.5078530000000  0.4358700000000 1.0
C      1  0.4877410000000  0.4378960000000  0.4526550000000 1.0
C      1  0.5203200000000  0.5223070000000  0.4700610000000 1.0
C      1  0.4412650000000  0.4911350000000  0.4197080000000 1.0
C      1  0.5059560000000  0.5038580000000  0.5647210000000 1.0
C      1  0.4944350000000  0.5094980000000  0.5035460000000 1.0
C      1  0.5376080000000  0.5101360000000  0.5216440000000 1.0
C      1  0.4629620000000  0.4449760000000  0.4638190000000 1.0
C      1  0.5637230000000  0.5427380000000  0.5208490000000 1.0
C      1  0.5170070000000  0.4291670000000  0.4912820000000 1.0
C      1  0.5433560000000  0.5186620000000  0.4950410000000 1.0
C      1  0.5812970000000  0.4761010000000  0.4821410000000 1.0
C      1  0.4971180000000  0.5799720000000  0.4900460000000 1.0
C      1  0.5341470000000  0.4862760000000  0.4541820000000 1.0
C      1  0.5859370000000  0.4978320000000  0.5035180000000 1.0
C      1  0.5117750000000  0.4437870000000  0.4672020000000 1.0
C      1  0.5514750000000  0.4992400000000  0.5448340000000 1.0
C      1  0.4677260000000  0.4473690000000  0.4931400000000 1.0
C      1  0.5026070000000  0.4983430000000  0.4801200000000 1.0
C      1  0.5395900000000  0.5534310000000  0.5284750000000 1.0
C      1  0.4921780000000  0.4360470000000  0.5063930000000 1.0
C      1  0.4575870000000  0.5220950000000  0.4620670000000 1.0
C      1  0.4519040000000  0.5623130000000  0.5082670000000 1.0
C      1  0.4380710000000  0.4885040000000  0.5024740000000 1.0
C      1  0.4385360000000  0.5108160000000  0.4813840000000 1.0
C      1  0.4746110000000  0.4608770000000  0.4434550000000 1.0
C      1  0.5721880000000  0.5244590000000  0.5000870000000 1.0
C      1  0.5187130000000  0.4720520000000  0.4777690000000 1.0
C      1  0.5113190000000  0.5521200000000  0.5285570000000 1.0
C      1  0.4410110000000  0.5410800000000  0.5259680000000 1.0
C      1  0.4500440000000  0.5394580000000  0.5529820000000 1.0
C      1  0.5178080000000  0.4660610000000  0.5331130000000 1.0
C      1  0.4761880000000  0.5437320000000  0.4677040000000 1.0
C      1  0.4654880000000  0.4579210000000  0.5389010000000 1.0
C      1  0.4614110000000  0.5304000000000  0.5763790000000 1.0
C      1  0.4846790000000  0.5107000000000  0.5838990000000 1.0
C      1  0.4944610000000  0.4486840000000  0.5320260000000 1.0
C      1  0.5096670000000  0.5736710000000  0.5113940000000 1.0
C      1  0.4324940000000  0.5164500000000  0.5088210000000 1.0
C      1  0.4638100000000  0.5031070000000  0.5650630000000 1.0
C      1  0.5094970000000  0.5679750000000  0.4725810000000 1.0
C      1  0.5263850000000  0.4851940000000  0.5541270000000 1.0
C      1  0.4929140000000  0.5264870000000  0.5246340000000 1.0
C      1  0.4651910000000  0.5084480000000  0.4364840000000 1.0
C      1  0.5044620000000  0.5439010000000  0.4612310000000 1.0
C      1  0.4699790000000  0.5670200000000  0.4857760000000 1.0
C      1  0.4538240000000  0.4653730000000  0.5099310000000 1.0
END
