TITL C-4164233-775-417 -13.5457485533667 125000 -20062.7532935114 0 0 133 (C1) n - 1
REM
REM in /home/nfs/bkarasulu/CARBON/AIRSS/Generating-Clusters/ReaxFF-fromJPCA2015/Units_Real/with-SteepDescent/Only-C1/SD-CG/Try1-3A/FIRE-CG
REM
REM
REM
REM
REM
REM ./C.cell (11c1c37f851c82e70ff6c80c92926a4b)
REM
REM compiler GCC version 9.2.1 20190827 (Red Hat 9.2.1-1)
REM options -cpp -mtune=generic -march=x86-64 -g -O0 -fpre-include=/usr/include/finclude/math-vector-fortran.h
REM seed 1280791671 2050259187 -1584705858 1692130725 -1271129024 -150835408 504047291 498974288 53071960 -392037036 1997805868 -1358531172 -117834461 1599404577 1347890486 1061117224 450733262 179563788 130605688 1172995632 1333408653 -1294945908 1032798325 -955340923 -647740581 -1244640862 -366835784 1616770024 1217462860 -844691101 1555238387 -1040854070 -1953254802
REM
CELL 1.54180   50.00000   50.00000   50.00000   90.00000   90.00000   90.00000
LATT -1
SFAC C  
C      1  0.4323780000000  0.4801570000000  0.4356780000000 1.0
C      1  0.5493140000000  0.5608380000000  0.5516800000000 1.0
C      1  0.5794890000000  0.5020690000000  0.4364520000000 1.0
C      1  0.4062120000000  0.4961920000000  0.5352020000000 1.0
C      1  0.4478800000000  0.4816570000000  0.5862810000000 1.0
C      1  0.5226710000000  0.4084660000000  0.4759570000000 1.0
C      1  0.5132230000000  0.5540780000000  0.4963640000000 1.0
C      1  0.5270620000000  0.5030580000000  0.5448200000000 1.0
C      1  0.4937440000000  0.4105320000000  0.4691690000000 1.0
C      1  0.5266570000000  0.4495750000000  0.4234760000000 1.0
C      1  0.4949610000000  0.4481480000000  0.4313380000000 1.0
C      1  0.4850420000000  0.5139760000000  0.4688560000000 1.0
C      1  0.5168450000000  0.5428340000000  0.4485830000000 1.0
C      1  0.5386820000000  0.4754170000000  0.4146320000000 1.0
C      1  0.5316990000000  0.4085820000000  0.5033720000000 1.0
C      1  0.4499000000000  0.4762920000000  0.5194130000000 1.0
C      1  0.4868640000000  0.4562430000000  0.4941160000000 1.0
C      1  0.4245890000000  0.5766530000000  0.4829580000000 1.0
C      1  0.5552330000000  0.4903080000000  0.5051020000000 1.0
C      1  0.5854370000000  0.4610580000000  0.5174540000000 1.0
C      1  0.4328370000000  0.5361720000000  0.4540000000000 1.0
C      1  0.4632350000000  0.5758820000000  0.4551520000000 1.0
C      1  0.5869750000000  0.4688880000000  0.5459740000000 1.0
C      1  0.4907980000000  0.4581530000000  0.5253660000000 1.0
C      1  0.5573580000000  0.4658360000000  0.5880570000000 1.0
C      1  0.4255950000000  0.5282640000000  0.5530360000000 1.0
C      1  0.4193010000000  0.5061070000000  0.4920970000000 1.0
C      1  0.5684770000000  0.4330330000000  0.4807460000000 1.0
C      1  0.5274080000000  0.5195400000000  0.4548520000000 1.0
C      1  0.5628870000000  0.5698120000000  0.5272030000000 1.0
C      1  0.5087010000000  0.4694490000000  0.5806310000000 1.0
C      1  0.4903770000000  0.4886100000000  0.4046630000000 1.0
C      1  0.5402870000000  0.5026540000000  0.5936540000000 1.0
C      1  0.5752210000000  0.4602050000000  0.5702630000000 1.0
C      1  0.4530830000000  0.5862340000000  0.4808150000000 1.0
C      1  0.5323910000000  0.4651540000000  0.5063770000000 1.0
C      1  0.5472770000000  0.5398870000000  0.4170250000000 1.0
C      1  0.4985360000000  0.5372820000000  0.4128360000000 1.0
C      1  0.5192210000000  0.4948580000000  0.4055900000000 1.0
C      1  0.4647660000000  0.5048190000000  0.5856160000000 1.0
C      1  0.4641080000000  0.4743730000000  0.4938570000000 1.0
C      1  0.4776520000000  0.4997920000000  0.5555840000000 1.0
C      1  0.5152590000000  0.5916790000000  0.4657890000000 1.0
C      1  0.5411180000000  0.4347750000000  0.5189970000000 1.0
C      1  0.4472040000000  0.5719440000000  0.5540890000000 1.0
C      1  0.4810510000000  0.5239740000000  0.5424770000000 1.0
C      1  0.4607290000000  0.4550200000000  0.5803990000000 1.0
C      1  0.4892800000000  0.5392150000000  0.5846970000000 1.0
C      1  0.4768270000000  0.4638080000000  0.4122380000000 1.0
C      1  0.4078900000000  0.4845960000000  0.5085070000000 1.0
C      1  0.4457140000000  0.5719430000000  0.5225500000000 1.0
C      1  0.4971020000000  0.5485650000000  0.4692110000000 1.0
C      1  0.5055600000000  0.4878500000000  0.5586090000000 1.0
C      1  0.5334510000000  0.4762360000000  0.5988810000000 1.0
C      1  0.5746810000000  0.4562430000000  0.4656470000000 1.0
C      1  0.4076270000000  0.5274750000000  0.5303480000000 1.0
C      1  0.4338030000000  0.4167020000000  0.5168400000000 1.0
C      1  0.4715930000000  0.4758490000000  0.5387180000000 1.0
C      1  0.5611470000000  0.5384980000000  0.5656610000000 1.0
C      1  0.4768370000000  0.5369230000000  0.5232420000000 1.0
C      1  0.4393780000000  0.4301100000000  0.4684490000000 1.0
C      1  0.5472390000000  0.4202690000000  0.4635560000000 1.0
C      1  0.5954060000000  0.5124670000000  0.5071610000000 1.0
C      1  0.5300460000000  0.5602860000000  0.4289870000000 1.0
C      1  0.4920190000000  0.5758530000000  0.4577950000000 1.0
C      1  0.4147350000000  0.4710510000000  0.4571760000000 1.0
C      1  0.4546290000000  0.5508320000000  0.4419720000000 1.0
C      1  0.4951020000000  0.5920740000000  0.5145390000000 1.0
C      1  0.5551090000000  0.5213440000000  0.4891040000000 1.0
C      1  0.5380510000000  0.4353600000000  0.4424270000000 1.0
C      1  0.5409200000000  0.5289780000000  0.5848410000000 1.0
C      1  0.4982900000000  0.5002310000000  0.5130660000000 1.0
C      1  0.4884390000000  0.4693440000000  0.4546370000000 1.0
C      1  0.5821160000000  0.5228790000000  0.5548760000000 1.0
C      1  0.4476210000000  0.4122430000000  0.4907130000000 1.0
C      1  0.5215890000000  0.5668920000000  0.5582880000000 1.0
C      1  0.5524090000000  0.4952820000000  0.5337380000000 1.0
C      1  0.5189240000000  0.5866990000000  0.4957500000000 1.0
C      1  0.5234970000000  0.5249470000000  0.4061270000000 1.0
C      1  0.5826860000000  0.5339270000000  0.4927820000000 1.0
C      1  0.4092410000000  0.4993620000000  0.4651120000000 1.0
C      1  0.5820520000000  0.4614570000000  0.4409130000000 1.0
C      1  0.4850180000000  0.4002800000000  0.5191730000000 1.0
C      1  0.5147310000000  0.4761820000000  0.4648410000000 1.0
C      1  0.5957950000000  0.5299130000000  0.5313480000000 1.0
C      1  0.4673800000000  0.5888670000000  0.5060120000000 1.0
C      1  0.5190920000000  0.5182520000000  0.5214880000000 1.0
C      1  0.4465470000000  0.4258020000000  0.5420430000000 1.0
C      1  0.4521920000000  0.5414190000000  0.5121890000000 1.0
C      1  0.5236490000000  0.4233820000000  0.5411830000000 1.0
C      1  0.4739750000000  0.4154410000000  0.5410350000000 1.0
C      1  0.5684820000000  0.5799390000000  0.4880830000000 1.0
C      1  0.4265770000000  0.4621860000000  0.5061500000000 1.0
C      1  0.4255300000000  0.5093410000000  0.4433480000000 1.0
C      1  0.5842940000000  0.4851400000000  0.4985230000000 1.0
C      1  0.5141460000000  0.4011980000000  0.5251000000000 1.0
C      1  0.4977430000000  0.5527980000000  0.5212290000000 1.0
C      1  0.4400440000000  0.4483040000000  0.5614890000000 1.0
C      1  0.4309560000000  0.4987920000000  0.5470240000000 1.0
C      1  0.5863650000000  0.4817070000000  0.4617060000000 1.0
C      1  0.5492480000000  0.5856710000000  0.5067130000000 1.0
C      1  0.5334830000000  0.5348180000000  0.5029140000000 1.0
C      1  0.4286700000000  0.4760360000000  0.5635970000000 1.0
C      1  0.4076480000000  0.5457320000000  0.5065850000000 1.0
C      1  0.4719950000000  0.5363210000000  0.4215070000000 1.0
C      1  0.5848270000000  0.5526650000000  0.5154890000000 1.0
C      1  0.5527040000000  0.5203640000000  0.4603500000000 1.0
C      1  0.5362970000000  0.5848720000000  0.4465420000000 1.0
C      1  0.5153430000000  0.5469340000000  0.5792900000000 1.0
C      1  0.4964340000000  0.4338100000000  0.5503640000000 1.0
C      1  0.4171500000000  0.5728920000000  0.5111260000000 1.0
C      1  0.4179350000000  0.5488950000000  0.4770570000000 1.0
C      1  0.5569250000000  0.5830660000000  0.4650310000000 1.0
C      1  0.4558080000000  0.4351880000000  0.4447030000000 1.0
C      1  0.5666870000000  0.5282590000000  0.4357650000000 1.0
C      1  0.4240140000000  0.4524440000000  0.4781600000000 1.0
C      1  0.5113690000000  0.4760420000000  0.5217530000000 1.0
C      1  0.4523580000000  0.4599900000000  0.4277580000000 1.0
C      1  0.4451380000000  0.5183210000000  0.4988860000000 1.0
C      1  0.5123830000000  0.5040180000000  0.4686640000000 1.0
C      1  0.4421030000000  0.5477680000000  0.5681080000000 1.0
C      1  0.5014040000000  0.5762470000000  0.5386710000000 1.0
C      1  0.5700480000000  0.4379630000000  0.5089950000000 1.0
C      1  0.4721330000000  0.5027330000000  0.4941090000000 1.0
C      1  0.4823830000000  0.4243760000000  0.4459990000000 1.0
C      1  0.4626400000000  0.5334010000000  0.5881950000000 1.0
C      1  0.4894980000000  0.4482270000000  0.5766460000000 1.0
C      1  0.4758330000000  0.4039910000000  0.4915260000000 1.0
C      1  0.5141430000000  0.4597570000000  0.4862890000000 1.0
C      1  0.4724060000000  0.5057750000000  0.4209350000000 1.0
C      1  0.4754620000000  0.4944730000000  0.4480560000000 1.0
C      1  0.5667920000000  0.4796180000000  0.4232260000000 1.0
C      1  0.5754810000000  0.4960750000000  0.5518150000000 1.0
END
