TITL C-4164234-2335-170 42.2868051298212 125000 -21898.1214922054 0 0 148 (C1) n - 1
REM
REM in /home/nfs/bkarasulu/CARBON/AIRSS/Generating-Clusters/ReaxFF-fromJPCA2015/Units_Real/with-SteepDescent/Only-C1/SD-CG/Try1-3A/FIRE-CG
REM
REM
REM
REM
REM
REM ./C.cell (11c1c37f851c82e70ff6c80c92926a4b)
REM
REM compiler GCC version 9.2.1 20190827 (Red Hat 9.2.1-1)
REM options -cpp -mtune=generic -march=x86-64 -g -O0 -fpre-include=/usr/include/finclude/math-vector-fortran.h
REM seed 1042233957 664192990 2047769226 -1178714732 -1096111936 -115800090 499963132 -1578280466 -530591176 588409903 149833610 954193347 -514201372 -867356883 -495814480 1879866703 47410991 -970325333 -1454524755 -791936880 -433770413 1272569628 591025743 1532782821 -102849378 -203366221 1747420864 1801118216 -935692386 771453796 1840783321 500834904 -1051749798
REM
CELL 1.54180   50.00000   50.00000   50.00000   90.00000   90.00000   90.00000
LATT -1
SFAC C  
C      1  0.4945140000000  0.4744330000000  0.4814640000000 1.0
C      1  0.4125780000000  0.5476680000000  0.4618590000000 1.0
C      1  0.5644050000000  0.4684680000000  0.5603980000000 1.0
C      1  0.4937060000000  0.5064150000000  0.5947890000000 1.0
C      1  0.5004740000000  0.5017770000000  0.4134340000000 1.0
C      1  0.5132130000000  0.4037510000000  0.4764410000000 1.0
C      1  0.5954330000000  0.4869330000000  0.4476260000000 1.0
C      1  0.4986020000000  0.4979440000000  0.4421840000000 1.0
C      1  0.4025620000000  0.5019750000000  0.4793170000000 1.0
C      1  0.5673600000000  0.5428350000000  0.5006950000000 1.0
C      1  0.4545080000000  0.4645910000000  0.4466010000000 1.0
C      1  0.5301720000000  0.4479010000000  0.4229120000000 1.0
C      1  0.5296750000000  0.5504560000000  0.5482240000000 1.0
C      1  0.5726380000000  0.5021680000000  0.4380090000000 1.0
C      1  0.5147870000000  0.5519760000000  0.4196070000000 1.0
C      1  0.4891840000000  0.4118270000000  0.5693210000000 1.0
C      1  0.4931980000000  0.6024990000000  0.4746530000000 1.0
C      1  0.4928410000000  0.4014210000000  0.4965180000000 1.0
C      1  0.4354720000000  0.5518050000000  0.5596480000000 1.0
C      1  0.5408590000000  0.5436370000000  0.4961160000000 1.0
C      1  0.4911440000000  0.4212140000000  0.4292210000000 1.0
C      1  0.4619430000000  0.5738070000000  0.4998720000000 1.0
C      1  0.4843340000000  0.5517250000000  0.5782770000000 1.0
C      1  0.5396410000000  0.5765600000000  0.5452340000000 1.0
C      1  0.5038330000000  0.5316170000000  0.5887580000000 1.0
C      1  0.5814250000000  0.4672550000000  0.4876470000000 1.0
C      1  0.5549010000000  0.4236540000000  0.4621660000000 1.0
C      1  0.4580730000000  0.5102940000000  0.4600560000000 1.0
C      1  0.5287020000000  0.5341500000000  0.5720530000000 1.0
C      1  0.5123960000000  0.4109330000000  0.4472770000000 1.0
C      1  0.4491590000000  0.4851280000000  0.5188260000000 1.0
C      1  0.5562750000000  0.5859210000000  0.4574330000000 1.0
C      1  0.5428950000000  0.4701310000000  0.4009710000000 1.0
C      1  0.5648790000000  0.5729620000000  0.5311890000000 1.0
C      1  0.5649560000000  0.4256950000000  0.5295800000000 1.0
C      1  0.5402840000000  0.6064440000000  0.5046400000000 1.0
C      1  0.4575290000000  0.4885070000000  0.5461930000000 1.0
C      1  0.5158530000000  0.5128020000000  0.4627110000000 1.0
C      1  0.5299460000000  0.4591470000000  0.5008550000000 1.0
C      1  0.5092820000000  0.4434020000000  0.5126850000000 1.0
C      1  0.4433610000000  0.4682840000000  0.5655810000000 1.0
C      1  0.4743380000000  0.5115800000000  0.5509600000000 1.0
C      1  0.5083710000000  0.5934240000000  0.5653200000000 1.0
C      1  0.4437600000000  0.4036840000000  0.5169580000000 1.0
C      1  0.5381990000000  0.4861820000000  0.5115400000000 1.0
C      1  0.6039730000000  0.5192080000000  0.4900470000000 1.0
C      1  0.5341490000000  0.4636610000000  0.4479900000000 1.0
C      1  0.4916400000000  0.5345870000000  0.4164510000000 1.0
C      1  0.4884130000000  0.4813630000000  0.5984530000000 1.0
C      1  0.5234530000000  0.5056580000000  0.5256820000000 1.0
C      1  0.5685220000000  0.5517420000000  0.4243200000000 1.0
C      1  0.4711750000000  0.5577790000000  0.4756710000000 1.0
C      1  0.4037530000000  0.5225530000000  0.5504410000000 1.0
C      1  0.5874130000000  0.5203640000000  0.5372480000000 1.0
C      1  0.4315100000000  0.5001460000000  0.4191040000000 1.0
C      1  0.5110050000000  0.5743220000000  0.4389930000000 1.0
C      1  0.4327970000000  0.5689430000000  0.4650140000000 1.0
C      1  0.4180510000000  0.5352040000000  0.4362120000000 1.0
C      1  0.6002000000000  0.4948080000000  0.5229330000000 1.0
C      1  0.4111230000000  0.4744670000000  0.4906980000000 1.0
C      1  0.5764270000000  0.5195930000000  0.4892620000000 1.0
C      1  0.4075680000000  0.4685200000000  0.4449990000000 1.0
C      1  0.4744660000000  0.6021230000000  0.4989100000000 1.0
C      1  0.5653160000000  0.5904010000000  0.5080670000000 1.0
C      1  0.5773400000000  0.5756580000000  0.4395250000000 1.0
C      1  0.4994760000000  0.4476290000000  0.4160040000000 1.0
C      1  0.4275580000000  0.4651780000000  0.5138440000000 1.0
C      1  0.5412910000000  0.4101060000000  0.4838720000000 1.0
C      1  0.4075860000000  0.4767590000000  0.5330840000000 1.0
C      1  0.4341640000000  0.5092640000000  0.5147830000000 1.0
C      1  0.4969890000000  0.5736830000000  0.5714550000000 1.0
C      1  0.5701490000000  0.4538360000000  0.5357150000000 1.0
C      1  0.5763530000000  0.4442480000000  0.4661220000000 1.0
C      1  0.4870750000000  0.5864700000000  0.4498780000000 1.0
C      1  0.4332830000000  0.4182850000000  0.5379130000000 1.0
C      1  0.4332100000000  0.4731910000000  0.4296630000000 1.0
C      1  0.5473200000000  0.4049850000000  0.5362550000000 1.0
C      1  0.4068590000000  0.5300480000000  0.4848430000000 1.0
C      1  0.5970480000000  0.5757130000000  0.4630510000000 1.0
C      1  0.4703160000000  0.5497840000000  0.5251540000000 1.0
C      1  0.5480830000000  0.5124500000000  0.5727830000000 1.0
C      1  0.5629690000000  0.4634210000000  0.5885730000000 1.0
C      1  0.5167340000000  0.4107780000000  0.5734540000000 1.0
C      1  0.4424690000000  0.4424980000000  0.4631150000000 1.0
C      1  0.5893860000000  0.4568420000000  0.4430740000000 1.0
C      1  0.5242180000000  0.4360530000000  0.5899630000000 1.0
C      1  0.5870560000000  0.4693990000000  0.5176960000000 1.0
C      1  0.3960830000000  0.4944820000000  0.4515720000000 1.0
C      1  0.5781420000000  0.5470370000000  0.5266830000000 1.0
C      1  0.5242200000000  0.5375620000000  0.5220240000000 1.0
C      1  0.4646010000000  0.5287630000000  0.4805470000000 1.0
C      1  0.4199710000000  0.5477010000000  0.5073250000000 1.0
C      1  0.5585290000000  0.5295130000000  0.4418270000000 1.0
C      1  0.5358110000000  0.5413870000000  0.4678510000000 1.0
C      1  0.4728200000000  0.4262740000000  0.5337930000000 1.0
C      1  0.4868960000000  0.4610510000000  0.5116750000000 1.0
C      1  0.4474320000000  0.5215750000000  0.4354090000000 1.0
C      1  0.5257280000000  0.5955290000000  0.5284200000000 1.0
C      1  0.6176570000000  0.4965960000000  0.4985580000000 1.0
C      1  0.4148630000000  0.4554180000000  0.4694190000000 1.0
C      1  0.5210380000000  0.4060100000000  0.5447680000000 1.0
C      1  0.5369700000000  0.4228750000000  0.4392160000000 1.0
C      1  0.5589410000000  0.4937170000000  0.4906690000000 1.0
C      1  0.4327530000000  0.4402170000000  0.5548300000000 1.0
C      1  0.4326770000000  0.5718450000000  0.4931330000000 1.0
C      1  0.5751670000000  0.5881840000000  0.4804630000000 1.0
C      1  0.5170580000000  0.6044000000000  0.4888780000000 1.0
C      1  0.5422680000000  0.5412790000000  0.4185490000000 1.0
C      1  0.5319750000000  0.5691920000000  0.4590510000000 1.0
C      1  0.4390140000000  0.4160020000000  0.4409080000000 1.0
C      1  0.4735090000000  0.4861020000000  0.4562910000000 1.0
C      1  0.5418530000000  0.4814310000000  0.5770230000000 1.0
C      1  0.4952730000000  0.4580100000000  0.5614420000000 1.0
C      1  0.5043890000000  0.5014730000000  0.4866180000000 1.0
C      1  0.4649130000000  0.4169820000000  0.4341760000000 1.0
C      1  0.5046180000000  0.6108790000000  0.5425930000000 1.0
C      1  0.4808940000000  0.6148380000000  0.5244270000000 1.0
C      1  0.5518980000000  0.4372380000000  0.5999880000000 1.0
C      1  0.4151350000000  0.4778110000000  0.5619750000000 1.0
C      1  0.4952000000000  0.5383570000000  0.5156920000000 1.0
C      1  0.4186980000000  0.5443410000000  0.5809740000000 1.0
C      1  0.4147480000000  0.5469250000000  0.5396540000000 1.0
C      1  0.4398890000000  0.5035780000000  0.5913000000000 1.0
C      1  0.4665370000000  0.5411140000000  0.5549480000000 1.0
C      1  0.4076190000000  0.5052200000000  0.5269070000000 1.0
C      1  0.4630950000000  0.5670090000000  0.4484390000000 1.0
C      1  0.5476420000000  0.4884940000000  0.4426240000000 1.0
C      1  0.4565450000000  0.4312800000000  0.4883270000000 1.0
C      1  0.5680690000000  0.5177050000000  0.5547520000000 1.0
C      1  0.4757410000000  0.4352170000000  0.5620170000000 1.0
C      1  0.5195340000000  0.4601010000000  0.4731670000000 1.0
C      1  0.5019110000000  0.4164920000000  0.5223640000000 1.0
C      1  0.4997290000000  0.5009850000000  0.5407640000000 1.0
C      1  0.5289420000000  0.4933550000000  0.3996230000000 1.0
C      1  0.5403580000000  0.4979050000000  0.4682070000000 1.0
C      1  0.6050380000000  0.4812490000000  0.4752450000000 1.0
C      1  0.4872050000000  0.4727390000000  0.4102670000000 1.0
C      1  0.4593700000000  0.4821500000000  0.5926800000000 1.0
C      1  0.4058360000000  0.5104600000000  0.4285810000000 1.0
C      1  0.4634620000000  0.4034580000000  0.4948440000000 1.0
C      1  0.4147900000000  0.5047500000000  0.5738380000000 1.0
C      1  0.4874950000000  0.5207480000000  0.4964580000000 1.0
C      1  0.4615040000000  0.4454530000000  0.5133760000000 1.0
C      1  0.5129470000000  0.4639590000000  0.5845040000000 1.0
C      1  0.4681720000000  0.5437520000000  0.4279080000000 1.0
C      1  0.4947640000000  0.4727310000000  0.5375860000000 1.0
C      1  0.5550870000000  0.4082980000000  0.5093620000000 1.0
C      1  0.4474300000000  0.5341010000000  0.5093540000000 1.0
END
