TITL C-4164246-3563-726 2.97387808723872 125000 -4225.21586013282 0 0 30 (C1) n - 1
REM
REM in /home/nfs/bkarasulu/CARBON/AIRSS/Generating-Clusters/ReaxFF-fromJPCA2015/Units_Real/with-SteepDescent/Only-C1/SD-CG/Try1-3A/FIRE-CG
REM
REM
REM
REM
REM
REM ./C.cell (11c1c37f851c82e70ff6c80c92926a4b)
REM
REM compiler GCC version 9.2.1 20190827 (Red Hat 9.2.1-1)
REM options -cpp -mtune=generic -march=x86-64 -g -O0 -fpre-include=/usr/include/finclude/math-vector-fortran.h
REM seed -102297528 -146976862 -1682639605 1914541462 935868421 1371653925 480400808 1448889012 -787021693 -669141166 368996341 -1270671958 -1145151706 -898002652 882622685 1142589565 -1213587674 -1186127213 1338474657 -61942722 842496586 1257910644 356478597 1902295265 -1590553595 1801209484 446600104 -972817782 -1185546090 -1982172349 -1704941559 1400198088 -1139447960
REM
CELL 1.54180   50.00000   50.00000   50.00000   90.00000   90.00000   90.00000
LATT -1
SFAC C  
C      1  0.5373540000000  0.5390990000000  0.4097170000000 1.0
C      1  0.4754660000000  0.5038340000000  0.4837180000000 1.0
C      1  0.5703980000000  0.4975610000000  0.5199520000000 1.0
C      1  0.5104600000000  0.4408000000000  0.4925080000000 1.0
C      1  0.4942160000000  0.4844090000000  0.5307940000000 1.0
C      1  0.5535850000000  0.4868820000000  0.4662040000000 1.0
C      1  0.5331110000000  0.4641600000000  0.4658250000000 1.0
C      1  0.4703050000000  0.5791970000000  0.5288390000000 1.0
C      1  0.5205950000000  0.4799110000000  0.5315510000000 1.0
C      1  0.4491490000000  0.4788650000000  0.5455950000000 1.0
C      1  0.4837000000000  0.5724360000000  0.5545200000000 1.0
C      1  0.4764960000000  0.4811180000000  0.5037850000000 1.0
C      1  0.4523080000000  0.5205090000000  0.4857990000000 1.0
C      1  0.5631390000000  0.4933840000000  0.4936190000000 1.0
C      1  0.4686820000000  0.5446450000000  0.5544770000000 1.0
C      1  0.4935240000000  0.5001050000000  0.4605420000000 1.0
C      1  0.4764040000000  0.4902980000000  0.5540560000000 1.0
C      1  0.5314360000000  0.5220380000000  0.4300060000000 1.0
C      1  0.5481170000000  0.4743550000000  0.5292300000000 1.0
C      1  0.4565310000000  0.5509620000000  0.5290960000000 1.0
C      1  0.5052000000000  0.4709710000000  0.4642550000000 1.0
C      1  0.5531380000000  0.5069640000000  0.4460030000000 1.0
C      1  0.5021210000000  0.5192850000000  0.4418640000000 1.0
C      1  0.4351410000000  0.5077940000000  0.5060840000000 1.0
C      1  0.4766680000000  0.5179490000000  0.5644890000000 1.0
C      1  0.4480830000000  0.4834740000000  0.5164900000000 1.0
C      1  0.5449190000000  0.4529020000000  0.5111680000000 1.0
C      1  0.5383190000000  0.4417690000000  0.4855840000000 1.0
C      1  0.4417880000000  0.5360790000000  0.5088120000000 1.0
C      1  0.4896440000000  0.4582450000000  0.4854200000000 1.0
END
