TITL C-4164233-775-759 24.170535091983 125000 -27101.0104783108 0 0 179 (C1) n - 1
REM
REM in /home/nfs/bkarasulu/CARBON/AIRSS/Generating-Clusters/ReaxFF-fromJPCA2015/Units_Real/with-SteepDescent/Only-C1/SD-CG/Try1-3A/FIRE-CG
REM
REM
REM
REM
REM
REM ./C.cell (11c1c37f851c82e70ff6c80c92926a4b)
REM
REM compiler GCC version 9.2.1 20190827 (Red Hat 9.2.1-1)
REM options -cpp -mtune=generic -march=x86-64 -g -O0 -fpre-include=/usr/include/finclude/math-vector-fortran.h
REM seed -1313384360 -608323842 1433680894 295272334 -1408683397 -276031877 1838366912 -1302547155 -1515884205 315200042 606755589 1276022180 1082139637 1121576090 -920683798 1879529845 1651906390 1646226941 93635069 -2009219296 -2011074279 419989238 1648008250 996331998 -698789686 1542569568 -1524927147 -22861959 -1056244956 -572832304 -1263595937 1452305422 -1763763262
REM
CELL 1.54180   50.00000   50.00000   50.00000   90.00000   90.00000   90.00000
LATT -1
SFAC C  
C      1  0.5737180000000  0.4625570000000  0.4782580000000 1.0
C      1  0.4251590000000  0.5283460000000  0.4219460000000 1.0
C      1  0.4557030000000  0.5087910000000  0.4429870000000 1.0
C      1  0.4969010000000  0.4671210000000  0.5425400000000 1.0
C      1  0.6001100000000  0.5478270000000  0.5178600000000 1.0
C      1  0.4702990000000  0.4758270000000  0.4018320000000 1.0
C      1  0.5116220000000  0.4626240000000  0.4460680000000 1.0
C      1  0.4645350000000  0.4820570000000  0.4478450000000 1.0
C      1  0.4657530000000  0.5885570000000  0.5487240000000 1.0
C      1  0.5794160000000  0.4194230000000  0.5300630000000 1.0
C      1  0.4321350000000  0.5503140000000  0.5671410000000 1.0
C      1  0.5479400000000  0.5678090000000  0.5770570000000 1.0
C      1  0.5188090000000  0.4564180000000  0.5904750000000 1.0
C      1  0.5073100000000  0.4938480000000  0.5508490000000 1.0
C      1  0.4371940000000  0.5194240000000  0.5241890000000 1.0
C      1  0.5902720000000  0.5567010000000  0.5440490000000 1.0
C      1  0.5215540000000  0.4220960000000  0.4163060000000 1.0
C      1  0.4113700000000  0.5776170000000  0.4991530000000 1.0
C      1  0.4602720000000  0.6140540000000  0.5013060000000 1.0
C      1  0.4860830000000  0.5988470000000  0.5299250000000 1.0
C      1  0.6034300000000  0.5384580000000  0.4972690000000 1.0
C      1  0.4785730000000  0.4482740000000  0.4810860000000 1.0
C      1  0.4815990000000  0.5209080000000  0.6175160000000 1.0
C      1  0.4715770000000  0.4940820000000  0.6117390000000 1.0
C      1  0.5164330000000  0.4124410000000  0.4570330000000 1.0
C      1  0.5162460000000  0.5563840000000  0.4619830000000 1.0
C      1  0.4973460000000  0.4370700000000  0.4539820000000 1.0
C      1  0.5643140000000  0.4730280000000  0.6010060000000 1.0
C      1  0.4506950000000  0.4751360000000  0.5466670000000 1.0
C      1  0.4259510000000  0.4459670000000  0.5674670000000 1.0
C      1  0.4504320000000  0.4332210000000  0.5761130000000 1.0
C      1  0.5829440000000  0.4846910000000  0.5588850000000 1.0
C      1  0.4094770000000  0.5297100000000  0.5191340000000 1.0
C      1  0.4118360000000  0.5066460000000  0.4367370000000 1.0
C      1  0.5580160000000  0.4538370000000  0.5229820000000 1.0
C      1  0.5457210000000  0.4677350000000  0.4070880000000 1.0
C      1  0.4817440000000  0.4277370000000  0.4290100000000 1.0
C      1  0.5505680000000  0.5532470000000  0.4168760000000 1.0
C      1  0.3966070000000  0.4968150000000  0.4864510000000 1.0
C      1  0.5665930000000  0.5562930000000  0.4692640000000 1.0
C      1  0.3976400000000  0.4604050000000  0.5320480000000 1.0
C      1  0.5272310000000  0.5492080000000  0.3985000000000 1.0
C      1  0.5985020000000  0.4399700000000  0.5287410000000 1.0
C      1  0.4984080000000  0.4337580000000  0.4050230000000 1.0
C      1  0.5315170000000  0.6121910000000  0.4936170000000 1.0
C      1  0.4249900000000  0.5820570000000  0.4732030000000 1.0
C      1  0.4370810000000  0.5748940000000  0.5471480000000 1.0
C      1  0.4775040000000  0.5432670000000  0.5988030000000 1.0
C      1  0.4219010000000  0.5245630000000  0.5638770000000 1.0
C      1  0.4586340000000  0.4038870000000  0.4773960000000 1.0
C      1  0.3944000000000  0.4887850000000  0.5384110000000 1.0
C      1  0.5143330000000  0.5009520000000  0.3916140000000 1.0
C      1  0.4303050000000  0.4749330000000  0.5657130000000 1.0
C      1  0.4574910000000  0.6112390000000  0.4464320000000 1.0
C      1  0.4862690000000  0.3995000000000  0.4820220000000 1.0
C      1  0.5717610000000  0.4801600000000  0.4106600000000 1.0
C      1  0.5125330000000  0.4509690000000  0.5302980000000 1.0
C      1  0.5377400000000  0.5785580000000  0.4251110000000 1.0
C      1  0.5363880000000  0.6011750000000  0.5202030000000 1.0
C      1  0.4081760000000  0.4716470000000  0.4867980000000 1.0
C      1  0.5673920000000  0.4369170000000  0.5656910000000 1.0
C      1  0.5081360000000  0.5111410000000  0.4505110000000 1.0
C      1  0.5165320000000  0.4010800000000  0.5497540000000 1.0
C      1  0.4498640000000  0.6005380000000  0.4768770000000 1.0
C      1  0.5458340000000  0.5843820000000  0.5560890000000 1.0
C      1  0.5759270000000  0.4565480000000  0.5463270000000 1.0
C      1  0.4118890000000  0.4974850000000  0.5609350000000 1.0
C      1  0.5119470000000  0.5228740000000  0.6187680000000 1.0
C      1  0.3933330000000  0.5058500000000  0.5145820000000 1.0
C      1  0.5142590000000  0.5887510000000  0.5346620000000 1.0
C      1  0.4852590000000  0.5750150000000  0.4187870000000 1.0
C      1  0.5455390000000  0.4990790000000  0.5123030000000 1.0
C      1  0.5026690000000  0.5519330000000  0.5849620000000 1.0
C      1  0.5705680000000  0.5247850000000  0.5814920000000 1.0
C      1  0.4461350000000  0.5132970000000  0.4972040000000 1.0
C      1  0.4659570000000  0.5541000000000  0.4157100000000 1.0
C      1  0.5278410000000  0.5860610000000  0.4534680000000 1.0
C      1  0.5397000000000  0.4079000000000  0.5013390000000 1.0
C      1  0.4052920000000  0.4595400000000  0.4393040000000 1.0
C      1  0.4383410000000  0.5528220000000  0.4289320000000 1.0
C      1  0.5721540000000  0.5353130000000  0.4277720000000 1.0
C      1  0.5421520000000  0.5505180000000  0.5229810000000 1.0
C      1  0.4977350000000  0.4362480000000  0.5877470000000 1.0
C      1  0.4026750000000  0.5491580000000  0.4977420000000 1.0
C      1  0.4706770000000  0.4125330000000  0.5252100000000 1.0
C      1  0.4704430000000  0.4278180000000  0.5533470000000 1.0
C      1  0.5713900000000  0.5796230000000  0.5437660000000 1.0
C      1  0.6035950000000  0.4936510000000  0.5222790000000 1.0
C      1  0.5371500000000  0.4101560000000  0.4362140000000 1.0
C      1  0.4711430000000  0.5793080000000  0.4850340000000 1.0
C      1  0.5151310000000  0.5016440000000  0.6015240000000 1.0
C      1  0.5482420000000  0.5972770000000  0.4747790000000 1.0
C      1  0.5011870000000  0.4672280000000  0.4904660000000 1.0
C      1  0.5837230000000  0.4361330000000  0.4851430000000 1.0
C      1  0.5668990000000  0.5061350000000  0.4254040000000 1.0
C      1  0.5332930000000  0.5045620000000  0.5377610000000 1.0
C      1  0.4245740000000  0.5762180000000  0.5238010000000 1.0
C      1  0.5617530000000  0.4115100000000  0.5506430000000 1.0
C      1  0.5049550000000  0.6057800000000  0.4560610000000 1.0
C      1  0.4214230000000  0.4791650000000  0.4272150000000 1.0
C      1  0.4721010000000  0.5485210000000  0.5211360000000 1.0
C      1  0.4958530000000  0.3844720000000  0.5399350000000 1.0
C      1  0.4448000000000  0.4199630000000  0.4560210000000 1.0
C      1  0.4817120000000  0.5994440000000  0.4379580000000 1.0
C      1  0.5283420000000  0.4591110000000  0.4925990000000 1.0
C      1  0.4544360000000  0.4356720000000  0.4329270000000 1.0
C      1  0.4018930000000  0.5140050000000  0.4632620000000 1.0
C      1  0.5399950000000  0.5439310000000  0.4650480000000 1.0
C      1  0.4987570000000  0.5412130000000  0.5128040000000 1.0
C      1  0.5305040000000  0.5101560000000  0.4934270000000 1.0
C      1  0.4594810000000  0.4875400000000  0.4964600000000 1.0
C      1  0.4496690000000  0.4130370000000  0.5069210000000 1.0
C      1  0.4897220000000  0.4916300000000  0.4982210000000 1.0
C      1  0.5068150000000  0.5274070000000  0.3934980000000 1.0
C      1  0.5905100000000  0.4755110000000  0.4584520000000 1.0
C      1  0.4685960000000  0.4331510000000  0.5046970000000 1.0
C      1  0.5754770000000  0.4394560000000  0.4401920000000 1.0
C      1  0.5668910000000  0.5799020000000  0.4865660000000 1.0
C      1  0.4189300000000  0.4196970000000  0.5212470000000 1.0
C      1  0.5069360000000  0.5362590000000  0.5597570000000 1.0
C      1  0.4711080000000  0.4577670000000  0.5467900000000 1.0
C      1  0.6045590000000  0.4495250000000  0.5024020000000 1.0
C      1  0.4977390000000  0.4184670000000  0.5651960000000 1.0
C      1  0.6092710000000  0.4804060000000  0.4992770000000 1.0
C      1  0.4446030000000  0.4715370000000  0.5196010000000 1.0
C      1  0.5216580000000  0.4751780000000  0.3897780000000 1.0
C      1  0.5048530000000  0.5155440000000  0.5012810000000 1.0
C      1  0.4959050000000  0.5368420000000  0.4534600000000 1.0
C      1  0.4778270000000  0.5311110000000  0.4006150000000 1.0
C      1  0.4556160000000  0.4674530000000  0.4720510000000 1.0
C      1  0.4681590000000  0.4724010000000  0.6050630000000 1.0
C      1  0.4823890000000  0.6016250000000  0.5012780000000 1.0
C      1  0.5976200000000  0.5058730000000  0.5462840000000 1.0
C      1  0.5530790000000  0.4724900000000  0.5007730000000 1.0
C      1  0.5154130000000  0.4837310000000  0.5808000000000 1.0
C      1  0.5246590000000  0.5455940000000  0.6040590000000 1.0
C      1  0.5144700000000  0.3996330000000  0.4833290000000 1.0
C      1  0.4732880000000  0.3774320000000  0.5277310000000 1.0
C      1  0.4180550000000  0.4652290000000  0.5115480000000 1.0
C      1  0.4509270000000  0.4648850000000  0.4228660000000 1.0
C      1  0.4670070000000  0.5312760000000  0.4568790000000 1.0
C      1  0.5627240000000  0.4175380000000  0.4527460000000 1.0
C      1  0.4610630000000  0.5568010000000  0.4972210000000 1.0
C      1  0.5659590000000  0.4457550000000  0.5924110000000 1.0
C      1  0.5133720000000  0.5728190000000  0.4093860000000 1.0
C      1  0.4662450000000  0.5048210000000  0.3953230000000 1.0
C      1  0.5523630000000  0.5457790000000  0.5935950000000 1.0
C      1  0.4122420000000  0.4220120000000  0.4951580000000 1.0
C      1  0.4946690000000  0.4620510000000  0.3951580000000 1.0
C      1  0.4105880000000  0.4368690000000  0.5437080000000 1.0
C      1  0.4624130000000  0.5275970000000  0.5384650000000 1.0
C      1  0.5702970000000  0.4950120000000  0.5824460000000 1.0
C      1  0.5625550000000  0.4152600000000  0.4826620000000 1.0
C      1  0.5356630000000  0.5120490000000  0.4653660000000 1.0
C      1  0.5511010000000  0.4937690000000  0.4450980000000 1.0
C      1  0.4550920000000  0.5349310000000  0.4822570000000 1.0
C      1  0.5389720000000  0.4687020000000  0.4355410000000 1.0
C      1  0.6058380000000  0.4955170000000  0.4733430000000 1.0
C      1  0.5405180000000  0.4037180000000  0.5318620000000 1.0
C      1  0.5046940000000  0.6139710000000  0.4829880000000 1.0
C      1  0.5330810000000  0.5323050000000  0.5440780000000 1.0
C      1  0.5858840000000  0.5407000000000  0.4529850000000 1.0
C      1  0.5167180000000  0.5622290000000  0.5189330000000 1.0
C      1  0.4460010000000  0.5091240000000  0.4157380000000 1.0
C      1  0.4696820000000  0.4452550000000  0.5941810000000 1.0
C      1  0.4959740000000  0.4859590000000  0.4465640000000 1.0
C      1  0.4546130000000  0.5569170000000  0.5859950000000 1.0
C      1  0.6026390000000  0.5245570000000  0.4716370000000 1.0
C      1  0.5332660000000  0.4407650000000  0.5144090000000 1.0
C      1  0.4230980000000  0.4584570000000  0.4671050000000 1.0
C      1  0.4238050000000  0.5612690000000  0.4536560000000 1.0
C      1  0.4062160000000  0.5422120000000  0.4693220000000 1.0
C      1  0.4196720000000  0.4282930000000  0.4686890000000 1.0
C      1  0.5571590000000  0.5777820000000  0.5166500000000 1.0
C      1  0.4863320000000  0.5174420000000  0.5523380000000 1.0
C      1  0.5867540000000  0.4629080000000  0.4306580000000 1.0
C      1  0.4714380000000  0.5741110000000  0.5713720000000 1.0
C      1  0.5433110000000  0.4542940000000  0.6046380000000 1.0
C      1  0.5865950000000  0.5322370000000  0.5590690000000 1.0
END
