TITL C-4164237-1827-178 19.2238988990007 125000 -20796.8092067179 0 0 139 (C1) n - 1
REM
REM in /home/nfs/bkarasulu/CARBON/AIRSS/Generating-Clusters/ReaxFF-fromJPCA2015/Units_Real/with-SteepDescent/Only-C1/SD-CG/Try1-3A/FIRE-CG
REM
REM
REM
REM
REM
REM ./C.cell (11c1c37f851c82e70ff6c80c92926a4b)
REM
REM compiler GCC version 9.2.1 20190827 (Red Hat 9.2.1-1)
REM options -cpp -mtune=generic -march=x86-64 -g -O0 -fpre-include=/usr/include/finclude/math-vector-fortran.h
REM seed 1312429708 -37905944 -1665656462 -492397997 401857491 1066842898 -1307174577 -1417694773 -710269041 946527869 -1337911372 37339396 1452356842 -402155415 609690648 -621373975 1979427967 -682726930 -1298597703 -761606922 -542590390 -802288154 -277708527 1951150084 -1054192953 -1194498451 -2131528402 -1488217898 -1704720552 1815198694 -585707721 334324820 64683464
REM
CELL 1.54180   50.00000   50.00000   50.00000   90.00000   90.00000   90.00000
LATT -1
SFAC C  
C      1  0.5195550000000  0.4999010000000  0.4147330000000 1.0
C      1  0.5330770000000  0.5159440000000  0.5191260000000 1.0
C      1  0.3945100000000  0.5257360000000  0.4687020000000 1.0
C      1  0.4339680000000  0.4669930000000  0.5754710000000 1.0
C      1  0.5671330000000  0.4839010000000  0.4252940000000 1.0
C      1  0.4634600000000  0.4159780000000  0.4592890000000 1.0
C      1  0.5130240000000  0.5162220000000  0.6016390000000 1.0
C      1  0.5039800000000  0.4184910000000  0.4354110000000 1.0
C      1  0.4899990000000  0.5605550000000  0.4147730000000 1.0
C      1  0.4257440000000  0.4938450000000  0.5749760000000 1.0
C      1  0.4213810000000  0.4625960000000  0.5482320000000 1.0
C      1  0.5358690000000  0.4583250000000  0.4525660000000 1.0
C      1  0.5301020000000  0.4678470000000  0.5355870000000 1.0
C      1  0.4729670000000  0.5936250000000  0.4802440000000 1.0
C      1  0.4909840000000  0.5354230000000  0.4937510000000 1.0
C      1  0.4284680000000  0.5612640000000  0.5354490000000 1.0
C      1  0.5662820000000  0.4475880000000  0.4554440000000 1.0
C      1  0.5308840000000  0.4486500000000  0.4096320000000 1.0
C      1  0.4088050000000  0.5584960000000  0.5098400000000 1.0
C      1  0.5388280000000  0.5340610000000  0.4982340000000 1.0
C      1  0.5326030000000  0.4467220000000  0.5918500000000 1.0
C      1  0.4213270000000  0.5191610000000  0.4998510000000 1.0
C      1  0.5758310000000  0.4984900000000  0.5688470000000 1.0
C      1  0.5800040000000  0.5391940000000  0.4716060000000 1.0
C      1  0.5881090000000  0.5054950000000  0.5204760000000 1.0
C      1  0.4678690000000  0.5155250000000  0.4043810000000 1.0
C      1  0.4985240000000  0.4894810000000  0.6041570000000 1.0
C      1  0.5547270000000  0.4074280000000  0.4969830000000 1.0
C      1  0.4757340000000  0.4684020000000  0.3999570000000 1.0
C      1  0.4794670000000  0.5425430000000  0.5192740000000 1.0
C      1  0.4708870000000  0.4932680000000  0.4893980000000 1.0
C      1  0.5108520000000  0.5087180000000  0.5611650000000 1.0
C      1  0.5222370000000  0.4732780000000  0.4761320000000 1.0
C      1  0.5598670000000  0.5789900000000  0.5003170000000 1.0
C      1  0.4382430000000  0.5394170000000  0.4865240000000 1.0
C      1  0.4858890000000  0.5321360000000  0.4196680000000 1.0
C      1  0.4278820000000  0.4685100000000  0.4618280000000 1.0
C      1  0.5588950000000  0.4994210000000  0.4756160000000 1.0
C      1  0.4504600000000  0.5871090000000  0.4980190000000 1.0
C      1  0.5413930000000  0.5206200000000  0.4167210000000 1.0
C      1  0.4803910000000  0.4826700000000  0.5350700000000 1.0
C      1  0.4634080000000  0.5229360000000  0.5345320000000 1.0
C      1  0.5417360000000  0.4137230000000  0.5220390000000 1.0
C      1  0.4880260000000  0.4942480000000  0.4007050000000 1.0
C      1  0.5673490000000  0.5125480000000  0.4273250000000 1.0
C      1  0.4840050000000  0.5977950000000  0.4546980000000 1.0
C      1  0.5119000000000  0.4428690000000  0.4503330000000 1.0
C      1  0.5848350000000  0.5223920000000  0.4508840000000 1.0
C      1  0.5320860000000  0.5148350000000  0.5798860000000 1.0
C      1  0.5146450000000  0.4652150000000  0.6078790000000 1.0
C      1  0.3966070000000  0.5343050000000  0.4978500000000 1.0
C      1  0.5397050000000  0.5206130000000  0.4720320000000 1.0
C      1  0.4749630000000  0.5756260000000  0.5669740000000 1.0
C      1  0.5482160000000  0.5866340000000  0.5248930000000 1.0
C      1  0.5039380000000  0.4594850000000  0.4971820000000 1.0
C      1  0.4788370000000  0.4837010000000  0.5829920000000 1.0
C      1  0.4269490000000  0.4920280000000  0.5094850000000 1.0
C      1  0.4150940000000  0.4882620000000  0.5357340000000 1.0
C      1  0.5803540000000  0.4850790000000  0.5430310000000 1.0
C      1  0.5605090000000  0.4540040000000  0.4970940000000 1.0
C      1  0.4957760000000  0.5842340000000  0.4317390000000 1.0
C      1  0.5061890000000  0.3990580000000  0.4841110000000 1.0
C      1  0.4427150000000  0.5573450000000  0.5861820000000 1.0
C      1  0.4396420000000  0.5148130000000  0.4151590000000 1.0
C      1  0.5652150000000  0.5414000000000  0.5470810000000 1.0
C      1  0.4728160000000  0.5914430000000  0.5432120000000 1.0
C      1  0.5021730000000  0.4666900000000  0.5251100000000 1.0
C      1  0.5013470000000  0.5104600000000  0.4369360000000 1.0
C      1  0.4219920000000  0.5642960000000  0.5668280000000 1.0
C      1  0.5702900000000  0.5495450000000  0.4980090000000 1.0
C      1  0.4224430000000  0.4681910000000  0.4891690000000 1.0
C      1  0.5195120000000  0.5263750000000  0.5402140000000 1.0
C      1  0.4734690000000  0.5605440000000  0.5879870000000 1.0
C      1  0.5152050000000  0.5525930000000  0.4951930000000 1.0
C      1  0.4308650000000  0.4437280000000  0.5022840000000 1.0
C      1  0.5775990000000  0.4810080000000  0.5947370000000 1.0
C      1  0.4775200000000  0.3982100000000  0.4782530000000 1.0
C      1  0.5471880000000  0.5651070000000  0.5445710000000 1.0
C      1  0.4081700000000  0.5189070000000  0.4439730000000 1.0
C      1  0.5866140000000  0.4954280000000  0.4682760000000 1.0
C      1  0.4543040000000  0.4331140000000  0.4876470000000 1.0
C      1  0.4984230000000  0.5432080000000  0.6030490000000 1.0
C      1  0.5897680000000  0.4610450000000  0.5057320000000 1.0
C      1  0.4933820000000  0.5093510000000  0.4873450000000 1.0
C      1  0.5377320000000  0.5471210000000  0.4547550000000 1.0
C      1  0.4742290000000  0.4693440000000  0.4402680000000 1.0
C      1  0.4382880000000  0.5332800000000  0.5445530000000 1.0
C      1  0.5813150000000  0.4706500000000  0.4465950000000 1.0
C      1  0.5201430000000  0.4037160000000  0.4600440000000 1.0
C      1  0.4766140000000  0.4590730000000  0.4870150000000 1.0
C      1  0.4194760000000  0.5114360000000  0.5539320000000 1.0
C      1  0.4983160000000  0.6013980000000  0.5324660000000 1.0
C      1  0.5088780000000  0.5655810000000  0.6080230000000 1.0
C      1  0.5789470000000  0.5331480000000  0.5231320000000 1.0
C      1  0.4963140000000  0.4090950000000  0.5353060000000 1.0
C      1  0.5550410000000  0.4631050000000  0.5949510000000 1.0
C      1  0.5155450000000  0.4049360000000  0.5138340000000 1.0
C      1  0.5447750000000  0.4329790000000  0.4871490000000 1.0
C      1  0.4627720000000  0.4596470000000  0.5801110000000 1.0
C      1  0.5720720000000  0.4590500000000  0.5343580000000 1.0
C      1  0.5397090000000  0.4893980000000  0.5186020000000 1.0
C      1  0.5001110000000  0.4272500000000  0.5584190000000 1.0
C      1  0.4604380000000  0.4066850000000  0.5002600000000 1.0
C      1  0.5256420000000  0.5674530000000  0.4704110000000 1.0
C      1  0.4286760000000  0.5675810000000  0.4909690000000 1.0
C      1  0.5469500000000  0.4123820000000  0.4667490000000 1.0
C      1  0.4320080000000  0.5341480000000  0.4360970000000 1.0
C      1  0.4494120000000  0.5323160000000  0.4605000000000 1.0
C      1  0.4502240000000  0.5817950000000  0.5256610000000 1.0
C      1  0.4537460000000  0.4263100000000  0.5448390000000 1.0
C      1  0.5214510000000  0.6084530000000  0.4904050000000 1.0
C      1  0.5268090000000  0.4370830000000  0.5643500000000 1.0
C      1  0.5130150000000  0.5029580000000  0.4681110000000 1.0
C      1  0.4323740000000  0.4415790000000  0.5315110000000 1.0
C      1  0.5468620000000  0.4422170000000  0.5397890000000 1.0
C      1  0.4953670000000  0.6101960000000  0.4776380000000 1.0
C      1  0.4599670000000  0.4515310000000  0.4213170000000 1.0
C      1  0.5379690000000  0.4738810000000  0.4213870000000 1.0
C      1  0.4888150000000  0.4561080000000  0.4600330000000 1.0
C      1  0.4234010000000  0.4940330000000  0.4276790000000 1.0
C      1  0.4337160000000  0.4682840000000  0.4356300000000 1.0
C      1  0.4751660000000  0.4973870000000  0.4414030000000 1.0
C      1  0.5366470000000  0.5482440000000  0.4264730000000 1.0
C      1  0.4738950000000  0.4257370000000  0.4351430000000 1.0
C      1  0.4601720000000  0.4963380000000  0.5186200000000 1.0
C      1  0.4724480000000  0.4370820000000  0.5647540000000 1.0
C      1  0.5235020000000  0.6049080000000  0.5195760000000 1.0
C      1  0.5196950000000  0.5553610000000  0.5444530000000 1.0
C      1  0.5821040000000  0.4466590000000  0.4797770000000 1.0
C      1  0.5593280000000  0.5220780000000  0.5690690000000 1.0
C      1  0.4680590000000  0.4070830000000  0.5286290000000 1.0
C      1  0.5203570000000  0.4239600000000  0.4061420000000 1.0
C      1  0.5416490000000  0.5899390000000  0.4801050000000 1.0
C      1  0.4843300000000  0.4978840000000  0.5589320000000 1.0
C      1  0.5008270000000  0.5621710000000  0.5231390000000 1.0
C      1  0.5943510000000  0.4894550000000  0.4980800000000 1.0
C      1  0.5467820000000  0.4801600000000  0.4918720000000 1.0
C      1  0.5174240000000  0.5697570000000  0.4186240000000 1.0
C      1  0.4601590000000  0.5061850000000  0.4637840000000 1.0
END
