TITL C-4164240-4114-730 60.1486675754007 125000 -27505.5192173377 0 0 186 (C1) n - 1
REM
REM in /home/nfs/bkarasulu/CARBON/AIRSS/Generating-Clusters/ReaxFF-fromJPCA2015/Units_Real/with-SteepDescent/Only-C1/SD-CG/Try1-3A/FIRE-CG
REM
REM
REM
REM
REM
REM ./C.cell (11c1c37f851c82e70ff6c80c92926a4b)
REM
REM compiler GCC version 9.2.1 20190827 (Red Hat 9.2.1-1)
REM options -cpp -mtune=generic -march=x86-64 -g -O0 -fpre-include=/usr/include/finclude/math-vector-fortran.h
REM seed 914665254 -760618163 1012676687 -1728213953 1280201886 2069884250 2117199805 1458121047 1536805812 -1759800260 1065449892 -941632477 -1359098708 2038164976 -394830043 -1434475093 758029270 -634391531 1220475042 1058613032 634337919 -1353765998 -1413550873 172590265 -1332832422 777422752 -537314750 -1652457094 -1977250582 -931896996 -118075206 -1473723323 862206174
REM
CELL 1.54180   50.00000   50.00000   50.00000   90.00000   90.00000   90.00000
LATT -1
SFAC C  
C      1  0.4551790000000  0.5119660000000  0.4134260000000 1.0
C      1  0.5757050000000  0.4774240000000  0.5764080000000 1.0
C      1  0.5568890000000  0.4778400000000  0.4801280000000 1.0
C      1  0.5289830000000  0.4035990000000  0.5270010000000 1.0
C      1  0.4453040000000  0.5549450000000  0.4309210000000 1.0
C      1  0.5075140000000  0.4487510000000  0.5232160000000 1.0
C      1  0.5566660000000  0.5346670000000  0.4810690000000 1.0
C      1  0.5960480000000  0.5264120000000  0.5017760000000 1.0
C      1  0.3979790000000  0.5061400000000  0.4660720000000 1.0
C      1  0.5241430000000  0.5145560000000  0.5002470000000 1.0
C      1  0.4962060000000  0.4836890000000  0.5590920000000 1.0
C      1  0.4661160000000  0.4067620000000  0.5093450000000 1.0
C      1  0.5501320000000  0.4255800000000  0.5376820000000 1.0
C      1  0.5778900000000  0.5558430000000  0.4744090000000 1.0
C      1  0.4439600000000  0.5844690000000  0.4374890000000 1.0
C      1  0.5807740000000  0.4481550000000  0.5726860000000 1.0
C      1  0.4491650000000  0.4354680000000  0.4367490000000 1.0
C      1  0.4253420000000  0.5676740000000  0.5099180000000 1.0
C      1  0.4713460000000  0.5917470000000  0.4311500000000 1.0
C      1  0.4927070000000  0.5768300000000  0.4163650000000 1.0
C      1  0.4253040000000  0.4087410000000  0.4565230000000 1.0
C      1  0.5461700000000  0.5849470000000  0.5513780000000 1.0
C      1  0.4887400000000  0.4625560000000  0.4434610000000 1.0
C      1  0.4277080000000  0.4703310000000  0.4258550000000 1.0
C      1  0.4656360000000  0.5540480000000  0.4543720000000 1.0
C      1  0.4834390000000  0.4292140000000  0.5787710000000 1.0
C      1  0.4422710000000  0.4755530000000  0.4698260000000 1.0
C      1  0.5780650000000  0.4188570000000  0.4744610000000 1.0
C      1  0.4792550000000  0.5027750000000  0.6011000000000 1.0
C      1  0.5508880000000  0.5303140000000  0.4083830000000 1.0
C      1  0.4775430000000  0.5074220000000  0.3906920000000 1.0
C      1  0.5362500000000  0.4553560000000  0.4477360000000 1.0
C      1  0.5598200000000  0.4169280000000  0.4520670000000 1.0
C      1  0.4515510000000  0.3971360000000  0.4518240000000 1.0
C      1  0.3993040000000  0.4981730000000  0.5434940000000 1.0
C      1  0.6034460000000  0.4685380000000  0.4920820000000 1.0
C      1  0.5327340000000  0.5405550000000  0.6076750000000 1.0
C      1  0.5229260000000  0.5390040000000  0.4066920000000 1.0
C      1  0.4772100000000  0.5521210000000  0.5968730000000 1.0
C      1  0.5095750000000  0.4643290000000  0.5768590000000 1.0
C      1  0.5097270000000  0.5212170000000  0.5264230000000 1.0
C      1  0.4688990000000  0.5932150000000  0.5052470000000 1.0
C      1  0.5599970000000  0.5788200000000  0.4661030000000 1.0
C      1  0.5213420000000  0.4437290000000  0.4720230000000 1.0
C      1  0.5482240000000  0.5664310000000  0.5722470000000 1.0
C      1  0.5055350000000  0.4039850000000  0.5439520000000 1.0
C      1  0.5455910000000  0.5306280000000  0.5440110000000 1.0
C      1  0.5129250000000  0.4952090000000  0.4085340000000 1.0
C      1  0.5113460000000  0.6073300000000  0.4697850000000 1.0
C      1  0.5674350000000  0.4372840000000  0.5146670000000 1.0
C      1  0.4682610000000  0.5059070000000  0.4379670000000 1.0
C      1  0.4796280000000  0.3971470000000  0.4584580000000 1.0
C      1  0.4889940000000  0.4072920000000  0.4834120000000 1.0
C      1  0.5059350000000  0.4850310000000  0.4542300000000 1.0
C      1  0.4859550000000  0.5502420000000  0.4166900000000 1.0
C      1  0.4714330000000  0.4737240000000  0.5489650000000 1.0
C      1  0.4516670000000  0.5036880000000  0.4621550000000 1.0
C      1  0.4809840000000  0.5861450000000  0.5684680000000 1.0
C      1  0.4802150000000  0.5786630000000  0.4556850000000 1.0
C      1  0.5071340000000  0.5670670000000  0.5349110000000 1.0
C      1  0.5550360000000  0.5084180000000  0.4956190000000 1.0
C      1  0.5351740000000  0.4000040000000  0.4991650000000 1.0
C      1  0.4107490000000  0.4335180000000  0.4599400000000 1.0
C      1  0.4644200000000  0.5190490000000  0.5552800000000 1.0
C      1  0.5053110000000  0.5185670000000  0.3919830000000 1.0
C      1  0.5348730000000  0.4265050000000  0.5796110000000 1.0
C      1  0.4970500000000  0.5073430000000  0.4363800000000 1.0
C      1  0.5668720000000  0.4765600000000  0.4037540000000 1.0
C      1  0.4419740000000  0.5840690000000  0.4921590000000 1.0
C      1  0.4720600000000  0.5056400000000  0.4846620000000 1.0
C      1  0.3983520000000  0.5199310000000  0.4941970000000 1.0
C      1  0.4804280000000  0.5291220000000  0.6160070000000 1.0
C      1  0.5416690000000  0.4940760000000  0.5930540000000 1.0
C      1  0.5754650000000  0.5203860000000  0.4476400000000 1.0
C      1  0.5089580000000  0.4159020000000  0.5712580000000 1.0
C      1  0.5526680000000  0.4588540000000  0.5025060000000 1.0
C      1  0.3975290000000  0.4725720000000  0.5016130000000 1.0
C      1  0.5062170000000  0.5363680000000  0.4317100000000 1.0
C      1  0.5956730000000  0.4438970000000  0.4775310000000 1.0
C      1  0.3942780000000  0.4981040000000  0.5148800000000 1.0
C      1  0.4306720000000  0.5720670000000  0.5405410000000 1.0
C      1  0.4790940000000  0.5664060000000  0.5248430000000 1.0
C      1  0.5446770000000  0.5619590000000  0.4442720000000 1.0
C      1  0.4240600000000  0.4752380000000  0.5815280000000 1.0
C      1  0.5317040000000  0.5603800000000  0.5010980000000 1.0
C      1  0.4683230000000  0.4122080000000  0.4342940000000 1.0
C      1  0.5654190000000  0.5417110000000  0.4305920000000 1.0
C      1  0.4526100000000  0.4265950000000  0.5050120000000 1.0
C      1  0.4655230000000  0.6072990000000  0.5327500000000 1.0
C      1  0.5645980000000  0.4459040000000  0.4432120000000 1.0
C      1  0.5199720000000  0.5754090000000  0.4272470000000 1.0
C      1  0.4144860000000  0.5495920000000  0.5585140000000 1.0
C      1  0.5175800000000  0.4779750000000  0.6011170000000 1.0
C      1  0.5554900000000  0.5018920000000  0.4396590000000 1.0
C      1  0.4608170000000  0.5408090000000  0.4091940000000 1.0
C      1  0.4901640000000  0.6051410000000  0.5494110000000 1.0
C      1  0.4632720000000  0.4539900000000  0.5060950000000 1.0
C      1  0.5971360000000  0.5351520000000  0.5291380000000 1.0
C      1  0.4327040000000  0.5797730000000  0.4649940000000 1.0
C      1  0.5075720000000  0.4940140000000  0.5312300000000 1.0
C      1  0.4579610000000  0.5466880000000  0.5739770000000 1.0
C      1  0.4569400000000  0.5465610000000  0.4782180000000 1.0
C      1  0.4483820000000  0.4534070000000  0.4137620000000 1.0
C      1  0.4139220000000  0.4159260000000  0.4809040000000 1.0
C      1  0.4189800000000  0.5529990000000  0.4631260000000 1.0
C      1  0.5674230000000  0.4952680000000  0.5197890000000 1.0
C      1  0.4087420000000  0.5453800000000  0.5027790000000 1.0
C      1  0.4403340000000  0.4386860000000  0.5606520000000 1.0
C      1  0.3972630000000  0.4784780000000  0.4730580000000 1.0
C      1  0.5315780000000  0.4541890000000  0.5658830000000 1.0
C      1  0.5295880000000  0.4468350000000  0.5396370000000 1.0
C      1  0.5347340000000  0.5392780000000  0.4616610000000 1.0
C      1  0.5179310000000  0.4223980000000  0.4280190000000 1.0
C      1  0.5926410000000  0.5643250000000  0.5236790000000 1.0
C      1  0.4625220000000  0.4574980000000  0.4572910000000 1.0
C      1  0.4383130000000  0.6014840000000  0.5429850000000 1.0
C      1  0.4180240000000  0.4540140000000  0.5141330000000 1.0
C      1  0.5603790000000  0.4272070000000  0.5671800000000 1.0
C      1  0.4833450000000  0.5051220000000  0.5724720000000 1.0
C      1  0.5178050000000  0.3986600000000  0.4754670000000 1.0
C      1  0.4487270000000  0.4927150000000  0.5500770000000 1.0
C      1  0.4793110000000  0.4559060000000  0.4820480000000 1.0
C      1  0.4630660000000  0.5220510000000  0.5259290000000 1.0
C      1  0.5506000000000  0.4531230000000  0.3952260000000 1.0
C      1  0.4767210000000  0.4553470000000  0.4047510000000 1.0
C      1  0.4623630000000  0.5674160000000  0.5527150000000 1.0
C      1  0.4888310000000  0.4802270000000  0.3953640000000 1.0
C      1  0.5888590000000  0.4744260000000  0.5176270000000 1.0
C      1  0.4954050000000  0.4346750000000  0.4774900000000 1.0
C      1  0.5475380000000  0.5001630000000  0.4106230000000 1.0
C      1  0.5514850000000  0.5490640000000  0.5182870000000 1.0
C      1  0.5757000000000  0.4600400000000  0.4653900000000 1.0
C      1  0.4080240000000  0.5126490000000  0.4387070000000 1.0
C      1  0.5835950000000  0.4658910000000  0.4248940000000 1.0
C      1  0.6013170000000  0.4802940000000  0.4426100000000 1.0
C      1  0.5078240000000  0.5307880000000  0.6160900000000 1.0
C      1  0.4267600000000  0.5506910000000  0.5842020000000 1.0
C      1  0.4809830000000  0.5354900000000  0.4858730000000 1.0
C      1  0.5499510000000  0.4831230000000  0.5663170000000 1.0
C      1  0.4757650000000  0.5415690000000  0.5124540000000 1.0
C      1  0.4193290000000  0.4510610000000  0.5435140000000 1.0
C      1  0.5384320000000  0.4837210000000  0.4559770000000 1.0
C      1  0.4335590000000  0.5295650000000  0.4733880000000 1.0
C      1  0.5876000000000  0.5238840000000  0.5555840000000 1.0
C      1  0.4120990000000  0.5438740000000  0.4334030000000 1.0
C      1  0.4974840000000  0.5710220000000  0.5884130000000 1.0
C      1  0.4458220000000  0.4551450000000  0.5840750000000 1.0
C      1  0.6065830000000  0.4487900000000  0.5571230000000 1.0
C      1  0.5491820000000  0.5821150000000  0.4908680000000 1.0
C      1  0.5167850000000  0.5421830000000  0.5447680000000 1.0
C      1  0.4059810000000  0.4724960000000  0.5580620000000 1.0
C      1  0.4943690000000  0.6068980000000  0.4943130000000 1.0
C      1  0.5178170000000  0.5953160000000  0.5384590000000 1.0
C      1  0.4891000000000  0.4760530000000  0.6090220000000 1.0
C      1  0.5949610000000  0.5176840000000  0.4744500000000 1.0
C      1  0.4641240000000  0.4214460000000  0.5580180000000 1.0
C      1  0.5502010000000  0.5215810000000  0.5930460000000 1.0
C      1  0.5264730000000  0.5650940000000  0.5908540000000 1.0
C      1  0.5315450000000  0.4083990000000  0.4511150000000 1.0
C      1  0.6046220000000  0.4900340000000  0.4708870000000 1.0
C      1  0.4419570000000  0.4748380000000  0.5008350000000 1.0
C      1  0.4770510000000  0.4069550000000  0.5360330000000 1.0
C      1  0.4280880000000  0.4229060000000  0.5049430000000 1.0
C      1  0.5513370000000  0.5013870000000  0.5419830000000 1.0
C      1  0.4167990000000  0.4625720000000  0.4557050000000 1.0
C      1  0.6041990000000  0.4753510000000  0.5431420000000 1.0
C      1  0.5871730000000  0.5716100000000  0.4965000000000 1.0
C      1  0.5632330000000  0.4129940000000  0.4984810000000 1.0
C      1  0.5093740000000  0.5830420000000  0.4531970000000 1.0
C      1  0.4560210000000  0.4996060000000  0.5095820000000 1.0
C      1  0.5178680000000  0.6097260000000  0.5102290000000 1.0
C      1  0.5640760000000  0.5365840000000  0.5708660000000 1.0
C      1  0.4745470000000  0.4540380000000  0.5929540000000 1.0
C      1  0.4917990000000  0.4383190000000  0.4266950000000 1.0
C      1  0.5258280000000  0.4484210000000  0.4995400000000 1.0
C      1  0.4111610000000  0.5195600000000  0.5592010000000 1.0
C      1  0.4257300000000  0.4980030000000  0.4214650000000 1.0
C      1  0.4314760000000  0.5018640000000  0.5726220000000 1.0
C      1  0.5362050000000  0.6058810000000  0.4864270000000 1.0
C      1  0.5125800000000  0.4877310000000  0.5037640000000 1.0
C      1  0.5641430000000  0.5727250000000  0.5320180000000 1.0
C      1  0.5152460000000  0.5421620000000  0.4840650000000 1.0
C      1  0.5326690000000  0.4449980000000  0.4182090000000 1.0
C      1  0.4936120000000  0.4835420000000  0.4819090000000 1.0
C      1  0.5933040000000  0.4961450000000  0.5619120000000 1.0
C      1  0.4810850000000  0.4580590000000  0.5281390000000 1.0
END
