TITL C-4164233-775-739 -6.49284442616871 125000 -17580.7638788956 0 0 119 (C1) n - 1
REM
REM in /home/nfs/bkarasulu/CARBON/AIRSS/Generating-Clusters/ReaxFF-fromJPCA2015/Units_Real/with-SteepDescent/Only-C1/SD-CG/Try1-3A/FIRE-CG
REM
REM
REM
REM
REM
REM ./C.cell (11c1c37f851c82e70ff6c80c92926a4b)
REM
REM compiler GCC version 9.2.1 20190827 (Red Hat 9.2.1-1)
REM options -cpp -mtune=generic -march=x86-64 -g -O0 -fpre-include=/usr/include/finclude/math-vector-fortran.h
REM seed -591939692 1183629036 244813514 -1550310772 -1524055863 1602259400 -1888150667 282405945 35805541 -932161838 -1651848605 -1524327678 294991412 1791334491 1248708054 -36592716 -2091284046 -113216888 1837168415 113298611 1422592876 738135393 -1654220981 -2105910551 -92745404 1446869018 -2146921231 -1215649864 -587097849 -167576050 2038086159 1992730249 2014170428
REM
CELL 1.54180   50.00000   50.00000   50.00000   90.00000   90.00000   90.00000
LATT -1
SFAC C  
C      1  0.5673260000000  0.5746690000000  0.4528240000000 1.0
C      1  0.5352060000000  0.4631690000000  0.5092900000000 1.0
C      1  0.4903710000000  0.5154130000000  0.4534920000000 1.0
C      1  0.4990350000000  0.4628940000000  0.4156450000000 1.0
C      1  0.4595360000000  0.5547720000000  0.5167250000000 1.0
C      1  0.5044960000000  0.5290060000000  0.5968110000000 1.0
C      1  0.4241570000000  0.5107770000000  0.5621360000000 1.0
C      1  0.5800770000000  0.5693950000000  0.5105000000000 1.0
C      1  0.4241950000000  0.4575100000000  0.5514980000000 1.0
C      1  0.4455920000000  0.4514490000000  0.4689140000000 1.0
C      1  0.5772820000000  0.4784020000000  0.4949720000000 1.0
C      1  0.4843640000000  0.4717350000000  0.5243670000000 1.0
C      1  0.5231490000000  0.4148540000000  0.4677430000000 1.0
C      1  0.5086260000000  0.5066300000000  0.5066290000000 1.0
C      1  0.3988740000000  0.5045770000000  0.4947460000000 1.0
C      1  0.4961820000000  0.4226520000000  0.5292760000000 1.0
C      1  0.5348420000000  0.5090320000000  0.4981160000000 1.0
C      1  0.5432540000000  0.5715400000000  0.4456740000000 1.0
C      1  0.5305610000000  0.4235090000000  0.4415550000000 1.0
C      1  0.3996570000000  0.4891770000000  0.5180230000000 1.0
C      1  0.5174810000000  0.5644830000000  0.4389910000000 1.0
C      1  0.4200090000000  0.4610240000000  0.4396650000000 1.0
C      1  0.5103190000000  0.4936010000000  0.4555670000000 1.0
C      1  0.4358720000000  0.4820250000000  0.5712030000000 1.0
C      1  0.5385180000000  0.5328550000000  0.4820910000000 1.0
C      1  0.4541110000000  0.4806720000000  0.4068630000000 1.0
C      1  0.4042150000000  0.5242170000000  0.4743660000000 1.0
C      1  0.4534670000000  0.4767450000000  0.5965170000000 1.0
C      1  0.4761810000000  0.5266760000000  0.4760790000000 1.0
C      1  0.4594940000000  0.5466240000000  0.4351490000000 1.0
C      1  0.4929020000000  0.5044020000000  0.6024220000000 1.0
C      1  0.5073770000000  0.5752550000000  0.4882420000000 1.0
C      1  0.5252040000000  0.4709490000000  0.5367950000000 1.0
C      1  0.4606670000000  0.4870270000000  0.5556410000000 1.0
C      1  0.5883630000000  0.5582600000000  0.4640170000000 1.0
C      1  0.5377530000000  0.5755240000000  0.5387760000000 1.0
C      1  0.5098500000000  0.5847130000000  0.5386660000000 1.0
C      1  0.5300810000000  0.5507310000000  0.5241730000000 1.0
C      1  0.4487000000000  0.5039720000000  0.5175770000000 1.0
C      1  0.4673930000000  0.5274930000000  0.5198280000000 1.0
C      1  0.4831430000000  0.4190790000000  0.5553420000000 1.0
C      1  0.4572480000000  0.4356810000000  0.4909190000000 1.0
C      1  0.4602410000000  0.4194940000000  0.5500440000000 1.0
C      1  0.4125270000000  0.4652080000000  0.5277010000000 1.0
C      1  0.5011000000000  0.4584460000000  0.5822040000000 1.0
C      1  0.4235190000000  0.5394220000000  0.4919180000000 1.0
C      1  0.4688560000000  0.5682310000000  0.4529820000000 1.0
C      1  0.5054770000000  0.4894890000000  0.5298340000000 1.0
C      1  0.4588700000000  0.4768360000000  0.5285880000000 1.0
C      1  0.5576270000000  0.4853320000000  0.4306490000000 1.0
C      1  0.5945410000000  0.5232820000000  0.5041270000000 1.0
C      1  0.4459000000000  0.4477680000000  0.5153350000000 1.0
C      1  0.4817860000000  0.4779650000000  0.5996000000000 1.0
C      1  0.5045610000000  0.5143830000000  0.5528620000000 1.0
C      1  0.4648230000000  0.5331150000000  0.5757830000000 1.0
C      1  0.4916400000000  0.4472640000000  0.5125650000000 1.0
C      1  0.5245640000000  0.4631780000000  0.5641520000000 1.0
C      1  0.4154840000000  0.5157210000000  0.4478050000000 1.0
C      1  0.4356830000000  0.5362190000000  0.5662910000000 1.0
C      1  0.5718620000000  0.4672880000000  0.5526080000000 1.0
C      1  0.5919390000000  0.5519110000000  0.4943450000000 1.0
C      1  0.4145290000000  0.4852280000000  0.4513770000000 1.0
C      1  0.4311110000000  0.4759980000000  0.4762210000000 1.0
C      1  0.4881230000000  0.5483820000000  0.5829280000000 1.0
C      1  0.5504580000000  0.5244150000000  0.4562630000000 1.0
C      1  0.5275980000000  0.5165770000000  0.5773930000000 1.0
C      1  0.5633770000000  0.4398250000000  0.5460780000000 1.0
C      1  0.5053720000000  0.5634740000000  0.5602140000000 1.0
C      1  0.5502960000000  0.5058300000000  0.4082280000000 1.0
C      1  0.5487900000000  0.4234880000000  0.5245110000000 1.0
C      1  0.5345140000000  0.5658630000000  0.5658150000000 1.0
C      1  0.4180740000000  0.5393650000000  0.5209990000000 1.0
C      1  0.4496070000000  0.5732030000000  0.5358440000000 1.0
C      1  0.4709300000000  0.4615890000000  0.4214370000000 1.0
C      1  0.5083570000000  0.4582700000000  0.4912720000000 1.0
C      1  0.4714430000000  0.4583310000000  0.4526330000000 1.0
C      1  0.5105940000000  0.5414720000000  0.4205590000000 1.0
C      1  0.4447750000000  0.4984810000000  0.4884950000000 1.0
C      1  0.5561580000000  0.5149680000000  0.5681930000000 1.0
C      1  0.5660760000000  0.5138520000000  0.3893100000000 1.0
C      1  0.5501470000000  0.4856100000000  0.4996190000000 1.0
C      1  0.5518070000000  0.4536910000000  0.5689850000000 1.0
C      1  0.4878380000000  0.4386790000000  0.5717660000000 1.0
C      1  0.5053390000000  0.4398060000000  0.4330450000000 1.0
C      1  0.5191680000000  0.5152050000000  0.4113580000000 1.0
C      1  0.4680450000000  0.5802290000000  0.5151240000000 1.0
C      1  0.5216530000000  0.4131920000000  0.5190140000000 1.0
C      1  0.5828140000000  0.4755510000000  0.4420770000000 1.0
C      1  0.5770740000000  0.4487180000000  0.4569150000000 1.0
C      1  0.4847240000000  0.4313530000000  0.4522890000000 1.0
C      1  0.5003400000000  0.4930070000000  0.4084050000000 1.0
C      1  0.4464240000000  0.5259420000000  0.4782560000000 1.0
C      1  0.5683140000000  0.5866270000000  0.5264830000000 1.0
C      1  0.4825890000000  0.4221640000000  0.4797860000000 1.0
C      1  0.4762130000000  0.5097960000000  0.5622050000000 1.0
C      1  0.5093190000000  0.5404810000000  0.5404220000000 1.0
C      1  0.6001790000000  0.4940790000000  0.4571180000000 1.0
C      1  0.4878790000000  0.5232180000000  0.5011370000000 1.0
C      1  0.5549450000000  0.4394450000000  0.5014490000000 1.0
C      1  0.5753430000000  0.5363500000000  0.4526000000000 1.0
C      1  0.5543620000000  0.4361240000000  0.4492320000000 1.0
C      1  0.5283840000000  0.5564500000000  0.4955330000000 1.0
C      1  0.5968000000000  0.4988990000000  0.4866750000000 1.0
C      1  0.5395150000000  0.4968230000000  0.4498120000000 1.0
C      1  0.5775680000000  0.4501170000000  0.4871130000000 1.0
C      1  0.4372470000000  0.4335490000000  0.5396710000000 1.0
C      1  0.4471090000000  0.5090410000000  0.4102030000000 1.0
C      1  0.4846090000000  0.5313250000000  0.4292950000000 1.0
C      1  0.4735850000000  0.5009180000000  0.3991130000000 1.0
C      1  0.4369650000000  0.5263200000000  0.4317530000000 1.0
C      1  0.4960220000000  0.5852250000000  0.5133720000000 1.0
C      1  0.4977720000000  0.4710000000000  0.4687530000000 1.0
C      1  0.4975880000000  0.5728580000000  0.4603850000000 1.0
C      1  0.4180270000000  0.5115500000000  0.5332030000000 1.0
C      1  0.5463650000000  0.5410030000000  0.5746800000000 1.0
C      1  0.5089120000000  0.4104550000000  0.4911250000000 1.0
C      1  0.5710490000000  0.4978650000000  0.5477690000000 1.0
C      1  0.5828600000000  0.5107330000000  0.5258760000000 1.0
C      1  0.4287960000000  0.5542700000000  0.5434000000000 1.0
END
