TITL C-4164236-1577-382 -2.08825665059967 125000 -14976.6190141606 0 0 99 (C1) n - 1
REM
REM in /home/nfs/bkarasulu/CARBON/AIRSS/Generating-Clusters/ReaxFF-fromJPCA2015/Units_Real/with-SteepDescent/Only-C1/SD-CG/Try1-3A/FIRE-CG
REM
REM
REM
REM
REM
REM ./C.cell (11c1c37f851c82e70ff6c80c92926a4b)
REM
REM compiler GCC version 9.2.1 20190827 (Red Hat 9.2.1-1)
REM options -cpp -mtune=generic -march=x86-64 -g -O0 -fpre-include=/usr/include/finclude/math-vector-fortran.h
REM seed 223267613 1294966053 -1377506011 1802481150 -437947714 -1441779489 -2042174609 1392135674 -118628305 1436464193 -1091030290 1005230278 -170587285 -1991619506 1603616630 58967396 481909667 -1944191545 -1882625808 -811083357 1635690040 265085121 530620230 -924261253 1603945939 366252599 -2132477433 1584010231 662248860 646576067 2062182598 -987197839 -1804698254
REM
CELL 1.54180   50.00000   50.00000   50.00000   90.00000   90.00000   90.00000
LATT -1
SFAC C  
C      1  0.4380850000000  0.4887920000000  0.5364330000000 1.0
C      1  0.5688950000000  0.4863450000000  0.4541850000000 1.0
C      1  0.4805860000000  0.4919990000000  0.4625530000000 1.0
C      1  0.5507200000000  0.4230910000000  0.4800120000000 1.0
C      1  0.5608560000000  0.4375500000000  0.5040380000000 1.0
C      1  0.5332210000000  0.4246200000000  0.4568220000000 1.0
C      1  0.4354540000000  0.4780690000000  0.4624660000000 1.0
C      1  0.4659180000000  0.5154970000000  0.5729030000000 1.0
C      1  0.4133710000000  0.4952030000000  0.4548490000000 1.0
C      1  0.5738900000000  0.5325100000000  0.4832360000000 1.0
C      1  0.5256210000000  0.5499200000000  0.5920080000000 1.0
C      1  0.4591660000000  0.5584470000000  0.5473960000000 1.0
C      1  0.4253920000000  0.5505650000000  0.4674230000000 1.0
C      1  0.5250350000000  0.4575540000000  0.4200730000000 1.0
C      1  0.4691630000000  0.5655770000000  0.4877560000000 1.0
C      1  0.5818260000000  0.5307660000000  0.5125100000000 1.0
C      1  0.5444880000000  0.4436070000000  0.4335720000000 1.0
C      1  0.4606470000000  0.4744340000000  0.4486250000000 1.0
C      1  0.5574120000000  0.5138370000000  0.5751870000000 1.0
C      1  0.5130180000000  0.4879880000000  0.5373240000000 1.0
C      1  0.4436080000000  0.4275050000000  0.4906380000000 1.0
C      1  0.5034030000000  0.4338420000000  0.5566170000000 1.0
C      1  0.5744700000000  0.5007950000000  0.5571450000000 1.0
C      1  0.5094800000000  0.5495980000000  0.5740300000000 1.0
C      1  0.4822500000000  0.4986350000000  0.5860450000000 1.0
C      1  0.4786070000000  0.4564690000000  0.4330080000000 1.0
C      1  0.5753770000000  0.4615280000000  0.4965060000000 1.0
C      1  0.5424100000000  0.4584870000000  0.5695940000000 1.0
C      1  0.5007390000000  0.5719730000000  0.5711800000000 1.0
C      1  0.4964890000000  0.4554140000000  0.5762940000000 1.0
C      1  0.5363910000000  0.5237130000000  0.5922340000000 1.0
C      1  0.4617260000000  0.5205290000000  0.4208910000000 1.0
C      1  0.4919240000000  0.4048090000000  0.4842960000000 1.0
C      1  0.4591840000000  0.5137810000000  0.4961190000000 1.0
C      1  0.4112450000000  0.5067320000000  0.4816250000000 1.0
C      1  0.4646760000000  0.5668880000000  0.4408450000000 1.0
C      1  0.5130030000000  0.4372080000000  0.5037540000000 1.0
C      1  0.5053690000000  0.5003020000000  0.4221270000000 1.0
C      1  0.5379950000000  0.5554340000000  0.4626050000000 1.0
C      1  0.4948500000000  0.5666400000000  0.4402350000000 1.0
C      1  0.5592040000000  0.5575730000000  0.4822500000000 1.0
C      1  0.5313210000000  0.4382780000000  0.5512360000000 1.0
C      1  0.5867490000000  0.5069250000000  0.5287880000000 1.0
C      1  0.5199300000000  0.4706790000000  0.5839930000000 1.0
C      1  0.5716480000000  0.5547790000000  0.5265740000000 1.0
C      1  0.4899530000000  0.4531930000000  0.4943270000000 1.0
C      1  0.5502740000000  0.4988820000000  0.5106520000000 1.0
C      1  0.5250600000000  0.5227590000000  0.4246590000000 1.0
C      1  0.5114160000000  0.5689620000000  0.4651810000000 1.0
C      1  0.5004830000000  0.4740180000000  0.4761970000000 1.0
C      1  0.4998770000000  0.4125220000000  0.5117260000000 1.0
C      1  0.4631390000000  0.4080060000000  0.4830680000000 1.0
C      1  0.5462990000000  0.5543190000000  0.5427790000000 1.0
C      1  0.5007770000000  0.4707360000000  0.4179850000000 1.0
C      1  0.4313670000000  0.5170150000000  0.5390280000000 1.0
C      1  0.4498640000000  0.5673730000000  0.4658070000000 1.0
C      1  0.4857280000000  0.5705210000000  0.5472800000000 1.0
C      1  0.4856750000000  0.4256480000000  0.5344550000000 1.0
C      1  0.4745370000000  0.4739790000000  0.5721000000000 1.0
C      1  0.4672570000000  0.4376170000000  0.4742550000000 1.0
C      1  0.4381590000000  0.5041350000000  0.4123110000000 1.0
C      1  0.5563210000000  0.4680750000000  0.4748050000000 1.0
C      1  0.4882920000000  0.4922200000000  0.5274290000000 1.0
C      1  0.4494860000000  0.5470190000000  0.4265980000000 1.0
C      1  0.5605910000000  0.4677980000000  0.4342750000000 1.0
C      1  0.5310490000000  0.5069090000000  0.4901710000000 1.0
C      1  0.5154950000000  0.5085700000000  0.5534500000000 1.0
C      1  0.5059270000000  0.5700860000000  0.5188700000000 1.0
C      1  0.4202270000000  0.5361740000000  0.5193150000000 1.0
C      1  0.5658920000000  0.5162920000000  0.4600010000000 1.0
C      1  0.5354440000000  0.5756560000000  0.5257980000000 1.0
C      1  0.4146120000000  0.5343170000000  0.4898080000000 1.0
C      1  0.5272580000000  0.5318290000000  0.5393940000000 1.0
C      1  0.5585740000000  0.5734740000000  0.5078160000000 1.0
C      1  0.4839530000000  0.5100010000000  0.4387560000000 1.0
C      1  0.5106720000000  0.5400570000000  0.5174820000000 1.0
C      1  0.5098880000000  0.5461190000000  0.4284920000000 1.0
C      1  0.5777730000000  0.4888370000000  0.5075720000000 1.0
C      1  0.5363330000000  0.4448750000000  0.5220010000000 1.0
C      1  0.4169790000000  0.5134480000000  0.4317990000000 1.0
C      1  0.4490670000000  0.5322590000000  0.5588940000000 1.0
C      1  0.4373460000000  0.4928150000000  0.4906780000000 1.0
C      1  0.4420590000000  0.5556610000000  0.5236080000000 1.0
C      1  0.4666030000000  0.4764390000000  0.5425260000000 1.0
C      1  0.5384200000000  0.4786510000000  0.5290440000000 1.0
C      1  0.4427660000000  0.4458340000000  0.5134490000000 1.0
C      1  0.5579340000000  0.4770960000000  0.5534070000000 1.0
C      1  0.5047270000000  0.4175480000000  0.4601320000000 1.0
C      1  0.5142150000000  0.5000690000000  0.5829560000000 1.0
C      1  0.4240210000000  0.5408200000000  0.4400610000000 1.0
C      1  0.5441740000000  0.5306340000000  0.4475150000000 1.0
C      1  0.4703570000000  0.4491540000000  0.5242010000000 1.0
C      1  0.4312800000000  0.4726050000000  0.5141870000000 1.0
C      1  0.4841170000000  0.5034770000000  0.5008440000000 1.0
C      1  0.4827250000000  0.4325590000000  0.4482040000000 1.0
C      1  0.4591450000000  0.5417500000000  0.5029620000000 1.0
C      1  0.5061220000000  0.5211160000000  0.4960830000000 1.0
C      1  0.4967680000000  0.5740730000000  0.4898100000000 1.0
C      1  0.5287130000000  0.4811150000000  0.4777980000000 1.0
END
