TITL C-4164236-1577-689 0.876015789912678 125000 -8077.56310982564 0 0 56 (C1) n - 1
REM
REM in /home/nfs/bkarasulu/CARBON/AIRSS/Generating-Clusters/ReaxFF-fromJPCA2015/Units_Real/with-SteepDescent/Only-C1/SD-CG/Try1-3A/FIRE-CG
REM
REM
REM
REM
REM
REM ./C.cell (11c1c37f851c82e70ff6c80c92926a4b)
REM
REM compiler GCC version 9.2.1 20190827 (Red Hat 9.2.1-1)
REM options -cpp -mtune=generic -march=x86-64 -g -O0 -fpre-include=/usr/include/finclude/math-vector-fortran.h
REM seed -531095024 1424770529 -526298379 -1469537559 1249492037 -243993146 49243954 -928771475 -1214616194 2058988251 -975656666 -636567360 16826280 723006914 1866758232 -315587203 1873894191 -1487821765 208467685 -1276586534 -1315153716 1830546564 225364335 1074063059 -87887364 -1237095219 19893983 2117943168 -1134576003 858358016 -1592592473 -1335877668 -648487034
REM
CELL 1.54180   50.00000   50.00000   50.00000   90.00000   90.00000   90.00000
LATT -1
SFAC C  
C      1  0.4646230000000  0.4260120000000  0.5007590000000 1.0
C      1  0.5447580000000  0.4552810000000  0.4879900000000 1.0
C      1  0.4311680000000  0.4983640000000  0.5042720000000 1.0
C      1  0.5061700000000  0.4471860000000  0.4395570000000 1.0
C      1  0.4455420000000  0.4289940000000  0.5199770000000 1.0
C      1  0.5388460000000  0.4785770000000  0.5503370000000 1.0
C      1  0.4660710000000  0.5074160000000  0.4386910000000 1.0
C      1  0.4847870000000  0.5098470000000  0.5082350000000 1.0
C      1  0.5643560000000  0.4958370000000  0.4802900000000 1.0
C      1  0.4871760000000  0.5438190000000  0.4689610000000 1.0
C      1  0.4568390000000  0.5578200000000  0.5149370000000 1.0
C      1  0.5269900000000  0.4592720000000  0.5687060000000 1.0
C      1  0.4866840000000  0.5743160000000  0.5451320000000 1.0
C      1  0.5073090000000  0.5627530000000  0.5627530000000 1.0
C      1  0.5455580000000  0.4869470000000  0.4318110000000 1.0
C      1  0.5203530000000  0.4704580000000  0.5292020000000 1.0
C      1  0.4732930000000  0.4629190000000  0.5497250000000 1.0
C      1  0.4534380000000  0.5275390000000  0.4527650000000 1.0
C      1  0.5395640000000  0.5016820000000  0.4934490000000 1.0
C      1  0.5296610000000  0.5461050000000  0.5599840000000 1.0
C      1  0.5084650000000  0.4316230000000  0.5225200000000 1.0
C      1  0.5252820000000  0.4670970000000  0.4334070000000 1.0
C      1  0.5350410000000  0.4288950000000  0.4807460000000 1.0
C      1  0.4705460000000  0.4896620000000  0.5499460000000 1.0
C      1  0.4495630000000  0.4886920000000  0.4829330000000 1.0
C      1  0.4360370000000  0.5248570000000  0.5129690000000 1.0
C      1  0.4850350000000  0.4249320000000  0.4826180000000 1.0
C      1  0.5272780000000  0.5744800000000  0.4994350000000 1.0
C      1  0.5668440000000  0.4856950000000  0.4531520000000 1.0
C      1  0.4672690000000  0.5301440000000  0.5528410000000 1.0
C      1  0.5448930000000  0.5072680000000  0.5543810000000 1.0
C      1  0.5486620000000  0.5306440000000  0.5575470000000 1.0
C      1  0.4964640000000  0.4716640000000  0.4832100000000 1.0
C      1  0.5019410000000  0.5693170000000  0.4679300000000 1.0
C      1  0.5039610000000  0.4499810000000  0.5447100000000 1.0
C      1  0.5364480000000  0.5380380000000  0.4478400000000 1.0
C      1  0.5006600000000  0.5810610000000  0.4949500000000 1.0
C      1  0.5110760000000  0.4193670000000  0.4977460000000 1.0
C      1  0.4758780000000  0.4875970000000  0.4927730000000 1.0
C      1  0.5251860000000  0.4319540000000  0.4542720000000 1.0
C      1  0.4800260000000  0.5316170000000  0.4432100000000 1.0
C      1  0.4797310000000  0.5530760000000  0.5617150000000 1.0
C      1  0.4992660000000  0.5287870000000  0.4921660000000 1.0
C      1  0.4448060000000  0.5409870000000  0.5342200000000 1.0
C      1  0.4457410000000  0.4996140000000  0.4568660000000 1.0
C      1  0.5284560000000  0.5275090000000  0.4946020000000 1.0
C      1  0.5421120000000  0.5537880000000  0.4867850000000 1.0
C      1  0.5659010000000  0.4682730000000  0.4754250000000 1.0
C      1  0.4785350000000  0.5749850000000  0.5169490000000 1.0
C      1  0.5308070000000  0.5623510000000  0.4602790000000 1.0
C      1  0.4305170000000  0.4774360000000  0.5265060000000 1.0
C      1  0.5414390000000  0.5148770000000  0.4382800000000 1.0
C      1  0.4818430000000  0.5117130000000  0.5374700000000 1.0
C      1  0.4469770000000  0.4568450000000  0.5377010000000 1.0
C      1  0.5243500000000  0.4746640000000  0.4978980000000 1.0
C      1  0.4897810000000  0.4493670000000  0.4664670000000 1.0
END
