TITL C-4164247-2821-548 29.3714508274502 125000 -20284.9727284787 0 0 136 (C1) n - 1
REM
REM in /home/nfs/bkarasulu/CARBON/AIRSS/Generating-Clusters/ReaxFF-fromJPCA2015/Units_Real/with-SteepDescent/Only-C1/SD-CG/Try1-3A/FIRE-CG
REM
REM
REM
REM
REM
REM ./C.cell (11c1c37f851c82e70ff6c80c92926a4b)
REM
REM compiler GCC version 9.2.1 20190827 (Red Hat 9.2.1-1)
REM options -cpp -mtune=generic -march=x86-64 -g -O0 -fpre-include=/usr/include/finclude/math-vector-fortran.h
REM seed 1223930260 -1817883858 -1991545169 145560237 -1711136075 -1787212239 -168371071 -504772779 -1406319477 -145603555 -840432237 1400425719 -776597018 -1715213901 1559097078 -837448790 1576741994 1748873648 -1584041413 -1531177870 -549994382 1598810203 -1416210004 -611710178 151740121 -1766107446 2007844769 -2093207546 1823758152 -1591549411 1635179047 1918277304 1790148559
REM
CELL 1.54180   50.00000   50.00000   50.00000   90.00000   90.00000   90.00000
LATT -1
SFAC C  
C      1  0.4961150000000  0.5424160000000  0.3992520000000 1.0
C      1  0.4315050000000  0.4385610000000  0.5409170000000 1.0
C      1  0.4406870000000  0.4368550000000  0.4468680000000 1.0
C      1  0.4375320000000  0.4664050000000  0.4457290000000 1.0
C      1  0.4161220000000  0.5573060000000  0.4829030000000 1.0
C      1  0.4850950000000  0.5204670000000  0.5057080000000 1.0
C      1  0.4772190000000  0.5664760000000  0.4950410000000 1.0
C      1  0.5027280000000  0.5738760000000  0.5677640000000 1.0
C      1  0.4750230000000  0.4631400000000  0.5935140000000 1.0
C      1  0.4770190000000  0.4656780000000  0.5430170000000 1.0
C      1  0.5936670000000  0.5111830000000  0.5369960000000 1.0
C      1  0.4336220000000  0.5021700000000  0.4877420000000 1.0
C      1  0.5164060000000  0.4907150000000  0.5060580000000 1.0
C      1  0.5473900000000  0.5788980000000  0.5129050000000 1.0
C      1  0.4141160000000  0.4996430000000  0.5695770000000 1.0
C      1  0.5952310000000  0.4964180000000  0.4698000000000 1.0
C      1  0.5783460000000  0.4373570000000  0.5124620000000 1.0
C      1  0.4846700000000  0.4779410000000  0.4125230000000 1.0
C      1  0.5038310000000  0.4542760000000  0.5466010000000 1.0
C      1  0.5079380000000  0.5663080000000  0.5389310000000 1.0
C      1  0.5172830000000  0.5561580000000  0.4810520000000 1.0
C      1  0.5272290000000  0.5971590000000  0.4709350000000 1.0
C      1  0.5004240000000  0.4102080000000  0.5536000000000 1.0
C      1  0.4909620000000  0.4722060000000  0.4995450000000 1.0
C      1  0.5168690000000  0.4323850000000  0.5623380000000 1.0
C      1  0.4495650000000  0.5015950000000  0.5315660000000 1.0
C      1  0.5339790000000  0.5264660000000  0.4082780000000 1.0
C      1  0.5112100000000  0.5135690000000  0.5175720000000 1.0
C      1  0.5119680000000  0.3989770000000  0.5269320000000 1.0
C      1  0.4876990000000  0.4015740000000  0.5151840000000 1.0
C      1  0.5361080000000  0.4301530000000  0.4286540000000 1.0
C      1  0.3996680000000  0.5391320000000  0.4999130000000 1.0
C      1  0.4711440000000  0.5308740000000  0.4090350000000 1.0
C      1  0.4409110000000  0.5323090000000  0.5242100000000 1.0
C      1  0.5089240000000  0.4528670000000  0.5184480000000 1.0
C      1  0.5408600000000  0.5654840000000  0.5373540000000 1.0
C      1  0.5327500000000  0.4938950000000  0.4487970000000 1.0
C      1  0.4748080000000  0.5007610000000  0.5190580000000 1.0
C      1  0.5875490000000  0.4644680000000  0.5107330000000 1.0
C      1  0.4628340000000  0.4400230000000  0.5766070000000 1.0
C      1  0.4127640000000  0.4407560000000  0.4934500000000 1.0
C      1  0.5483530000000  0.5065020000000  0.4242970000000 1.0
C      1  0.4213870000000  0.4546090000000  0.5178000000000 1.0
C      1  0.5211700000000  0.5838270000000  0.4966930000000 1.0
C      1  0.4555010000000  0.4201630000000  0.4834080000000 1.0
C      1  0.4659960000000  0.5685750000000  0.4395760000000 1.0
C      1  0.4942270000000  0.4951290000000  0.3931910000000 1.0
C      1  0.5459050000000  0.4309640000000  0.5581590000000 1.0
C      1  0.4542950000000  0.5461500000000  0.4276910000000 1.0
C      1  0.5318690000000  0.5369190000000  0.4651980000000 1.0
C      1  0.5251370000000  0.5755640000000  0.4316770000000 1.0
C      1  0.4574530000000  0.5082270000000  0.4649790000000 1.0
C      1  0.5245590000000  0.5067940000000  0.5419070000000 1.0
C      1  0.5481340000000  0.4088550000000  0.4874520000000 1.0
C      1  0.5637270000000  0.4486810000000  0.5733020000000 1.0
C      1  0.4687700000000  0.4268220000000  0.4428790000000 1.0
C      1  0.4834010000000  0.4636670000000  0.4667580000000 1.0
C      1  0.4935730000000  0.5845040000000  0.5161310000000 1.0
C      1  0.4521140000000  0.4182880000000  0.5370740000000 1.0
C      1  0.5484050000000  0.4756960000000  0.4738070000000 1.0
C      1  0.5780930000000  0.5344270000000  0.5310840000000 1.0
C      1  0.5161210000000  0.4167310000000  0.4423480000000 1.0
C      1  0.5579430000000  0.5463260000000  0.5494510000000 1.0
C      1  0.5883480000000  0.4854810000000  0.4431670000000 1.0
C      1  0.4609040000000  0.4797640000000  0.4569000000000 1.0
C      1  0.5766610000000  0.5086230000000  0.4301560000000 1.0
C      1  0.5391420000000  0.4035370000000  0.5144240000000 1.0
C      1  0.4990310000000  0.4635320000000  0.4341520000000 1.0
C      1  0.4711810000000  0.5130300000000  0.5794260000000 1.0
C      1  0.5824880000000  0.4459570000000  0.4670060000000 1.0
C      1  0.5498950000000  0.4547040000000  0.4273950000000 1.0
C      1  0.4725360000000  0.4193070000000  0.5585260000000 1.0
C      1  0.5900780000000  0.5239810000000  0.4759350000000 1.0
C      1  0.4244840000000  0.5237620000000  0.5030950000000 1.0
C      1  0.4173260000000  0.5363680000000  0.4620270000000 1.0
C      1  0.4115930000000  0.5056330000000  0.4681560000000 1.0
C      1  0.5267170000000  0.4726400000000  0.4320320000000 1.0
C      1  0.4915590000000  0.5489230000000  0.4756910000000 1.0
C      1  0.4292050000000  0.4269450000000  0.4723530000000 1.0
C      1  0.5403720000000  0.5382940000000  0.5735430000000 1.0
C      1  0.5819850000000  0.5314140000000  0.4491040000000 1.0
C      1  0.4771860000000  0.5890440000000  0.4526260000000 1.0
C      1  0.4441360000000  0.5813880000000  0.5208200000000 1.0
C      1  0.5653970000000  0.4774160000000  0.5635210000000 1.0
C      1  0.5734660000000  0.4258430000000  0.4865660000000 1.0
C      1  0.4125620000000  0.4832850000000  0.4491450000000 1.0
C      1  0.4379090000000  0.5591740000000  0.5374460000000 1.0
C      1  0.4612960000000  0.4074660000000  0.5106090000000 1.0
C      1  0.4976260000000  0.4789930000000  0.5970010000000 1.0
C      1  0.4769500000000  0.4350270000000  0.4697390000000 1.0
C      1  0.4703670000000  0.5918440000000  0.5323030000000 1.0
C      1  0.4335790000000  0.4786930000000  0.5764760000000 1.0
C      1  0.4946600000000  0.4334990000000  0.4307680000000 1.0
C      1  0.5766090000000  0.4583790000000  0.4417420000000 1.0
C      1  0.5134510000000  0.5022930000000  0.5995120000000 1.0
C      1  0.5192880000000  0.5518280000000  0.4150120000000 1.0
C      1  0.5336830000000  0.4469050000000  0.5095350000000 1.0
C      1  0.4589970000000  0.5583350000000  0.5590570000000 1.0
C      1  0.5110520000000  0.5182150000000  0.3917470000000 1.0
C      1  0.4360040000000  0.5777940000000  0.4916880000000 1.0
C      1  0.5547760000000  0.5848940000000  0.4703660000000 1.0
C      1  0.5822160000000  0.4718640000000  0.4830430000000 1.0
C      1  0.5132200000000  0.5480710000000  0.5795520000000 1.0
C      1  0.5906050000000  0.4887030000000  0.5541350000000 1.0
C      1  0.5402550000000  0.4928260000000  0.5619030000000 1.0
C      1  0.5653660000000  0.5695800000000  0.4929950000000 1.0
C      1  0.4517220000000  0.5354070000000  0.5799170000000 1.0
C      1  0.4415780000000  0.5283840000000  0.4485060000000 1.0
C      1  0.5524400000000  0.5735650000000  0.4433890000000 1.0
C      1  0.5979670000000  0.4839330000000  0.5282550000000 1.0
C      1  0.4708150000000  0.5425610000000  0.5156770000000 1.0
C      1  0.4578660000000  0.4869760000000  0.5900700000000 1.0
C      1  0.3967100000000  0.5047450000000  0.5461180000000 1.0
C      1  0.4883720000000  0.5194290000000  0.4721350000000 1.0
C      1  0.5528700000000  0.4274280000000  0.5270580000000 1.0
C      1  0.4242420000000  0.5259820000000  0.5808790000000 1.0
C      1  0.5338210000000  0.4504040000000  0.4804820000000 1.0
C      1  0.4701760000000  0.5020770000000  0.4058860000000 1.0
C      1  0.4734500000000  0.4955770000000  0.5473460000000 1.0
C      1  0.5517390000000  0.5210190000000  0.5019340000000 1.0
C      1  0.4762820000000  0.5842940000000  0.5602440000000 1.0
C      1  0.4409730000000  0.4775460000000  0.5111650000000 1.0
C      1  0.5148480000000  0.5149300000000  0.4595700000000 1.0
C      1  0.5561650000000  0.5456570000000  0.4497180000000 1.0
C      1  0.4666000000000  0.4632140000000  0.5161180000000 1.0
C      1  0.4838730000000  0.5479650000000  0.5414320000000 1.0
C      1  0.5388500000000  0.5114300000000  0.5847040000000 1.0
C      1  0.3916660000000  0.5249330000000  0.5253200000000 1.0
C      1  0.4978760000000  0.5247480000000  0.5892470000000 1.0
C      1  0.4603820000000  0.5850770000000  0.4777640000000 1.0
C      1  0.5756950000000  0.5395400000000  0.4993690000000 1.0
C      1  0.4378780000000  0.4507320000000  0.5669540000000 1.0
C      1  0.5300330000000  0.4233660000000  0.4691030000000 1.0
C      1  0.5346420000000  0.5261190000000  0.5234990000000 1.0
C      1  0.5084690000000  0.5910920000000  0.4497450000000 1.0
C      1  0.5419350000000  0.4940900000000  0.4955710000000 1.0
END
