TITL C-4164243-3780-353 -2.40142845360056 125000 -3903.30174431636 0 0 28 (C1) n - 1
REM
REM in /home/nfs/bkarasulu/CARBON/AIRSS/Generating-Clusters/ReaxFF-fromJPCA2015/Units_Real/with-SteepDescent/Only-C1/SD-CG/Try1-3A/FIRE-CG
REM
REM
REM
REM
REM
REM ./C.cell (11c1c37f851c82e70ff6c80c92926a4b)
REM
REM compiler GCC version 9.2.1 20190827 (Red Hat 9.2.1-1)
REM options -cpp -mtune=generic -march=x86-64 -g -O0 -fpre-include=/usr/include/finclude/math-vector-fortran.h
REM seed -1910269411 1934769122 -68664726 -1992706236 -172150152 -277518468 -844007596 999735208 571993865 1066112545 449804936 -1837487803 -42315805 806333434 30788290 -570951723 -24926335 2082973492 -1872689402 -1764772719 -1265348425 1121350012 -828483601 -394497689 -268333549 560102744 -175277445 19943059 -1844399728 2076106680 525778188 -1066576897 -1960784903
REM
CELL 1.54180   50.00000   50.00000   50.00000   90.00000   90.00000   90.00000
LATT -1
SFAC C  
C      1  0.5068700000000  0.4715870000000  0.5162760000000 1.0
C      1  0.4964040000000  0.4953050000000  0.4303800000000 1.0
C      1  0.5024470000000  0.5534390000000  0.5427280000000 1.0
C      1  0.4676570000000  0.4875600000000  0.5439660000000 1.0
C      1  0.4485270000000  0.4955370000000  0.4815710000000 1.0
C      1  0.4612720000000  0.4757920000000  0.4627160000000 1.0
C      1  0.5557730000000  0.4803320000000  0.5363180000000 1.0
C      1  0.5518030000000  0.5257640000000  0.4587580000000 1.0
C      1  0.5395520000000  0.5293540000000  0.5228290000000 1.0
C      1  0.4795840000000  0.4857810000000  0.4430960000000 1.0
C      1  0.5239040000000  0.4950870000000  0.4728420000000 1.0
C      1  0.4801240000000  0.4645750000000  0.5251390000000 1.0
C      1  0.5170760000000  0.5050370000000  0.4456940000000 1.0
C      1  0.4606730000000  0.5136800000000  0.5014550000000 1.0
C      1  0.5522760000000  0.5046670000000  0.4782010000000 1.0
C      1  0.5507150000000  0.5236260000000  0.4984760000000 1.0
C      1  0.4914300000000  0.5162910000000  0.5088650000000 1.0
C      1  0.4463810000000  0.4997230000000  0.5226960000000 1.0
C      1  0.5118030000000  0.5408610000000  0.5190830000000 1.0
C      1  0.4659390000000  0.4498080000000  0.4778420000000 1.0
C      1  0.5419360000000  0.5037610000000  0.5405900000000 1.0
C      1  0.4899520000000  0.5362130000000  0.5529420000000 1.0
C      1  0.5378290000000  0.5288310000000  0.4349440000000 1.0
C      1  0.5061250000000  0.4926220000000  0.4958780000000 1.0
C      1  0.4594060000000  0.4563700000000  0.5061610000000 1.0
C      1  0.4387370000000  0.4786620000000  0.5039610000000 1.0
C      1  0.5280380000000  0.4770380000000  0.5370800000000 1.0
C      1  0.4877670000000  0.5126970000000  0.5395130000000 1.0
END
