TITL C-4164242-3624-516 -0.340031174816968 125000 -3376.21575237086 0 0 24 (C1) n - 1
REM
REM in /home/nfs/bkarasulu/CARBON/AIRSS/Generating-Clusters/ReaxFF-fromJPCA2015/Units_Real/with-SteepDescent/Only-C1/SD-CG/Try1-3A/FIRE-CG
REM
REM
REM
REM
REM
REM ./C.cell (11c1c37f851c82e70ff6c80c92926a4b)
REM
REM compiler GCC version 9.2.1 20190827 (Red Hat 9.2.1-1)
REM options -cpp -mtune=generic -march=x86-64 -g -O0 -fpre-include=/usr/include/finclude/math-vector-fortran.h
REM seed 659943441 74760041 -537884023 168437277 497957121 656507409 1969124411 932213035 1355764110 839140265 2060753732 1800369145 794955673 56446744 789483945 1931666650 -932662015 1851929972 -1823344432 -891066381 1715298640 1187369159 95700243 152727139 1907107293 -29537832 -1614525285 1565293009 -2129325787 -523932723 -1827407113 280190788 -303263179
REM
CELL 1.54180   50.00000   50.00000   50.00000   90.00000   90.00000   90.00000
LATT -1
SFAC C  
C      1  0.5163100000000  0.4601120000000  0.4721150000000 1.0
C      1  0.5207930000000  0.5455140000000  0.5405950000000 1.0
C      1  0.4944020000000  0.4564100000000  0.5148440000000 1.0
C      1  0.4782090000000  0.5004080000000  0.5362430000000 1.0
C      1  0.4661280000000  0.4554490000000  0.4480170000000 1.0
C      1  0.4789040000000  0.5282120000000  0.4746270000000 1.0
C      1  0.5553010000000  0.4710730000000  0.4962650000000 1.0
C      1  0.4664860000000  0.5406750000000  0.5476430000000 1.0
C      1  0.5424050000000  0.4476730000000  0.5094210000000 1.0
C      1  0.4981440000000  0.5113590000000  0.5176650000000 1.0
C      1  0.4997470000000  0.5135660000000  0.4594650000000 1.0
C      1  0.4751660000000  0.4697950000000  0.5312010000000 1.0
C      1  0.5365610000000  0.5275680000000  0.4935150000000 1.0
C      1  0.4891770000000  0.4911940000000  0.4435120000000 1.0
C      1  0.5107890000000  0.5619310000000  0.5597870000000 1.0
C      1  0.5273730000000  0.5094450000000  0.4723160000000 1.0
C      1  0.4774330000000  0.5283060000000  0.5044980000000 1.0
C      1  0.5359000000000  0.4811370000000  0.4752490000000 1.0
C      1  0.4595990000000  0.4830150000000  0.4381970000000 1.0
C      1  0.4779980000000  0.5586410000000  0.5645980000000 1.0
C      1  0.4592020000000  0.5218720000000  0.5284170000000 1.0
C      1  0.5243710000000  0.5257610000000  0.5213050000000 1.0
C      1  0.5139070000000  0.4463120000000  0.4984650000000 1.0
C      1  0.4956940000000  0.4645740000000  0.4520410000000 1.0
END
