TITL C-4164238-4211-332 -68.7671599335406 125000 -5853.41820309212 0 0 40 (C1) n - 1
REM
REM in /home/nfs/bkarasulu/CARBON/AIRSS/Generating-Clusters/ReaxFF-fromJPCA2015/Units_Real/with-SteepDescent/Only-C1/SD-CG/Try1-3A/FIRE-CG
REM
REM
REM
REM
REM
REM ./C.cell (11c1c37f851c82e70ff6c80c92926a4b)
REM
REM compiler GCC version 9.2.1 20190827 (Red Hat 9.2.1-1)
REM options -cpp -mtune=generic -march=x86-64 -g -O0 -fpre-include=/usr/include/finclude/math-vector-fortran.h
REM seed -1850470691 1681897713 -1911160766 -322990858 -2038963925 -440644843 1872966109 1659257319 -1664498862 1652491632 -813880631 -298810947 -964230624 1608333472 1137212693 313600442 -1965204041 -1970514138 2103712092 -598665656 1849625276 1826520091 192642166 -519698608 895785339 -1066221556 1667356312 -343435907 1626809044 2032386670 880054682 1457143465 -1823756821
REM
CELL 1.54180   50.00000   50.00000   50.00000   90.00000   90.00000   90.00000
LATT -1
SFAC C  
C      1  0.5053510000000  0.5249300000000  0.4549850000000 1.0
C      1  0.5287670000000  0.5612260000000  0.5252240000000 1.0
C      1  0.4911960000000  0.5625990000000  0.5083690000000 1.0
C      1  0.4562930000000  0.5434070000000  0.5174500000000 1.0
C      1  0.4650320000000  0.5054700000000  0.5075010000000 1.0
C      1  0.4595590000000  0.4680950000000  0.4737830000000 1.0
C      1  0.5040750000000  0.4851070000000  0.4840000000000 1.0
C      1  0.5186790000000  0.5208070000000  0.5527680000000 1.0
C      1  0.4624490000000  0.4321320000000  0.5110220000000 1.0
C      1  0.5278860000000  0.5438860000000  0.5411580000000 1.0
C      1  0.5098410000000  0.5047330000000  0.4336650000000 1.0
C      1  0.5336870000000  0.4948030000000  0.5456860000000 1.0
C      1  0.5212080000000  0.5494800000000  0.4535160000000 1.0
C      1  0.4942630000000  0.4773860000000  0.4351110000000 1.0
C      1  0.4516330000000  0.4668560000000  0.5346450000000 1.0
C      1  0.4722880000000  0.5030880000000  0.5356980000000 1.0
C      1  0.4804930000000  0.5490740000000  0.5321610000000 1.0
C      1  0.5141300000000  0.4704640000000  0.4564670000000 1.0
C      1  0.4759340000000  0.4859220000000  0.4901830000000 1.0
C      1  0.5569230000000  0.4952290000000  0.4964230000000 1.0
C      1  0.4385910000000  0.4496090000000  0.5173520000000 1.0
C      1  0.5532480000000  0.4882030000000  0.5240930000000 1.0
C      1  0.4969270000000  0.4573590000000  0.5420260000000 1.0
C      1  0.4554150000000  0.5280950000000  0.4952550000000 1.0
C      1  0.4485980000000  0.4455580000000  0.4892660000000 1.0
C      1  0.5439210000000  0.5392200000000  0.4685340000000 1.0
C      1  0.5184390000000  0.5721460000000  0.5016500000000 1.0
C      1  0.4898910000000  0.4365660000000  0.5214040000000 1.0
C      1  0.5499760000000  0.4693140000000  0.5037270000000 1.0
C      1  0.5193890000000  0.4728440000000  0.5414930000000 1.0
C      1  0.5317370000000  0.4913910000000  0.4472670000000 1.0
C      1  0.4671420000000  0.5550300000000  0.4932960000000 1.0
C      1  0.4731930000000  0.4766350000000  0.5484240000000 1.0
C      1  0.5426000000000  0.5085240000000  0.4739970000000 1.0
C      1  0.5236530000000  0.4602910000000  0.4949970000000 1.0
C      1  0.4675470000000  0.4695410000000  0.4447420000000 1.0
C      1  0.5144140000000  0.5125650000000  0.4798450000000 1.0
C      1  0.5128210000000  0.4335840000000  0.5019060000000 1.0
C      1  0.4908410000000  0.5243080000000  0.5445790000000 1.0
C      1  0.5319720000000  0.5645240000000  0.4763320000000 1.0
END
