TITL C-4164239-2837-505 -1.12281914660037 125000 -12122.0949033245 0 0 81 (C1) n - 1
REM
REM in /home/nfs/bkarasulu/CARBON/AIRSS/Generating-Clusters/ReaxFF-fromJPCA2015/Units_Real/with-SteepDescent/Only-C1/SD-CG/Try1-3A/FIRE-CG
REM
REM
REM
REM
REM
REM ./C.cell (11c1c37f851c82e70ff6c80c92926a4b)
REM
REM compiler GCC version 9.2.1 20190827 (Red Hat 9.2.1-1)
REM options -cpp -mtune=generic -march=x86-64 -g -O0 -fpre-include=/usr/include/finclude/math-vector-fortran.h
REM seed 1557092633 -1967641966 624362692 1286465862 -1468854374 749194036 2057858853 1603402122 161858764 983345986 -1163550665 1071800555 -1603320653 1670293845 -319068598 1218887860 -508435913 -310276683 -600865990 191046455 -103141306 626056154 363996274 -354885679 52578155 -1285097297 -2000313958 -2092926560 195889360 1093675614 1337030748 -1147099104 -1216398270
REM
CELL 1.54180   50.00000   50.00000   50.00000   90.00000   90.00000   90.00000
LATT -1
SFAC C  
C      1  0.4854960000000  0.4191340000000  0.4839110000000 1.0
C      1  0.4639850000000  0.5791420000000  0.5031160000000 1.0
C      1  0.5535660000000  0.4389270000000  0.4932320000000 1.0
C      1  0.4826180000000  0.5199960000000  0.5053870000000 1.0
C      1  0.4954430000000  0.4413950000000  0.4369460000000 1.0
C      1  0.4923880000000  0.4960950000000  0.5469350000000 1.0
C      1  0.4710030000000  0.5714620000000  0.4503350000000 1.0
C      1  0.4924230000000  0.5836570000000  0.5072930000000 1.0
C      1  0.5033720000000  0.4274240000000  0.5511120000000 1.0
C      1  0.4728810000000  0.5486350000000  0.5570580000000 1.0
C      1  0.5110220000000  0.5835170000000  0.4843280000000 1.0
C      1  0.5136560000000  0.4836950000000  0.4191700000000 1.0
C      1  0.4171820000000  0.4835600000000  0.4971680000000 1.0
C      1  0.5813150000000  0.4773380000000  0.4939030000000 1.0
C      1  0.4763620000000  0.4875680000000  0.5698620000000 1.0
C      1  0.5350100000000  0.5381270000000  0.4584770000000 1.0
C      1  0.5462550000000  0.4478950000000  0.4402380000000 1.0
C      1  0.4873890000000  0.5296780000000  0.4329080000000 1.0
C      1  0.5700430000000  0.4585900000000  0.4501380000000 1.0
C      1  0.5670950000000  0.5313530000000  0.5353540000000 1.0
C      1  0.5300120000000  0.4246290000000  0.5369100000000 1.0
C      1  0.5111960000000  0.5377920000000  0.4757820000000 1.0
C      1  0.5236350000000  0.5381560000000  0.5538660000000 1.0
C      1  0.4674990000000  0.5256160000000  0.4800190000000 1.0
C      1  0.4553180000000  0.5738120000000  0.4752050000000 1.0
C      1  0.5575690000000  0.5210350000000  0.5101170000000 1.0
C      1  0.5513790000000  0.4393290000000  0.5501370000000 1.0
C      1  0.5357620000000  0.5711320000000  0.5223630000000 1.0
C      1  0.4917990000000  0.5006360000000  0.4292500000000 1.0
C      1  0.4776970000000  0.4582890000000  0.4491960000000 1.0
C      1  0.5373440000000  0.5727800000000  0.4931320000000 1.0
C      1  0.4782440000000  0.4321320000000  0.4581520000000 1.0
C      1  0.4424730000000  0.5482980000000  0.4783710000000 1.0
C      1  0.5327350000000  0.4242350000000  0.5068390000000 1.0
C      1  0.5522950000000  0.5538650000000  0.4762720000000 1.0
C      1  0.4526310000000  0.4525870000000  0.5019420000000 1.0
C      1  0.5215690000000  0.5083380000000  0.5457040000000 1.0
C      1  0.5260250000000  0.4825140000000  0.4953330000000 1.0
C      1  0.4757180000000  0.4709520000000  0.5063920000000 1.0
C      1  0.5201070000000  0.4564970000000  0.4303430000000 1.0
C      1  0.5789500000000  0.4827060000000  0.4646970000000 1.0
C      1  0.4371140000000  0.4410630000000  0.5242850000000 1.0
C      1  0.5170900000000  0.4899880000000  0.4684230000000 1.0
C      1  0.4481760000000  0.5459780000000  0.5421030000000 1.0
C      1  0.5702800000000  0.5076940000000  0.5544350000000 1.0
C      1  0.4759560000000  0.4273630000000  0.5380540000000 1.0
C      1  0.5677430000000  0.5300430000000  0.4839450000000 1.0
C      1  0.5084880000000  0.5762240000000  0.5304840000000 1.0
C      1  0.4779760000000  0.4965400000000  0.5215380000000 1.0
C      1  0.5454050000000  0.4920060000000  0.5541700000000 1.0
C      1  0.4266390000000  0.5496460000000  0.5023910000000 1.0
C      1  0.4345680000000  0.5069780000000  0.4591040000000 1.0
C      1  0.4855680000000  0.4858390000000  0.4560840000000 1.0
C      1  0.5856950000000  0.4830550000000  0.5497150000000 1.0
C      1  0.4517270000000  0.4725860000000  0.5596420000000 1.0
C      1  0.4615580000000  0.5006020000000  0.4667680000000 1.0
C      1  0.4976150000000  0.5813290000000  0.4574350000000 1.0
C      1  0.5093440000000  0.4349940000000  0.4926180000000 1.0
C      1  0.5366070000000  0.5077490000000  0.4562390000000 1.0
C      1  0.4423550000000  0.5290220000000  0.4431760000000 1.0
C      1  0.4164380000000  0.5068650000000  0.4855590000000 1.0
C      1  0.5652980000000  0.5089450000000  0.4626100000000 1.0
C      1  0.4227830000000  0.4573770000000  0.5027120000000 1.0
C      1  0.5292000000000  0.5108860000000  0.5129520000000 1.0
C      1  0.4630350000000  0.5463540000000  0.4328500000000 1.0
C      1  0.5027090000000  0.4633240000000  0.4989690000000 1.0
C      1  0.4447490000000  0.5649660000000  0.5199280000000 1.0
C      1  0.5464800000000  0.5510750000000  0.5418570000000 1.0
C      1  0.4885700000000  0.5344650000000  0.4617470000000 1.0
C      1  0.4964470000000  0.4689850000000  0.5773920000000 1.0
C      1  0.4415370000000  0.4954720000000  0.5478620000000 1.0
C      1  0.5028400000000  0.4481850000000  0.5690980000000 1.0
C      1  0.4752250000000  0.4191210000000  0.5105330000000 1.0
C      1  0.5558300000000  0.4663180000000  0.5056750000000 1.0
C      1  0.5577460000000  0.4377350000000  0.4643660000000 1.0
C      1  0.4182260000000  0.5228010000000  0.5106530000000 1.0
C      1  0.5089100000000  0.5272790000000  0.5014390000000 1.0
C      1  0.5578720000000  0.4677250000000  0.5401940000000 1.0
C      1  0.5014500000000  0.5566520000000  0.5520870000000 1.0
C      1  0.4329870000000  0.5190900000000  0.5364920000000 1.0
C      1  0.4533030000000  0.4451640000000  0.5475240000000 1.0
END
