TITL C-4164236-1577-401 5.40264512553297 125000 -29667.2061731622 0 0 198 (C1) n - 1
REM
REM in /home/nfs/bkarasulu/CARBON/AIRSS/Generating-Clusters/ReaxFF-fromJPCA2015/Units_Real/with-SteepDescent/Only-C1/SD-CG/Try1-3A/FIRE-CG
REM
REM
REM
REM
REM
REM ./C.cell (11c1c37f851c82e70ff6c80c92926a4b)
REM
REM compiler GCC version 9.2.1 20190827 (Red Hat 9.2.1-1)
REM options -cpp -mtune=generic -march=x86-64 -g -O0 -fpre-include=/usr/include/finclude/math-vector-fortran.h
REM seed 857359682 -163248797 1993663264 1374732803 -2057487598 8940414 975686563 -251434257 2092002607 -1919770737 1914321970 1221029828 -244455625 -1251465614 683272984 1435694316 870372078 1196752861 120698472 -577708014 -21216434 2110074638 -2060966727 -225655643 1654069280 -2100810916 69567561 -679580439 1706674716 1945337509 -729259983 716668494 2035264643
REM
CELL 1.54180   50.00000   50.00000   50.00000   90.00000   90.00000   90.00000
LATT -1
SFAC C  
C      1  0.5258760000000  0.4865050000000  0.4632490000000 1.0
C      1  0.4432490000000  0.5225400000000  0.3902240000000 1.0
C      1  0.5544640000000  0.4652290000000  0.5573780000000 1.0
C      1  0.5454710000000  0.5085310000000  0.5632650000000 1.0
C      1  0.4138630000000  0.4478290000000  0.4318830000000 1.0
C      1  0.5927380000000  0.5257130000000  0.4215620000000 1.0
C      1  0.5487110000000  0.4803860000000  0.6064100000000 1.0
C      1  0.4169240000000  0.4763610000000  0.5596690000000 1.0
C      1  0.4722210000000  0.4094020000000  0.4747030000000 1.0
C      1  0.4700700000000  0.5577300000000  0.5310050000000 1.0
C      1  0.4866100000000  0.4711970000000  0.4908630000000 1.0
C      1  0.4370240000000  0.5273860000000  0.5907240000000 1.0
C      1  0.4338780000000  0.4302680000000  0.4449090000000 1.0
C      1  0.4450670000000  0.5421210000000  0.5216110000000 1.0
C      1  0.4988260000000  0.4116920000000  0.5528980000000 1.0
C      1  0.4572460000000  0.4222250000000  0.5706960000000 1.0
C      1  0.5849310000000  0.5322050000000  0.5455610000000 1.0
C      1  0.4053150000000  0.4592880000000  0.5066400000000 1.0
C      1  0.4709420000000  0.5346650000000  0.4777980000000 1.0
C      1  0.4275020000000  0.4266120000000  0.4712580000000 1.0
C      1  0.4502950000000  0.5077460000000  0.6077220000000 1.0
C      1  0.3904660000000  0.4951110000000  0.4729910000000 1.0
C      1  0.5203870000000  0.5535740000000  0.5143490000000 1.0
C      1  0.4495730000000  0.4983590000000  0.3761270000000 1.0
C      1  0.6196520000000  0.4833880000000  0.4847940000000 1.0
C      1  0.4773640000000  0.4612910000000  0.6090310000000 1.0
C      1  0.4927410000000  0.5799140000000  0.5872070000000 1.0
C      1  0.5747630000000  0.4747700000000  0.5930170000000 1.0
C      1  0.4307780000000  0.5460040000000  0.4521130000000 1.0
C      1  0.4423480000000  0.4039690000000  0.4759250000000 1.0
C      1  0.5561720000000  0.5516220000000  0.4031370000000 1.0
C      1  0.4792450000000  0.5027380000000  0.3782750000000 1.0
C      1  0.5517750000000  0.4584900000000  0.5295120000000 1.0
C      1  0.4895940000000  0.6012370000000  0.4643430000000 1.0
C      1  0.4460680000000  0.5252380000000  0.4660600000000 1.0
C      1  0.4894000000000  0.5299660000000  0.5702050000000 1.0
C      1  0.5142840000000  0.4827000000000  0.4095650000000 1.0
C      1  0.5252240000000  0.5345880000000  0.4592000000000 1.0
C      1  0.5615910000000  0.5306000000000  0.5291140000000 1.0
C      1  0.5426420000000  0.5715050000000  0.5652370000000 1.0
C      1  0.4548510000000  0.4772580000000  0.4446520000000 1.0
C      1  0.4805100000000  0.5881810000000  0.4157520000000 1.0
C      1  0.5557920000000  0.4565960000000  0.4070230000000 1.0
C      1  0.5340770000000  0.4848070000000  0.5668330000000 1.0
C      1  0.5097420000000  0.5969400000000  0.5401190000000 1.0
C      1  0.6135970000000  0.5021330000000  0.5064170000000 1.0
C      1  0.5436960000000  0.5783630000000  0.4434630000000 1.0
C      1  0.4095340000000  0.5867710000000  0.4784870000000 1.0
C      1  0.4914030000000  0.4065240000000  0.4462700000000 1.0
C      1  0.4430240000000  0.5730860000000  0.4232820000000 1.0
C      1  0.5461760000000  0.4024370000000  0.5610430000000 1.0
C      1  0.4093790000000  0.5574620000000  0.4697620000000 1.0
C      1  0.5720440000000  0.4473420000000  0.5755080000000 1.0
C      1  0.5118950000000  0.5574760000000  0.4662510000000 1.0
C      1  0.6066940000000  0.5312090000000  0.4985540000000 1.0
C      1  0.4892650000000  0.4719720000000  0.4635940000000 1.0
C      1  0.4899290000000  0.5303980000000  0.3812540000000 1.0
C      1  0.5529180000000  0.5679070000000  0.4929070000000 1.0
C      1  0.5429440000000  0.5276740000000  0.4779760000000 1.0
C      1  0.4406640000000  0.6039840000000  0.5044000000000 1.0
C      1  0.4997460000000  0.4996110000000  0.4569590000000 1.0
C      1  0.5060470000000  0.4887710000000  0.5579240000000 1.0
C      1  0.4182550000000  0.4698350000000  0.4105920000000 1.0
C      1  0.4862380000000  0.4874230000000  0.4022000000000 1.0
C      1  0.5393620000000  0.5293410000000  0.4380170000000 1.0
C      1  0.5098750000000  0.4394330000000  0.5529150000000 1.0
C      1  0.5351880000000  0.5753690000000  0.4714860000000 1.0
C      1  0.4987840000000  0.5964430000000  0.4351160000000 1.0
C      1  0.4433630000000  0.4462420000000  0.4853430000000 1.0
C      1  0.4805230000000  0.5022690000000  0.5655540000000 1.0
C      1  0.4542180000000  0.4482170000000  0.5319190000000 1.0
C      1  0.5284740000000  0.3859110000000  0.5272850000000 1.0
C      1  0.5893490000000  0.5597900000000  0.5387890000000 1.0
C      1  0.4270750000000  0.5695510000000  0.5613110000000 1.0
C      1  0.4139840000000  0.5496460000000  0.5508150000000 1.0
C      1  0.5918740000000  0.4321250000000  0.5132020000000 1.0
C      1  0.5416770000000  0.4426260000000  0.4276310000000 1.0
C      1  0.4624030000000  0.4908560000000  0.4212020000000 1.0
C      1  0.4178600000000  0.4168920000000  0.5160920000000 1.0
C      1  0.5558670000000  0.5536610000000  0.4321360000000 1.0
C      1  0.5248670000000  0.4404150000000  0.5814480000000 1.0
C      1  0.6070330000000  0.4899610000000  0.4545110000000 1.0
C      1  0.3891650000000  0.5085060000000  0.5426120000000 1.0
C      1  0.5812740000000  0.5767120000000  0.4952950000000 1.0
C      1  0.3849830000000  0.5123710000000  0.5201930000000 1.0
C      1  0.5057070000000  0.5783040000000  0.5173420000000 1.0
C      1  0.4774250000000  0.5775250000000  0.5109980000000 1.0
C      1  0.4847070000000  0.5577970000000  0.4709190000000 1.0
C      1  0.5557210000000  0.3963040000000  0.5334580000000 1.0
C      1  0.4009010000000  0.4526690000000  0.4564630000000 1.0
C      1  0.5713810000000  0.4098770000000  0.5129020000000 1.0
C      1  0.4136640000000  0.4954560000000  0.4238880000000 1.0
C      1  0.5292550000000  0.6152110000000  0.5279240000000 1.0
C      1  0.4614330000000  0.4477420000000  0.4459160000000 1.0
C      1  0.5581540000000  0.6042380000000  0.5301100000000 1.0
C      1  0.4670670000000  0.5427360000000  0.3965210000000 1.0
C      1  0.5510920000000  0.4844600000000  0.5125070000000 1.0
C      1  0.4109890000000  0.4986230000000  0.4530090000000 1.0
C      1  0.5140120000000  0.4531930000000  0.4260950000000 1.0
C      1  0.5718220000000  0.5257770000000  0.4006700000000 1.0
C      1  0.4722950000000  0.5275560000000  0.6129410000000 1.0
C      1  0.5321530000000  0.3925410000000  0.4809430000000 1.0
C      1  0.4124340000000  0.4486250000000  0.5517650000000 1.0
C      1  0.4381630000000  0.4336680000000  0.5512060000000 1.0
C      1  0.4603570000000  0.5750010000000  0.4012870000000 1.0
C      1  0.4956240000000  0.5270490000000  0.5978880000000 1.0
C      1  0.4883170000000  0.5535110000000  0.5536310000000 1.0
C      1  0.4807280000000  0.5213770000000  0.5003630000000 1.0
C      1  0.5224030000000  0.5816190000000  0.4241140000000 1.0
C      1  0.5489590000000  0.4258130000000  0.5780160000000 1.0
C      1  0.4453360000000  0.5135640000000  0.5197310000000 1.0
C      1  0.4009640000000  0.4379130000000  0.5261830000000 1.0
C      1  0.4642930000000  0.4442890000000  0.5884150000000 1.0
C      1  0.4725550000000  0.4925090000000  0.5014950000000 1.0
C      1  0.4946500000000  0.5185530000000  0.4348120000000 1.0
C      1  0.5703980000000  0.4920200000000  0.4901940000000 1.0
C      1  0.5964600000000  0.4425140000000  0.5559430000000 1.0
C      1  0.4701350000000  0.4060260000000  0.5500330000000 1.0
C      1  0.4819510000000  0.4442250000000  0.5323770000000 1.0
C      1  0.5980570000000  0.5564010000000  0.5111030000000 1.0
C      1  0.5147580000000  0.5365390000000  0.3947510000000 1.0
C      1  0.4566100000000  0.5560750000000  0.4407940000000 1.0
C      1  0.4844800000000  0.3970050000000  0.5008180000000 1.0
C      1  0.5734390000000  0.4196450000000  0.4685930000000 1.0
C      1  0.5646290000000  0.4972640000000  0.3987660000000 1.0
C      1  0.4685580000000  0.4401100000000  0.4732850000000 1.0
C      1  0.4867650000000  0.4338310000000  0.4267610000000 1.0
C      1  0.5478680000000  0.5555390000000  0.5194970000000 1.0
C      1  0.6007370000000  0.4611890000000  0.4845720000000 1.0
C      1  0.4933220000000  0.4484460000000  0.5064680000000 1.0
C      1  0.4449540000000  0.4651050000000  0.5858670000000 1.0
C      1  0.5100780000000  0.5760990000000  0.5621250000000 1.0
C      1  0.5526000000000  0.5538650000000  0.5857640000000 1.0
C      1  0.5982120000000  0.5044360000000  0.5523870000000 1.0
C      1  0.6012580000000  0.4559030000000  0.5314370000000 1.0
C      1  0.4642120000000  0.5742440000000  0.5895000000000 1.0
C      1  0.4451170000000  0.4821150000000  0.5636040000000 1.0
C      1  0.3868090000000  0.5177080000000  0.4925950000000 1.0
C      1  0.4354080000000  0.4728150000000  0.3867250000000 1.0
C      1  0.5330450000000  0.5599450000000  0.6041800000000 1.0
C      1  0.5368930000000  0.5065360000000  0.6080800000000 1.0
C      1  0.5022630000000  0.4760180000000  0.6093820000000 1.0
C      1  0.5521420000000  0.4374800000000  0.4556320000000 1.0
C      1  0.5700400000000  0.5168710000000  0.4767040000000 1.0
C      1  0.4905570000000  0.6202460000000  0.4865130000000 1.0
C      1  0.6025740000000  0.4729930000000  0.4288890000000 1.0
C      1  0.5816720000000  0.4736600000000  0.4095200000000 1.0
C      1  0.4687960000000  0.4382050000000  0.4058660000000 1.0
C      1  0.5129240000000  0.3901080000000  0.5029750000000 1.0
C      1  0.4354510000000  0.4631920000000  0.5083610000000 1.0
C      1  0.4758990000000  0.5819960000000  0.4808860000000 1.0
C      1  0.3923850000000  0.4661270000000  0.4806200000000 1.0
C      1  0.4613050000000  0.6209830000000  0.5007150000000 1.0
C      1  0.5292950000000  0.4866600000000  0.4921000000000 1.0
C      1  0.4169690000000  0.5257150000000  0.5684860000000 1.0
C      1  0.5198720000000  0.5174700000000  0.4179100000000 1.0
C      1  0.4385620000000  0.5093120000000  0.4156340000000 1.0
C      1  0.5604670000000  0.4014810000000  0.4867320000000 1.0
C      1  0.5454810000000  0.5079870000000  0.5356140000000 1.0
C      1  0.6053540000000  0.4871560000000  0.5298980000000 1.0
C      1  0.5410930000000  0.4799210000000  0.3964300000000 1.0
C      1  0.5121520000000  0.6199840000000  0.5057990000000 1.0
C      1  0.5097550000000  0.5748460000000  0.6127260000000 1.0
C      1  0.5872830000000  0.4909850000000  0.5742920000000 1.0
C      1  0.5825980000000  0.4775760000000  0.4687380000000 1.0
C      1  0.4421250000000  0.5905540000000  0.5737930000000 1.0
C      1  0.5261100000000  0.5141900000000  0.4962000000000 1.0
C      1  0.4382200000000  0.4005850000000  0.5059530000000 1.0
C      1  0.5209560000000  0.4373190000000  0.5019480000000 1.0
C      1  0.5070030000000  0.5260800000000  0.5127740000000 1.0
C      1  0.5260540000000  0.4613070000000  0.6022390000000 1.0
C      1  0.4021450000000  0.5429490000000  0.4942170000000 1.0
C      1  0.4175080000000  0.5552330000000  0.5179490000000 1.0
C      1  0.4201530000000  0.5854040000000  0.5064120000000 1.0
C      1  0.5297430000000  0.4407230000000  0.5300240000000 1.0
C      1  0.4800250000000  0.4865350000000  0.5264020000000 1.0
C      1  0.5199850000000  0.3926430000000  0.5530660000000 1.0
C      1  0.4033720000000  0.5014880000000  0.5641250000000 1.0
C      1  0.5949440000000  0.5319280000000  0.4718920000000 1.0
C      1  0.5285550000000  0.5619770000000  0.4011540000000 1.0
C      1  0.5186110000000  0.3963790000000  0.4560180000000 1.0
C      1  0.4539760000000  0.4788920000000  0.6083880000000 1.0
C      1  0.4387740000000  0.4961150000000  0.4656160000000 1.0
C      1  0.4750150000000  0.5375360000000  0.4259900000000 1.0
C      1  0.5750190000000  0.6006410000000  0.5086630000000 1.0
C      1  0.5616720000000  0.5769450000000  0.5436860000000 1.0
C      1  0.4417620000000  0.4928770000000  0.4991070000000 1.0
C      1  0.4645990000000  0.3986600000000  0.5214590000000 1.0
C      1  0.5956530000000  0.4316140000000  0.4847890000000 1.0
C      1  0.5140650000000  0.4618930000000  0.4542560000000 1.0
C      1  0.5075220000000  0.5056910000000  0.6110900000000 1.0
C      1  0.4612300000000  0.4974300000000  0.5450650000000 1.0
C      1  0.4506250000000  0.4507070000000  0.3932120000000 1.0
C      1  0.4547440000000  0.5489460000000  0.5997970000000 1.0
C      1  0.5364630000000  0.4376810000000  0.4783250000000 1.0
C      1  0.6055010000000  0.5202860000000  0.4468960000000 1.0
C      1  0.5464630000000  0.5245530000000  0.5865170000000 1.0
C      1  0.5063070000000  0.4969720000000  0.5305050000000 1.0
END
