TITL C-4164234-2335-546 -2.24063036313705 125000 -3227.47672566446 0 0 23 (C1) n - 1
REM
REM in /home/nfs/bkarasulu/CARBON/AIRSS/Generating-Clusters/ReaxFF-fromJPCA2015/Units_Real/with-SteepDescent/Only-C1/SD-CG/Try1-3A/FIRE-CG
REM
REM
REM
REM
REM
REM ./C.cell (11c1c37f851c82e70ff6c80c92926a4b)
REM
REM compiler GCC version 9.2.1 20190827 (Red Hat 9.2.1-1)
REM options -cpp -mtune=generic -march=x86-64 -g -O0 -fpre-include=/usr/include/finclude/math-vector-fortran.h
REM seed -1388582626 -633635958 -968967400 -85155808 -1913239700 1774230677 -1605520619 -918273979 -1190493078 -1065132296 1223944247 -1279824011 1606124408 316812106 2130855514 -451976097 -1672956152 808654728 1745008882 -379992918 -384384198 -686697259 -1170073601 1599298950 110439948 984174532 -2083466286 1059888696 -2119993249 -529847572 2082419617 -1181295795 -1896573005
REM
CELL 1.54180   50.00000   50.00000   50.00000   90.00000   90.00000   90.00000
LATT -1
SFAC C  
C      1  0.4864460000000  0.5451900000000  0.4729990000000 1.0
C      1  0.4565400000000  0.5124980000000  0.4893020000000 1.0
C      1  0.5476790000000  0.5157240000000  0.5114470000000 1.0
C      1  0.4529340000000  0.4924380000000  0.5092440000000 1.0
C      1  0.4755060000000  0.5437220000000  0.5259180000000 1.0
C      1  0.5070150000000  0.5308500000000  0.4580860000000 1.0
C      1  0.5121590000000  0.4595630000000  0.5196310000000 1.0
C      1  0.4765090000000  0.5167740000000  0.5364950000000 1.0
C      1  0.5481190000000  0.5072310000000  0.4843430000000 1.0
C      1  0.4899190000000  0.4494820000000  0.4977380000000 1.0
C      1  0.4584160000000  0.5079680000000  0.4588030000000 1.0
C      1  0.5042260000000  0.4641210000000  0.4785140000000 1.0
C      1  0.5422960000000  0.5168710000000  0.5355550000000 1.0
C      1  0.4708140000000  0.5370410000000  0.4956430000000 1.0
C      1  0.5230860000000  0.4799430000000  0.4642080000000 1.0
C      1  0.4775260000000  0.4901480000000  0.5434410000000 1.0
C      1  0.5254670000000  0.5097250000000  0.4651730000000 1.0
C      1  0.5460660000000  0.4771410000000  0.4829340000000 1.0
C      1  0.4522650000000  0.4743390000000  0.5313050000000 1.0
C      1  0.5389560000000  0.4612140000000  0.5076420000000 1.0
C      1  0.5247100000000  0.5002850000000  0.5415510000000 1.0
C      1  0.4781780000000  0.5277530000000  0.4497850000000 1.0
C      1  0.5051670000000  0.4799770000000  0.5402400000000 1.0
END
