TITL C-4164234-2335-322 4.0861948256339 125000 -26919.6079483216 0 0 180 (C1) n - 1
REM
REM in /home/nfs/bkarasulu/CARBON/AIRSS/Generating-Clusters/ReaxFF-fromJPCA2015/Units_Real/with-SteepDescent/Only-C1/SD-CG/Try1-3A/FIRE-CG
REM
REM
REM
REM
REM
REM ./C.cell (11c1c37f851c82e70ff6c80c92926a4b)
REM
REM compiler GCC version 9.2.1 20190827 (Red Hat 9.2.1-1)
REM options -cpp -mtune=generic -march=x86-64 -g -O0 -fpre-include=/usr/include/finclude/math-vector-fortran.h
REM seed -983576217 1532767486 1324860157 -1795134861 -1562944004 -527039653 -1763271302 -2028170946 -1186501650 825308300 -275080352 563155824 -568521856 686679180 700634995 56188101 791806019 -443380640 5920528 -538704200 1094198427 1122459066 -408138570 574340461 344769501 1028235366 -697930165 -2065247977 -1746557178 -78827174 -547285419 -1835133802 -1045940204
REM
CELL 1.54180   50.00000   50.00000   50.00000   90.00000   90.00000   90.00000
LATT -1
SFAC C  
C      1  0.5448850000000  0.4036000000000  0.5204780000000 1.0
C      1  0.4783610000000  0.5461960000000  0.5082090000000 1.0
C      1  0.4754000000000  0.4688610000000  0.5965160000000 1.0
C      1  0.4605110000000  0.5907620000000  0.4885270000000 1.0
C      1  0.6070290000000  0.5185550000000  0.4392600000000 1.0
C      1  0.4190460000000  0.5342640000000  0.5671980000000 1.0
C      1  0.4460940000000  0.4393260000000  0.4466270000000 1.0
C      1  0.5585840000000  0.5932280000000  0.5398990000000 1.0
C      1  0.4962130000000  0.4321160000000  0.4555810000000 1.0
C      1  0.5859040000000  0.4948650000000  0.5244360000000 1.0
C      1  0.5891580000000  0.4316390000000  0.5103290000000 1.0
C      1  0.5162080000000  0.5049490000000  0.6047170000000 1.0
C      1  0.4743960000000  0.5493910000000  0.4080540000000 1.0
C      1  0.4503740000000  0.5486300000000  0.4626230000000 1.0
C      1  0.4595730000000  0.5859990000000  0.4337120000000 1.0
C      1  0.5385050000000  0.5468210000000  0.5832920000000 1.0
C      1  0.4873460000000  0.5847910000000  0.4302100000000 1.0
C      1  0.5264530000000  0.4469850000000  0.5946590000000 1.0
C      1  0.5202310000000  0.4717120000000  0.3939150000000 1.0
C      1  0.5347600000000  0.5221230000000  0.5118150000000 1.0
C      1  0.6150680000000  0.5325730000000  0.5262370000000 1.0
C      1  0.5233040000000  0.5061710000000  0.5649050000000 1.0
C      1  0.5937710000000  0.5031070000000  0.5692070000000 1.0
C      1  0.5239200000000  0.5597930000000  0.4799020000000 1.0
C      1  0.5072860000000  0.4619570000000  0.5028750000000 1.0
C      1  0.5018000000000  0.4546940000000  0.6074130000000 1.0
C      1  0.5236270000000  0.4025620000000  0.5377400000000 1.0
C      1  0.6081280000000  0.5557320000000  0.5090890000000 1.0
C      1  0.6033720000000  0.4575670000000  0.5082800000000 1.0
C      1  0.4243030000000  0.5532960000000  0.4503960000000 1.0
C      1  0.4499010000000  0.4521730000000  0.5836100000000 1.0
C      1  0.4445190000000  0.5067990000000  0.5896890000000 1.0
C      1  0.4193090000000  0.4546140000000  0.5411690000000 1.0
C      1  0.4305580000000  0.4689360000000  0.5163230000000 1.0
C      1  0.4966830000000  0.4808570000000  0.4296130000000 1.0
C      1  0.4563840000000  0.6063650000000  0.5148210000000 1.0
C      1  0.4086430000000  0.5858430000000  0.5168550000000 1.0
C      1  0.5606230000000  0.4421200000000  0.5476970000000 1.0
C      1  0.4283980000000  0.6059990000000  0.5215260000000 1.0
C      1  0.5585180000000  0.5439050000000  0.4511180000000 1.0
C      1  0.5290230000000  0.5610940000000  0.4177110000000 1.0
C      1  0.5682520000000  0.5408390000000  0.5409390000000 1.0
C      1  0.5142280000000  0.5813000000000  0.4346300000000 1.0
C      1  0.4915040000000  0.5973300000000  0.4821200000000 1.0
C      1  0.3960300000000  0.4770550000000  0.4764340000000 1.0
C      1  0.5492880000000  0.5185520000000  0.4097430000000 1.0
C      1  0.5820930000000  0.4493190000000  0.4443230000000 1.0
C      1  0.4711990000000  0.5162080000000  0.5491130000000 1.0
C      1  0.4339110000000  0.5748370000000  0.5558940000000 1.0
C      1  0.4504090000000  0.4524610000000  0.5010780000000 1.0
C      1  0.5175500000000  0.4580290000000  0.4576150000000 1.0
C      1  0.4251250000000  0.4542230000000  0.4369790000000 1.0
C      1  0.3897220000000  0.5273660000000  0.4783230000000 1.0
C      1  0.4501890000000  0.4209560000000  0.4877770000000 1.0
C      1  0.6161670000000  0.5239070000000  0.4655680000000 1.0
C      1  0.4862000000000  0.4787750000000  0.4941590000000 1.0
C      1  0.5304640000000  0.3955760000000  0.4956750000000 1.0
C      1  0.5585620000000  0.5318880000000  0.5111930000000 1.0
C      1  0.6235370000000  0.5157770000000  0.5058930000000 1.0
C      1  0.5987270000000  0.4706490000000  0.4552160000000 1.0
C      1  0.3924180000000  0.5027690000000  0.4626570000000 1.0
C      1  0.4855770000000  0.4306170000000  0.5320520000000 1.0
C      1  0.4847480000000  0.4205190000000  0.4827420000000 1.0
C      1  0.5234680000000  0.4750670000000  0.4358180000000 1.0
C      1  0.5129370000000  0.5601620000000  0.5857190000000 1.0
C      1  0.5050500000000  0.4060960000000  0.5582200000000 1.0
C      1  0.5131030000000  0.5422630000000  0.4027970000000 1.0
C      1  0.5920340000000  0.5739680000000  0.5229270000000 1.0
C      1  0.4832760000000  0.5920400000000  0.5581220000000 1.0
C      1  0.5514490000000  0.5229430000000  0.5972350000000 1.0
C      1  0.4354580000000  0.5931960000000  0.4746380000000 1.0
C      1  0.4451230000000  0.4071460000000  0.5330320000000 1.0
C      1  0.5125970000000  0.5707740000000  0.5214100000000 1.0
C      1  0.5574970000000  0.5903530000000  0.5090290000000 1.0
C      1  0.4587220000000  0.4268840000000  0.5743640000000 1.0
C      1  0.5194560000000  0.4246350000000  0.4133980000000 1.0
C      1  0.4901720000000  0.5436730000000  0.5902950000000 1.0
C      1  0.5222870000000  0.5082650000000  0.4665960000000 1.0
C      1  0.4252160000000  0.4939210000000  0.5703840000000 1.0
C      1  0.5348290000000  0.5339780000000  0.4654740000000 1.0
C      1  0.5694880000000  0.4588200000000  0.5714040000000 1.0
C      1  0.5485210000000  0.4620450000000  0.5300320000000 1.0
C      1  0.4731760000000  0.5409050000000  0.5356640000000 1.0
C      1  0.4337370000000  0.4726460000000  0.4141510000000 1.0
C      1  0.5262830000000  0.4765280000000  0.4780280000000 1.0
C      1  0.4181780000000  0.5718910000000  0.4744860000000 1.0
C      1  0.4293520000000  0.4659670000000  0.5678620000000 1.0
C      1  0.4712160000000  0.4115870000000  0.5509740000000 1.0
C      1  0.4919650000000  0.5045230000000  0.4927370000000 1.0
C      1  0.4776860000000  0.3807430000000  0.5049970000000 1.0
C      1  0.4671840000000  0.5489320000000  0.5730980000000 1.0
C      1  0.4800030000000  0.6055380000000  0.5317040000000 1.0
C      1  0.5757210000000  0.5235300000000  0.4878960000000 1.0
C      1  0.3915130000000  0.4819990000000  0.5046590000000 1.0
C      1  0.5776530000000  0.4230290000000  0.4834660000000 1.0
C      1  0.4910990000000  0.5173160000000  0.6038290000000 1.0
C      1  0.5477500000000  0.4232220000000  0.4230820000000 1.0
C      1  0.4906800000000  0.5325980000000  0.4177800000000 1.0
C      1  0.4944090000000  0.5155560000000  0.4665330000000 1.0
C      1  0.5233110000000  0.5168540000000  0.3958470000000 1.0
C      1  0.5741530000000  0.5136690000000  0.5847140000000 1.0
C      1  0.5929820000000  0.4742710000000  0.5619080000000 1.0
C      1  0.4954280000000  0.4991510000000  0.5610600000000 1.0
C      1  0.6026570000000  0.4728080000000  0.5335910000000 1.0
C      1  0.5107700000000  0.5122320000000  0.5136300000000 1.0
C      1  0.4404990000000  0.5633520000000  0.4256980000000 1.0
C      1  0.5766640000000  0.5704870000000  0.5453340000000 1.0
C      1  0.4619040000000  0.5344100000000  0.4837630000000 1.0
C      1  0.5631370000000  0.4962700000000  0.4197920000000 1.0
C      1  0.5622180000000  0.4813550000000  0.5136740000000 1.0
C      1  0.5176960000000  0.4300320000000  0.5691000000000 1.0
C      1  0.4084620000000  0.5620710000000  0.5003930000000 1.0
C      1  0.5058560000000  0.4112540000000  0.4354200000000 1.0
C      1  0.4550250000000  0.5015980000000  0.4421880000000 1.0
C      1  0.5348540000000  0.4968220000000  0.5889050000000 1.0
C      1  0.4083650000000  0.4308500000000  0.5058940000000 1.0
C      1  0.5417140000000  0.5455700000000  0.5546610000000 1.0
C      1  0.5739540000000  0.5618770000000  0.4686420000000 1.0
C      1  0.3866160000000  0.4599550000000  0.5406210000000 1.0
C      1  0.5102990000000  0.5859700000000  0.5689720000000 1.0
C      1  0.5521170000000  0.5454670000000  0.4224450000000 1.0
C      1  0.4660290000000  0.4773890000000  0.5361590000000 1.0
C      1  0.5831270000000  0.4971480000000  0.4435620000000 1.0
C      1  0.5697770000000  0.5015890000000  0.4709440000000 1.0
C      1  0.4109810000000  0.5126540000000  0.5528720000000 1.0
C      1  0.4612850000000  0.5755010000000  0.5654590000000 1.0
C      1  0.4589190000000  0.4721140000000  0.3992260000000 1.0
C      1  0.4728220000000  0.4963070000000  0.3911220000000 1.0
C      1  0.5512190000000  0.4014350000000  0.4429270000000 1.0
C      1  0.4508260000000  0.5142320000000  0.3979980000000 1.0
C      1  0.4978570000000  0.5981720000000  0.5103650000000 1.0
C      1  0.4296510000000  0.4987170000000  0.5124810000000 1.0
C      1  0.4637280000000  0.4697510000000  0.4821010000000 1.0
C      1  0.6092510000000  0.4726690000000  0.4824080000000 1.0
C      1  0.4481400000000  0.5445140000000  0.4039070000000 1.0
C      1  0.4996990000000  0.3947550000000  0.4922990000000 1.0
C      1  0.4972450000000  0.4342320000000  0.5056780000000 1.0
C      1  0.5061570000000  0.5530870000000  0.5029420000000 1.0
C      1  0.4482860000000  0.4894840000000  0.4673780000000 1.0
C      1  0.5097130000000  0.5822110000000  0.4646680000000 1.0
C      1  0.5465820000000  0.4720340000000  0.4144710000000 1.0
C      1  0.6228360000000  0.4994030000000  0.4834480000000 1.0
C      1  0.4846650000000  0.5073020000000  0.4385580000000 1.0
C      1  0.5687060000000  0.4217710000000  0.5285960000000 1.0
C      1  0.4223430000000  0.4312820000000  0.4801190000000 1.0
C      1  0.5079400000000  0.4544860000000  0.5572720000000 1.0
C      1  0.4541030000000  0.4991790000000  0.5336550000000 1.0
C      1  0.5046990000000  0.4954560000000  0.3904720000000 1.0
C      1  0.4920680000000  0.4721040000000  0.5713570000000 1.0
C      1  0.4663060000000  0.4518890000000  0.5273630000000 1.0
C      1  0.5473610000000  0.4668040000000  0.5883370000000 1.0
C      1  0.5257300000000  0.5601100000000  0.5375220000000 1.0
C      1  0.4357610000000  0.5010700000000  0.4198490000000 1.0
C      1  0.4690130000000  0.4980670000000  0.6015550000000 1.0
C      1  0.4564840000000  0.6006240000000  0.4595350000000 1.0
C      1  0.5964620000000  0.5452650000000  0.4811650000000 1.0
C      1  0.5534060000000  0.5738030000000  0.4856900000000 1.0
C      1  0.5629650000000  0.4471910000000  0.4223220000000 1.0
C      1  0.4226240000000  0.4246460000000  0.5301380000000 1.0
C      1  0.5186950000000  0.4664710000000  0.5327970000000 1.0
C      1  0.5676900000000  0.4475210000000  0.4701640000000 1.0
C      1  0.4719620000000  0.4367390000000  0.4377860000000 1.0
C      1  0.5346550000000  0.5971020000000  0.5572650000000 1.0
C      1  0.4162390000000  0.5928520000000  0.5433110000000 1.0
C      1  0.4154740000000  0.5212890000000  0.4633750000000 1.0
C      1  0.5914200000000  0.5198970000000  0.5423550000000 1.0
C      1  0.5159870000000  0.4954460000000  0.5388660000000 1.0
C      1  0.4025600000000  0.5097500000000  0.5215130000000 1.0
C      1  0.5420360000000  0.3910220000000  0.4694970000000 1.0
C      1  0.4385530000000  0.5121530000000  0.4839750000000 1.0
C      1  0.5245500000000  0.3908060000000  0.4454480000000 1.0
C      1  0.4521440000000  0.3982910000000  0.5066880000000 1.0
C      1  0.5575900000000  0.4766850000000  0.4832980000000 1.0
C      1  0.4822460000000  0.4582710000000  0.4161420000000 1.0
C      1  0.3875410000000  0.4538890000000  0.5123140000000 1.0
C      1  0.3968800000000  0.5349950000000  0.5052900000000 1.0
C      1  0.4439110000000  0.5340400000000  0.5817460000000 1.0
C      1  0.4172200000000  0.5540730000000  0.5537280000000 1.0
C      1  0.5068760000000  0.4475220000000  0.4004430000000 1.0
C      1  0.4119640000000  0.4537540000000  0.4636360000000 1.0
END
