TITL C-4164234-2335-92 13.6576247872504 125000 -26788.5920572822 0 0 177 (C1) n - 1
REM
REM in /home/nfs/bkarasulu/CARBON/AIRSS/Generating-Clusters/ReaxFF-fromJPCA2015/Units_Real/with-SteepDescent/Only-C1/SD-CG/Try1-3A/FIRE-CG
REM
REM
REM
REM
REM
REM ./C.cell (11c1c37f851c82e70ff6c80c92926a4b)
REM
REM compiler GCC version 9.2.1 20190827 (Red Hat 9.2.1-1)
REM options -cpp -mtune=generic -march=x86-64 -g -O0 -fpre-include=/usr/include/finclude/math-vector-fortran.h
REM seed 1608485336 -1310119727 750439022 -1798801797 1557349248 925009467 -1713266525 -622360950 -315494118 942086747 2041915166 164743466 363786289 364338909 -940044297 1562287198 -531518453 1402602940 -2065389208 1687870979 999231820 2060017585 1803442851 534866764 231313199 -779624318 -1632481288 -553669040 -1861586138 488431721 1833196498 920769226 476893830
REM
CELL 1.54180   50.00000   50.00000   50.00000   90.00000   90.00000   90.00000
LATT -1
SFAC C  
C      1  0.5551080000000  0.5044970000000  0.4812360000000 1.0
C      1  0.5531360000000  0.5603800000000  0.5758580000000 1.0
C      1  0.4530430000000  0.4604870000000  0.5954470000000 1.0
C      1  0.6082020000000  0.5036540000000  0.4679940000000 1.0
C      1  0.5258780000000  0.4314710000000  0.5570960000000 1.0
C      1  0.6074180000000  0.5324120000000  0.5281940000000 1.0
C      1  0.5690500000000  0.4564630000000  0.4408720000000 1.0
C      1  0.5166510000000  0.5389570000000  0.4669530000000 1.0
C      1  0.5488430000000  0.3973370000000  0.4397760000000 1.0
C      1  0.3902080000000  0.4665990000000  0.4854740000000 1.0
C      1  0.5704110000000  0.4342760000000  0.4630250000000 1.0
C      1  0.5307450000000  0.4909330000000  0.4761630000000 1.0
C      1  0.4241430000000  0.5392910000000  0.4226230000000 1.0
C      1  0.5714780000000  0.4931880000000  0.5003750000000 1.0
C      1  0.5533190000000  0.3996420000000  0.5330040000000 1.0
C      1  0.6023750000000  0.4599230000000  0.4769470000000 1.0
C      1  0.4080410000000  0.5632960000000  0.4916760000000 1.0
C      1  0.4399410000000  0.4933950000000  0.4114550000000 1.0
C      1  0.4550710000000  0.4418540000000  0.4408020000000 1.0
C      1  0.5515830000000  0.4446330000000  0.4191900000000 1.0
C      1  0.4327080000000  0.4032090000000  0.4817010000000 1.0
C      1  0.4634880000000  0.5324370000000  0.3990010000000 1.0
C      1  0.4610370000000  0.5566400000000  0.5038510000000 1.0
C      1  0.5544390000000  0.4828450000000  0.4124080000000 1.0
C      1  0.5093810000000  0.3947950000000  0.4597920000000 1.0
C      1  0.5942160000000  0.5101420000000  0.4286950000000 1.0
C      1  0.4414020000000  0.4967270000000  0.5240970000000 1.0
C      1  0.4711560000000  0.4297070000000  0.4632040000000 1.0
C      1  0.4835890000000  0.3850360000000  0.4771800000000 1.0
C      1  0.4026390000000  0.5408580000000  0.4735110000000 1.0
C      1  0.4932350000000  0.5168240000000  0.4594280000000 1.0
C      1  0.4551600000000  0.6063010000000  0.5273060000000 1.0
C      1  0.5338010000000  0.4107310000000  0.5128170000000 1.0
C      1  0.4676670000000  0.4900900000000  0.4939150000000 1.0
C      1  0.5910090000000  0.4335110000000  0.4840690000000 1.0
C      1  0.5976860000000  0.4632340000000  0.4477450000000 1.0
C      1  0.4817710000000  0.4619490000000  0.5998480000000 1.0
C      1  0.5329740000000  0.4749050000000  0.6051270000000 1.0
C      1  0.5119180000000  0.5147820000000  0.3982030000000 1.0
C      1  0.5513720000000  0.5468800000000  0.5316220000000 1.0
C      1  0.4671180000000  0.6106150000000  0.5009930000000 1.0
C      1  0.4048690000000  0.4979340000000  0.4463860000000 1.0
C      1  0.3920080000000  0.5287680000000  0.5176910000000 1.0
C      1  0.4910240000000  0.4288540000000  0.4219320000000 1.0
C      1  0.4929130000000  0.4889610000000  0.4524960000000 1.0
C      1  0.5389680000000  0.4699030000000  0.5269860000000 1.0
C      1  0.4125750000000  0.4511440000000  0.5007670000000 1.0
C      1  0.4830980000000  0.5115590000000  0.3965540000000 1.0
C      1  0.4535670000000  0.5130470000000  0.5035620000000 1.0
C      1  0.4462900000000  0.4872970000000  0.4729000000000 1.0
C      1  0.4957640000000  0.4421060000000  0.5175540000000 1.0
C      1  0.5120530000000  0.4693330000000  0.4117850000000 1.0
C      1  0.4118430000000  0.4622090000000  0.5300620000000 1.0
C      1  0.4799300000000  0.5425600000000  0.5445370000000 1.0
C      1  0.5617470000000  0.5860470000000  0.5244370000000 1.0
C      1  0.5092150000000  0.4200600000000  0.5334770000000 1.0
C      1  0.4976320000000  0.4678080000000  0.5566190000000 1.0
C      1  0.4297100000000  0.5938640000000  0.5213110000000 1.0
C      1  0.5538330000000  0.5496900000000  0.5030360000000 1.0
C      1  0.4930550000000  0.4364110000000  0.5904320000000 1.0
C      1  0.4219980000000  0.4201390000000  0.5031550000000 1.0
C      1  0.4874220000000  0.5803340000000  0.4519370000000 1.0
C      1  0.5301640000000  0.3753820000000  0.4487770000000 1.0
C      1  0.4527660000000  0.4012450000000  0.5256510000000 1.0
C      1  0.4167970000000  0.5355580000000  0.5778920000000 1.0
C      1  0.4222770000000  0.4805310000000  0.4307880000000 1.0
C      1  0.5675970000000  0.4547720000000  0.5791790000000 1.0
C      1  0.4395800000000  0.5541150000000  0.5838920000000 1.0
C      1  0.4657280000000  0.5588730000000  0.4105980000000 1.0
C      1  0.4870550000000  0.5635380000000  0.4996870000000 1.0
C      1  0.5444750000000  0.5951730000000  0.4741600000000 1.0
C      1  0.5254460000000  0.4600580000000  0.5533190000000 1.0
C      1  0.6101520000000  0.4890330000000  0.4416730000000 1.0
C      1  0.4167520000000  0.5262010000000  0.4482980000000 1.0
C      1  0.4893350000000  0.4911570000000  0.5956960000000 1.0
C      1  0.4736390000000  0.3838900000000  0.5312570000000 1.0
C      1  0.5265860000000  0.5389500000000  0.4037940000000 1.0
C      1  0.4425700000000  0.6102640000000  0.4528510000000 1.0
C      1  0.5093650000000  0.4877540000000  0.4971250000000 1.0
C      1  0.4549960000000  0.5319190000000  0.5927660000000 1.0
C      1  0.5694750000000  0.5060000000000  0.4126060000000 1.0
C      1  0.5338610000000  0.5837500000000  0.4292720000000 1.0
C      1  0.4430720000000  0.5754940000000  0.5626060000000 1.0
C      1  0.5445970000000  0.5976590000000  0.5024980000000 1.0
C      1  0.5981610000000  0.4863170000000  0.4893390000000 1.0
C      1  0.5410450000000  0.5195750000000  0.5365230000000 1.0
C      1  0.4303230000000  0.4565720000000  0.4465010000000 1.0
C      1  0.4674820000000  0.4873610000000  0.4037290000000 1.0
C      1  0.4540240000000  0.5360880000000  0.4877260000000 1.0
C      1  0.5965970000000  0.5511640000000  0.5147590000000 1.0
C      1  0.5632120000000  0.5560010000000  0.4209720000000 1.0
C      1  0.5765820000000  0.5696460000000  0.5049800000000 1.0
C      1  0.5007900000000  0.5556210000000  0.5242700000000 1.0
C      1  0.5384530000000  0.4176290000000  0.4210180000000 1.0
C      1  0.5388000000000  0.5436550000000  0.5953260000000 1.0
C      1  0.4712440000000  0.4482490000000  0.4170420000000 1.0
C      1  0.4333460000000  0.5898090000000  0.4339710000000 1.0
C      1  0.4663660000000  0.5276900000000  0.4618810000000 1.0
C      1  0.5752390000000  0.5457280000000  0.5766820000000 1.0
C      1  0.4905950000000  0.4948590000000  0.5627450000000 1.0
C      1  0.5410140000000  0.5153280000000  0.6056980000000 1.0
C      1  0.5274710000000  0.6013370000000  0.4532150000000 1.0
C      1  0.4385450000000  0.5641810000000  0.4202950000000 1.0
C      1  0.5781080000000  0.4163580000000  0.5380250000000 1.0
C      1  0.4993450000000  0.6043070000000  0.4639740000000 1.0
C      1  0.4051310000000  0.5538420000000  0.5183090000000 1.0
C      1  0.4549240000000  0.5524840000000  0.5304650000000 1.0
C      1  0.5525900000000  0.5041960000000  0.5812830000000 1.0
C      1  0.5372630000000  0.4730960000000  0.4556500000000 1.0
C      1  0.6042310000000  0.5129800000000  0.5480040000000 1.0
C      1  0.4638560000000  0.5939010000000  0.5527800000000 1.0
C      1  0.4720600000000  0.4477810000000  0.5544460000000 1.0
C      1  0.5220010000000  0.4320920000000  0.5858080000000 1.0
C      1  0.4120770000000  0.4905810000000  0.5252490000000 1.0
C      1  0.5807570000000  0.4397100000000  0.5569700000000 1.0
C      1  0.4930210000000  0.5919420000000  0.5574840000000 1.0
C      1  0.4985670000000  0.4368110000000  0.4706730000000 1.0
C      1  0.5164570000000  0.5352960000000  0.5781460000000 1.0
C      1  0.4890620000000  0.5706690000000  0.4234460000000 1.0
C      1  0.5181740000000  0.4967960000000  0.6097090000000 1.0
C      1  0.4880190000000  0.4028200000000  0.5488910000000 1.0
C      1  0.5161760000000  0.6005310000000  0.5123390000000 1.0
C      1  0.4200250000000  0.4859440000000  0.5749940000000 1.0
C      1  0.5825130000000  0.4183270000000  0.5081920000000 1.0
C      1  0.5592750000000  0.4960270000000  0.5274290000000 1.0
C      1  0.5435300000000  0.4505040000000  0.5966350000000 1.0
C      1  0.5550330000000  0.5696250000000  0.4450070000000 1.0
C      1  0.4866740000000  0.5121770000000  0.5409650000000 1.0
C      1  0.5138880000000  0.5829690000000  0.5361340000000 1.0
C      1  0.5438030000000  0.5429990000000  0.4549710000000 1.0
C      1  0.4052880000000  0.5107610000000  0.5671140000000 1.0
C      1  0.5137330000000  0.4621520000000  0.5093110000000 1.0
C      1  0.5484760000000  0.4150490000000  0.4643070000000 1.0
C      1  0.4456000000000  0.4488890000000  0.5694410000000 1.0
C      1  0.4861940000000  0.4754270000000  0.4216820000000 1.0
C      1  0.5835030000000  0.4878630000000  0.5467650000000 1.0
C      1  0.4381830000000  0.5213310000000  0.4066550000000 1.0
C      1  0.5161840000000  0.5308660000000  0.5156840000000 1.0
C      1  0.5558640000000  0.5336850000000  0.4055170000000 1.0
C      1  0.5913630000000  0.5238910000000  0.4547330000000 1.0
C      1  0.5633660000000  0.4557950000000  0.5162200000000 1.0
C      1  0.4609190000000  0.4032640000000  0.4710910000000 1.0
C      1  0.5287750000000  0.4895050000000  0.4009710000000 1.0
C      1  0.3923510000000  0.4933050000000  0.4731020000000 1.0
C      1  0.4669240000000  0.4481430000000  0.5235370000000 1.0
C      1  0.4436250000000  0.4247880000000  0.5221220000000 1.0
C      1  0.5557830000000  0.4298840000000  0.5048290000000 1.0
C      1  0.4977270000000  0.5084340000000  0.5139640000000 1.0
C      1  0.3946810000000  0.5093200000000  0.5393870000000 1.0
C      1  0.5108090000000  0.4114730000000  0.4286410000000 1.0
C      1  0.3917110000000  0.5203810000000  0.4884100000000 1.0
C      1  0.4218900000000  0.5905280000000  0.4942110000000 1.0
C      1  0.5948300000000  0.5316260000000  0.5661570000000 1.0
C      1  0.5162660000000  0.5651680000000  0.4150680000000 1.0
C      1  0.4623620000000  0.5065080000000  0.6000780000000 1.0
C      1  0.4402790000000  0.4867280000000  0.5956930000000 1.0
C      1  0.4221310000000  0.4618450000000  0.5576630000000 1.0
C      1  0.4944750000000  0.5780290000000  0.5840920000000 1.0
C      1  0.5711960000000  0.4825930000000  0.5740100000000 1.0
C      1  0.5332270000000  0.5162150000000  0.5643860000000 1.0
C      1  0.5633090000000  0.5244470000000  0.4641160000000 1.0
C      1  0.5302240000000  0.5377920000000  0.4927330000000 1.0
C      1  0.4849440000000  0.3751480000000  0.5036370000000 1.0
C      1  0.4785010000000  0.4216630000000  0.5691120000000 1.0
C      1  0.4438070000000  0.5104410000000  0.4557900000000 1.0
C      1  0.4291880000000  0.5664020000000  0.5371420000000 1.0
C      1  0.4928050000000  0.5503870000000  0.5721250000000 1.0
C      1  0.4593890000000  0.4755690000000  0.5170870000000 1.0
C      1  0.4974580000000  0.4634050000000  0.4641640000000 1.0
C      1  0.4976090000000  0.5629410000000  0.4726550000000 1.0
C      1  0.4443200000000  0.6052910000000  0.4827410000000 1.0
C      1  0.4301110000000  0.4631690000000  0.4749630000000 1.0
C      1  0.5454420000000  0.5724270000000  0.5458160000000 1.0
C      1  0.5221310000000  0.4160570000000  0.4775080000000 1.0
C      1  0.4953010000000  0.6084870000000  0.4933900000000 1.0
C      1  0.5285400000000  0.4582840000000  0.4327940000000 1.0
C      1  0.5851480000000  0.4588230000000  0.5360660000000 1.0
END
