TITL C-4164234-2335-133 33.8130782405212 125000 -26910.4485470406 0 0 182 (C1) n - 1
REM
REM in /home/nfs/bkarasulu/CARBON/AIRSS/Generating-Clusters/ReaxFF-fromJPCA2015/Units_Real/with-SteepDescent/Only-C1/SD-CG/Try1-3A/FIRE-CG
REM
REM
REM
REM
REM
REM ./C.cell (11c1c37f851c82e70ff6c80c92926a4b)
REM
REM compiler GCC version 9.2.1 20190827 (Red Hat 9.2.1-1)
REM options -cpp -mtune=generic -march=x86-64 -g -O0 -fpre-include=/usr/include/finclude/math-vector-fortran.h
REM seed 16108021 -1764789790 -442260925 1681939150 207822849 1817135232 227846264 2041047377 457919756 383550329 -2106373755 666857062 1518627003 -34467372 -529642329 658873339 820988795 -1314980120 -2124193131 1109259839 -433429761 -1500607712 -992398230 -1831250950 -1675898503 629409985 1867458570 -205439282 -1769009109 -162864419 -1064407762 1306355305 822867017
REM
CELL 1.54180   50.00000   50.00000   50.00000   90.00000   90.00000   90.00000
LATT -1
SFAC C  
C      1  0.4979470000000  0.6019300000000  0.5631040000000 1.0
C      1  0.4742270000000  0.4435690000000  0.5326070000000 1.0
C      1  0.4180460000000  0.5676310000000  0.4666430000000 1.0
C      1  0.5415980000000  0.6030090000000  0.5297570000000 1.0
C      1  0.4435070000000  0.3970090000000  0.5318090000000 1.0
C      1  0.5509490000000  0.4612200000000  0.5882290000000 1.0
C      1  0.5013500000000  0.5732970000000  0.4823360000000 1.0
C      1  0.4365720000000  0.5254690000000  0.4754500000000 1.0
C      1  0.5784060000000  0.5176730000000  0.4984980000000 1.0
C      1  0.4490320000000  0.4606080000000  0.5857070000000 1.0
C      1  0.4827480000000  0.5968780000000  0.4767870000000 1.0
C      1  0.4828750000000  0.5099960000000  0.6080920000000 1.0
C      1  0.4339410000000  0.4772550000000  0.5437910000000 1.0
C      1  0.5096170000000  0.5488310000000  0.6027280000000 1.0
C      1  0.5231350000000  0.4404040000000  0.5417040000000 1.0
C      1  0.5157040000000  0.4970060000000  0.5856660000000 1.0
C      1  0.5436340000000  0.5925350000000  0.4714730000000 1.0
C      1  0.5294520000000  0.4313030000000  0.4394440000000 1.0
C      1  0.5470140000000  0.4808140000000  0.5331970000000 1.0
C      1  0.5768380000000  0.5681810000000  0.5088700000000 1.0
C      1  0.4318530000000  0.5585670000000  0.4421300000000 1.0
C      1  0.4735970000000  0.4131070000000  0.4551490000000 1.0
C      1  0.5202250000000  0.6024810000000  0.5460950000000 1.0
C      1  0.4009290000000  0.5499670000000  0.4828440000000 1.0
C      1  0.4493000000000  0.4097310000000  0.5587290000000 1.0
C      1  0.4959350000000  0.3953170000000  0.4925830000000 1.0
C      1  0.5428500000000  0.5148460000000  0.4006790000000 1.0
C      1  0.4824060000000  0.5676630000000  0.5310820000000 1.0
C      1  0.5692880000000  0.5852180000000  0.4819020000000 1.0
C      1  0.5535230000000  0.5299030000000  0.5089340000000 1.0
C      1  0.4096940000000  0.4970490000000  0.5372320000000 1.0
C      1  0.5402920000000  0.4977280000000  0.5121090000000 1.0
C      1  0.4284450000000  0.5318490000000  0.4325800000000 1.0
C      1  0.5028590000000  0.5058030000000  0.5603130000000 1.0
C      1  0.6035050000000  0.5071400000000  0.5127180000000 1.0
C      1  0.4297640000000  0.4549370000000  0.5647310000000 1.0
C      1  0.3928240000000  0.5039230000000  0.4617480000000 1.0
C      1  0.5912810000000  0.5479250000000  0.4524660000000 1.0
C      1  0.5265460000000  0.4225710000000  0.5660780000000 1.0
C      1  0.5042330000000  0.4502150000000  0.4508780000000 1.0
C      1  0.5496090000000  0.4912220000000  0.4846930000000 1.0
C      1  0.5018420000000  0.4799350000000  0.4470590000000 1.0
C      1  0.4367090000000  0.4712790000000  0.4532460000000 1.0
C      1  0.4490420000000  0.4957720000000  0.4034200000000 1.0
C      1  0.4973150000000  0.4847650000000  0.6053980000000 1.0
C      1  0.4673740000000  0.5581070000000  0.5779610000000 1.0
C      1  0.5464840000000  0.4522630000000  0.4749160000000 1.0
C      1  0.4922440000000  0.5196580000000  0.3910760000000 1.0
C      1  0.4196780000000  0.5145700000000  0.4548150000000 1.0
C      1  0.4784780000000  0.5444740000000  0.4545720000000 1.0
C      1  0.5264870000000  0.4228470000000  0.4121790000000 1.0
C      1  0.4490890000000  0.5678530000000  0.5595460000000 1.0
C      1  0.4587490000000  0.4976460000000  0.5408780000000 1.0
C      1  0.4608090000000  0.5680270000000  0.4402420000000 1.0
C      1  0.5529750000000  0.5177150000000  0.5949010000000 1.0
C      1  0.5171020000000  0.5636730000000  0.5805490000000 1.0
C      1  0.6143840000000  0.5088600000000  0.4837690000000 1.0
C      1  0.5321410000000  0.5356650000000  0.4593900000000 1.0
C      1  0.5290910000000  0.4994290000000  0.4179090000000 1.0
C      1  0.4734590000000  0.5051360000000  0.4881330000000 1.0
C      1  0.5364980000000  0.5215100000000  0.6189280000000 1.0
C      1  0.4353710000000  0.5138730000000  0.5838940000000 1.0
C      1  0.5935580000000  0.4603460000000  0.4759360000000 1.0
C      1  0.4367310000000  0.5863170000000  0.4792840000000 1.0
C      1  0.5631830000000  0.4669780000000  0.4268150000000 1.0
C      1  0.5234540000000  0.4495110000000  0.3990450000000 1.0
C      1  0.4132550000000  0.4274700000000  0.5013150000000 1.0
C      1  0.5594890000000  0.4437110000000  0.4481230000000 1.0
C      1  0.5261860000000  0.4454030000000  0.5876380000000 1.0
C      1  0.4902340000000  0.5763120000000  0.5789750000000 1.0
C      1  0.4234660000000  0.5330000000000  0.5006920000000 1.0
C      1  0.4532220000000  0.4428170000000  0.4034240000000 1.0
C      1  0.5442640000000  0.4896790000000  0.5872210000000 1.0
C      1  0.5261470000000  0.4506950000000  0.4952970000000 1.0
C      1  0.5105200000000  0.5563530000000  0.4582550000000 1.0
C      1  0.6085720000000  0.4848370000000  0.4678700000000 1.0
C      1  0.5316500000000  0.5533330000000  0.5553140000000 1.0
C      1  0.5652660000000  0.5910350000000  0.5423320000000 1.0
C      1  0.5007150000000  0.3993830000000  0.4529120000000 1.0
C      1  0.5390680000000  0.4716300000000  0.4127220000000 1.0
C      1  0.5732320000000  0.4883730000000  0.5490960000000 1.0
C      1  0.5737740000000  0.5210180000000  0.5582880000000 1.0
C      1  0.4808290000000  0.4374640000000  0.4424650000000 1.0
C      1  0.4576800000000  0.4764440000000  0.4759660000000 1.0
C      1  0.5107580000000  0.6168780000000  0.5042840000000 1.0
C      1  0.4771110000000  0.4475920000000  0.5790680000000 1.0
C      1  0.5424850000000  0.4051060000000  0.4939030000000 1.0
C      1  0.6014910000000  0.5504520000000  0.5019700000000 1.0
C      1  0.4602790000000  0.5874750000000  0.5384950000000 1.0
C      1  0.6065210000000  0.5361720000000  0.4766790000000 1.0
C      1  0.5818690000000  0.4345580000000  0.4667950000000 1.0
C      1  0.5713130000000  0.5426610000000  0.4295510000000 1.0
C      1  0.4621880000000  0.4971430000000  0.5138510000000 1.0
C      1  0.5677150000000  0.4206370000000  0.4898230000000 1.0
C      1  0.5008670000000  0.4490830000000  0.4816230000000 1.0
C      1  0.3989260000000  0.5586000000000  0.5478860000000 1.0
C      1  0.3919770000000  0.4748530000000  0.4696260000000 1.0
C      1  0.5179790000000  0.3970970000000  0.4774980000000 1.0
C      1  0.5914080000000  0.5422440000000  0.5491030000000 1.0
C      1  0.5298920000000  0.5772960000000  0.4434110000000 1.0
C      1  0.4589190000000  0.5903980000000  0.4611540000000 1.0
C      1  0.5864300000000  0.4434070000000  0.5542340000000 1.0
C      1  0.4831980000000  0.5435230000000  0.4014520000000 1.0
C      1  0.4159200000000  0.5213120000000  0.5614450000000 1.0
C      1  0.5487310000000  0.5615910000000  0.4254780000000 1.0
C      1  0.5769760000000  0.4926630000000  0.4259250000000 1.0
C      1  0.4428830000000  0.5970210000000  0.5085930000000 1.0
C      1  0.4643530000000  0.5253930000000  0.5862650000000 1.0
C      1  0.4769970000000  0.5221800000000  0.4354570000000 1.0
C      1  0.5095480000000  0.5760600000000  0.4191810000000 1.0
C      1  0.5732620000000  0.4641880000000  0.5694570000000 1.0
C      1  0.3902650000000  0.5380930000000  0.5668800000000 1.0
C      1  0.4390250000000  0.4848410000000  0.5025280000000 1.0
C      1  0.5946220000000  0.4813560000000  0.5297930000000 1.0
C      1  0.4417340000000  0.4289330000000  0.4260390000000 1.0
C      1  0.4530340000000  0.5185530000000  0.4219910000000 1.0
C      1  0.5895680000000  0.4996990000000  0.4513440000000 1.0
C      1  0.4854610000000  0.4632390000000  0.5482080000000 1.0
C      1  0.5345380000000  0.6054030000000  0.4959610000000 1.0
C      1  0.5822070000000  0.5707240000000  0.5504030000000 1.0
C      1  0.5007030000000  0.4562240000000  0.5953460000000 1.0
C      1  0.5080380000000  0.3962830000000  0.5356750000000 1.0
C      1  0.5473030000000  0.4071710000000  0.5463720000000 1.0
C      1  0.4588020000000  0.4389690000000  0.5098940000000 1.0
C      1  0.5676350000000  0.5182620000000  0.4143670000000 1.0
C      1  0.5811550000000  0.4287780000000  0.5146390000000 1.0
C      1  0.5126960000000  0.4951100000000  0.5134590000000 1.0
C      1  0.5558150000000  0.5555840000000  0.5244690000000 1.0
C      1  0.5712540000000  0.5078650000000  0.4735940000000 1.0
C      1  0.4982530000000  0.4585380000000  0.3930680000000 1.0
C      1  0.3853820000000  0.4810400000000  0.4956220000000 1.0
C      1  0.5962120000000  0.4529170000000  0.5276090000000 1.0
C      1  0.5498410000000  0.5330600000000  0.5679500000000 1.0
C      1  0.5018690000000  0.5070600000000  0.4895410000000 1.0
C      1  0.3910670000000  0.4764960000000  0.5224340000000 1.0
C      1  0.4725710000000  0.4634220000000  0.3889830000000 1.0
C      1  0.4752850000000  0.4936600000000  0.3908310000000 1.0
C      1  0.4839790000000  0.4969390000000  0.4373000000000 1.0
C      1  0.5202520000000  0.4937690000000  0.4660830000000 1.0
C      1  0.4700150000000  0.5451550000000  0.5199340000000 1.0
C      1  0.5377450000000  0.4555190000000  0.5231590000000 1.0
C      1  0.5671410000000  0.4676310000000  0.4854950000000 1.0
C      1  0.5213710000000  0.5305730000000  0.3927780000000 1.0
C      1  0.4612370000000  0.4483760000000  0.4275930000000 1.0
C      1  0.4862880000000  0.3943810000000  0.5156700000000 1.0
C      1  0.5346540000000  0.5390240000000  0.4872560000000 1.0
C      1  0.4206120000000  0.5067560000000  0.5120160000000 1.0
C      1  0.3818800000000  0.5298030000000  0.4744330000000 1.0
C      1  0.4643930000000  0.5296180000000  0.4751150000000 1.0
C      1  0.4744340000000  0.5114370000000  0.5609240000000 1.0
C      1  0.5201220000000  0.4062100000000  0.4334330000000 1.0
C      1  0.4295160000000  0.5481800000000  0.5467790000000 1.0
C      1  0.4967570000000  0.5313020000000  0.5206300000000 1.0
C      1  0.5004500000000  0.4071610000000  0.5614270000000 1.0
C      1  0.4341490000000  0.4613360000000  0.5185750000000 1.0
C      1  0.4682810000000  0.6122750000000  0.4975270000000 1.0
C      1  0.4066890000000  0.4522350000000  0.5159210000000 1.0
C      1  0.4430160000000  0.4877490000000  0.5872510000000 1.0
C      1  0.4989320000000  0.4456590000000  0.5305570000000 1.0
C      1  0.5067120000000  0.5522430000000  0.5386100000000 1.0
C      1  0.4444100000000  0.4176220000000  0.4533470000000 1.0
C      1  0.5066950000000  0.4852450000000  0.5402300000000 1.0
C      1  0.4237120000000  0.4293780000000  0.4729140000000 1.0
C      1  0.4204590000000  0.4146460000000  0.5271490000000 1.0
C      1  0.5348850000000  0.3989620000000  0.5221330000000 1.0
C      1  0.4864950000000  0.6229960000000  0.5179220000000 1.0
C      1  0.5074860000000  0.5355790000000  0.4942980000000 1.0
C      1  0.4783190000000  0.6110540000000  0.5440750000000 1.0
C      1  0.4414530000000  0.5406390000000  0.5216650000000 1.0
C      1  0.4729820000000  0.4540170000000  0.4872840000000 1.0
C      1  0.5730980000000  0.4195130000000  0.5410520000000 1.0
C      1  0.4137570000000  0.4547260000000  0.4627230000000 1.0
C      1  0.5766380000000  0.5690180000000  0.4611100000000 1.0
C      1  0.4752410000000  0.4183550000000  0.5698660000000 1.0
C      1  0.4264810000000  0.4275440000000  0.5548230000000 1.0
C      1  0.5274190000000  0.5573580000000  0.4058450000000 1.0
C      1  0.4615420000000  0.4069400000000  0.5115890000000 1.0
C      1  0.5297550000000  0.5110370000000  0.4449140000000 1.0
C      1  0.4370610000000  0.4796200000000  0.4258740000000 1.0
C      1  0.5054670000000  0.5261870000000  0.6189670000000 1.0
C      1  0.4817700000000  0.5673650000000  0.4157760000000 1.0
C      1  0.6065520000000  0.5350620000000  0.5254380000000 1.0
END
