TITL C-4164232-771-171 -0.299049901506383 125000 -5139.31186329913 0 0 36 (C1) n - 1
REM
REM in /home/nfs/bkarasulu/CARBON/AIRSS/Generating-Clusters/ReaxFF-fromJPCA2015/Units_Real/with-SteepDescent/Only-C1/SD-CG/Try1-3A/FIRE-CG
REM
REM
REM
REM
REM
REM ./C.cell (11c1c37f851c82e70ff6c80c92926a4b)
REM
REM compiler GCC version 9.2.1 20190827 (Red Hat 9.2.1-1)
REM options -cpp -mtune=generic -march=x86-64 -g -O0 -fpre-include=/usr/include/finclude/math-vector-fortran.h
REM seed 1760205178 -1864203385 652802177 1725238773 1337095315 1101261991 1077894880 -633675253 739175184 1988748748 1646067573 -537010403 -1409450150 -781668699 -1759640445 967648752 415334856 426292958 1659902974 -1010511689 -829458025 1840644738 1338688488 2116466924 176625655 -1349929278 -986826725 -1034929984 -1853646989 -1767601239 35512666 -1651360167 704059707
REM
CELL 1.54180   50.00000   50.00000   50.00000   90.00000   90.00000   90.00000
LATT -1
SFAC C  
C      1  0.5225740000000  0.5009820000000  0.5059740000000 1.0
C      1  0.5179050000000  0.4301120000000  0.4730980000000 1.0
C      1  0.5408660000000  0.5280580000000  0.4530870000000 1.0
C      1  0.5259650000000  0.5497980000000  0.4420850000000 1.0
C      1  0.4926150000000  0.4451780000000  0.4651090000000 1.0
C      1  0.4704030000000  0.4448630000000  0.5405790000000 1.0
C      1  0.4968650000000  0.4564870000000  0.5441530000000 1.0
C      1  0.5323520000000  0.4773140000000  0.5201960000000 1.0
C      1  0.5408040000000  0.5416720000000  0.4793520000000 1.0
C      1  0.5446810000000  0.5230630000000  0.5047060000000 1.0
C      1  0.5188040000000  0.4721600000000  0.5471180000000 1.0
C      1  0.5262160000000  0.5058600000000  0.5693760000000 1.0
C      1  0.4999960000000  0.5536080000000  0.5029890000000 1.0
C      1  0.5003020000000  0.4998360000000  0.4872240000000 1.0
C      1  0.4540680000000  0.4683370000000  0.5284720000000 1.0
C      1  0.4755990000000  0.5519440000000  0.5184380000000 1.0
C      1  0.4763730000000  0.5423020000000  0.4930230000000 1.0
C      1  0.5050770000000  0.4984610000000  0.5579520000000 1.0
C      1  0.5186720000000  0.5600280000000  0.4815490000000 1.0
C      1  0.4541570000000  0.4706290000000  0.4994670000000 1.0
C      1  0.4502060000000  0.4993110000000  0.4897450000000 1.0
C      1  0.4749830000000  0.5145200000000  0.4846930000000 1.0
C      1  0.5045550000000  0.4673970000000  0.4489730000000 1.0
C      1  0.5634550000000  0.5266230000000  0.5227590000000 1.0
C      1  0.4391820000000  0.5182510000000  0.5328200000000 1.0
C      1  0.5013710000000  0.4959940000000  0.4577330000000 1.0
C      1  0.5449580000000  0.4585010000000  0.5013390000000 1.0
C      1  0.4294150000000  0.5148550000000  0.5044700000000 1.0
C      1  0.4755170000000  0.5098450000000  0.5512350000000 1.0
C      1  0.5299260000000  0.5004600000000  0.4498630000000 1.0
C      1  0.4646940000000  0.5336310000000  0.5390020000000 1.0
C      1  0.5337140000000  0.4710460000000  0.4504620000000 1.0
C      1  0.5104530000000  0.5712290000000  0.4525510000000 1.0
C      1  0.5394190000000  0.4508620000000  0.4730360000000 1.0
C      1  0.4525570000000  0.4933820000000  0.5439040000000 1.0
C      1  0.4713020000000  0.4533990000000  0.4834670000000 1.0
END
