TITL C-4164245-3996-588 -0.389117483300201 125000 -8098.26916036539 0 0 56 (C1) n - 1
REM
REM in /home/nfs/bkarasulu/CARBON/AIRSS/Generating-Clusters/ReaxFF-fromJPCA2015/Units_Real/with-SteepDescent/Only-C1/SD-CG/Try1-3A/FIRE-CG
REM
REM
REM
REM
REM
REM ./C.cell (11c1c37f851c82e70ff6c80c92926a4b)
REM
REM compiler GCC version 9.2.1 20190827 (Red Hat 9.2.1-1)
REM options -cpp -mtune=generic -march=x86-64 -g -O0 -fpre-include=/usr/include/finclude/math-vector-fortran.h
REM seed 1901528353 923128055 417262847 260062655 -1394790651 -38980587 1224599558 559579707 -1461762654 88057981 -143129938 1639012179 -1187727767 1686904647 -77014842 1054864760 280046172 -954095658 1008698409 -1733810163 -636946498 676876019 1164043088 -188754826 217264917 251908062 -759976605 -1960495531 1145266425 1858859230 1440068737 1672403851 162539686
REM
CELL 1.54180   50.00000   50.00000   50.00000   90.00000   90.00000   90.00000
LATT -1
SFAC C  
C      1  0.4472600000000  0.5192400000000  0.4564350000000 1.0
C      1  0.5441780000000  0.5057030000000  0.4851380000000 1.0
C      1  0.4768640000000  0.5337490000000  0.5085750000000 1.0
C      1  0.5001220000000  0.4743560000000  0.5799780000000 1.0
C      1  0.4756250000000  0.4695270000000  0.5714120000000 1.0
C      1  0.5302680000000  0.4872140000000  0.5026950000000 1.0
C      1  0.4365760000000  0.4803610000000  0.4815220000000 1.0
C      1  0.5218890000000  0.4499870000000  0.5347420000000 1.0
C      1  0.4969440000000  0.5564910000000  0.5037850000000 1.0
C      1  0.4864390000000  0.5020010000000  0.4379860000000 1.0
C      1  0.5120800000000  0.5107810000000  0.5308990000000 1.0
C      1  0.5360540000000  0.5414760000000  0.4511580000000 1.0
C      1  0.5178590000000  0.4652340000000  0.4560130000000 1.0
C      1  0.4400340000000  0.4915370000000  0.4538600000000 1.0
C      1  0.4191830000000  0.4874090000000  0.5038770000000 1.0
C      1  0.5496160000000  0.4803430000000  0.5239670000000 1.0
C      1  0.5585710000000  0.4959760000000  0.4599560000000 1.0
C      1  0.5201640000000  0.5589080000000  0.5215180000000 1.0
C      1  0.5254800000000  0.5029380000000  0.4259450000000 1.0
C      1  0.5722470000000  0.4957840000000  0.4860570000000 1.0
C      1  0.5325740000000  0.5317080000000  0.5259920000000 1.0
C      1  0.4955990000000  0.4616780000000  0.5258210000000 1.0
C      1  0.4783830000000  0.5186550000000  0.4608270000000 1.0
C      1  0.5124340000000  0.5619120000000  0.5766010000000 1.0
C      1  0.4818170000000  0.5042830000000  0.4911370000000 1.0
C      1  0.5453060000000  0.4694740000000  0.4473700000000 1.0
C      1  0.5244180000000  0.5650960000000  0.4608360000000 1.0
C      1  0.5432430000000  0.4781950000000  0.4194540000000 1.0
C      1  0.5315940000000  0.4307020000000  0.5115510000000 1.0
C      1  0.5039280000000  0.4917280000000  0.5111720000000 1.0
C      1  0.4483160000000  0.4793540000000  0.5447360000000 1.0
C      1  0.4950150000000  0.4465100000000  0.4589540000000 1.0
C      1  0.5105060000000  0.4310810000000  0.4924490000000 1.0
C      1  0.4310070000000  0.4968820000000  0.5305070000000 1.0
C      1  0.4918180000000  0.5183080000000  0.5507140000000 1.0
C      1  0.4748160000000  0.5491660000000  0.4641260000000 1.0
C      1  0.5706010000000  0.4995040000000  0.5151350000000 1.0
C      1  0.4637380000000  0.4820650000000  0.4376320000000 1.0
C      1  0.4695820000000  0.4622570000000  0.5457520000000 1.0
C      1  0.4659930000000  0.4801000000000  0.4883140000000 1.0
C      1  0.5271680000000  0.4807320000000  0.5742520000000 1.0
C      1  0.4698840000000  0.5290200000000  0.5360430000000 1.0
C      1  0.4774090000000  0.4530330000000  0.4828230000000 1.0
C      1  0.4738770000000  0.4545630000000  0.4386190000000 1.0
C      1  0.5045510000000  0.5300590000000  0.5744710000000 1.0
C      1  0.4475430000000  0.5425000000000  0.4746760000000 1.0
C      1  0.5168770000000  0.5633780000000  0.5490160000000 1.0
C      1  0.4882460000000  0.4426260000000  0.5049540000000 1.0
C      1  0.4421590000000  0.5249050000000  0.5283540000000 1.0
C      1  0.5214340000000  0.5084920000000  0.5781970000000 1.0
C      1  0.5391140000000  0.4682520000000  0.5486270000000 1.0
C      1  0.5451980000000  0.5181110000000  0.4418500000000 1.0
C      1  0.4968020000000  0.5633510000000  0.4765590000000 1.0
C      1  0.4468830000000  0.5400680000000  0.5036760000000 1.0
C      1  0.5091260000000  0.4893950000000  0.4427470000000 1.0
C      1  0.5555900000000  0.5238430000000  0.5105400000000 1.0
END
