TITL C-4164239-2837-389 -8.96441569354005 125000 -9568.41025211301 0 0 66 (C1) n - 1
REM
REM in /home/nfs/bkarasulu/CARBON/AIRSS/Generating-Clusters/ReaxFF-fromJPCA2015/Units_Real/with-SteepDescent/Only-C1/SD-CG/Try1-3A/FIRE-CG
REM
REM
REM
REM
REM
REM ./C.cell (11c1c37f851c82e70ff6c80c92926a4b)
REM
REM compiler GCC version 9.2.1 20190827 (Red Hat 9.2.1-1)
REM options -cpp -mtune=generic -march=x86-64 -g -O0 -fpre-include=/usr/include/finclude/math-vector-fortran.h
REM seed -1306305477 -175418998 -953191242 109417063 1694453653 -1923720899 135000112 -264688409 -2036828875 1084929089 536765347 -399888311 1706594741 831345890 -1437667933 2117162537 -1674332311 2080466449 598853520 -792417087 412948231 1776337883 352756224 -1579645970 -1199792029 845827186 192559193 1229814192 -607714503 267578645 -495833229 -1895616666 -1724026476
REM
CELL 1.54180   50.00000   50.00000   50.00000   90.00000   90.00000   90.00000
LATT -1
SFAC C  
C      1  0.4737920000000  0.4796960000000  0.5279830000000 1.0
C      1  0.4687510000000  0.5138810000000  0.5654220000000 1.0
C      1  0.4426600000000  0.5049880000000  0.5072450000000 1.0
C      1  0.5039230000000  0.5228050000000  0.5189150000000 1.0
C      1  0.5724670000000  0.4841110000000  0.5007660000000 1.0
C      1  0.4923590000000  0.4359520000000  0.5282910000000 1.0
C      1  0.4559010000000  0.4482010000000  0.4604840000000 1.0
C      1  0.5064310000000  0.5429260000000  0.5413050000000 1.0
C      1  0.5236070000000  0.5652960000000  0.5338470000000 1.0
C      1  0.5086510000000  0.4901010000000  0.4650700000000 1.0
C      1  0.4778040000000  0.5737390000000  0.5058430000000 1.0
C      1  0.5043250000000  0.5746410000000  0.4610270000000 1.0
C      1  0.4924430000000  0.5525190000000  0.4424520000000 1.0
C      1  0.4702520000000  0.4361210000000  0.4828080000000 1.0
C      1  0.5343120000000  0.4746040000000  0.4563390000000 1.0
C      1  0.5520850000000  0.5321970000000  0.5489150000000 1.0
C      1  0.5231670000000  0.5053160000000  0.5077770000000 1.0
C      1  0.4920290000000  0.4753360000000  0.4869450000000 1.0
C      1  0.4616090000000  0.4900700000000  0.4898780000000 1.0
C      1  0.5246250000000  0.4919740000000  0.5672080000000 1.0
C      1  0.5501540000000  0.5529710000000  0.5304130000000 1.0
C      1  0.5189440000000  0.5134640000000  0.4812730000000 1.0
C      1  0.5362330000000  0.4739560000000  0.5485940000000 1.0
C      1  0.4787100000000  0.5733080000000  0.4770900000000 1.0
C      1  0.5438080000000  0.4545810000000  0.4754380000000 1.0
C      1  0.4433390000000  0.4745730000000  0.4519780000000 1.0
C      1  0.5441240000000  0.5115250000000  0.5615120000000 1.0
C      1  0.4687280000000  0.5511000000000  0.4608630000000 1.0
C      1  0.5209050000000  0.5074630000000  0.4253820000000 1.0
C      1  0.4985250000000  0.5798170000000  0.5258630000000 1.0
C      1  0.4882080000000  0.4711700000000  0.5670060000000 1.0
C      1  0.4977610000000  0.4919340000000  0.4350850000000 1.0
C      1  0.5725870000000  0.5129830000000  0.5037010000000 1.0
C      1  0.4850760000000  0.5608700000000  0.5427920000000 1.0
C      1  0.4624670000000  0.5545640000000  0.5255790000000 1.0
C      1  0.4692070000000  0.4473710000000  0.4338080000000 1.0
C      1  0.4537430000000  0.4586740000000  0.5228200000000 1.0
C      1  0.5405140000000  0.5281720000000  0.4670520000000 1.0
C      1  0.5419280000000  0.4541650000000  0.5294470000000 1.0
C      1  0.5490970000000  0.5519410000000  0.4826210000000 1.0
C      1  0.4521510000000  0.5301980000000  0.4736210000000 1.0
C      1  0.4682960000000  0.4351680000000  0.5117670000000 1.0
C      1  0.4793310000000  0.5084370000000  0.5262790000000 1.0
C      1  0.5281400000000  0.5670380000000  0.4731210000000 1.0
C      1  0.4589560000000  0.4686110000000  0.5732130000000 1.0
C      1  0.5540750000000  0.4617910000000  0.5024980000000 1.0
C      1  0.5200360000000  0.4359090000000  0.4768010000000 1.0
C      1  0.5454330000000  0.4945170000000  0.4392290000000 1.0
C      1  0.4933750000000  0.4983110000000  0.5723820000000 1.0
C      1  0.5617710000000  0.5105940000000  0.4567600000000 1.0
C      1  0.5079630000000  0.5316160000000  0.4321180000000 1.0
C      1  0.4831150000000  0.4709420000000  0.4217970000000 1.0
C      1  0.4934660000000  0.4484340000000  0.4763150000000 1.0
C      1  0.5775910000000  0.5015720000000  0.4788920000000 1.0
C      1  0.4237840000000  0.4655360000000  0.5282110000000 1.0
C      1  0.4984450000000  0.4653500000000  0.5347950000000 1.0
C      1  0.4630420000000  0.5275530000000  0.5398900000000 1.0
C      1  0.4514050000000  0.4998260000000  0.4652650000000 1.0
C      1  0.4488990000000  0.5329430000000  0.5020000000000 1.0
C      1  0.4318500000000  0.4928110000000  0.5354290000000 1.0
C      1  0.4535010000000  0.4703090000000  0.4246650000000 1.0
C      1  0.5519710000000  0.5338920000000  0.5075810000000 1.0
C      1  0.5207750000000  0.4299570000000  0.5274180000000 1.0
C      1  0.5102690000000  0.4797200000000  0.5102460000000 1.0
C      1  0.5299570000000  0.4259490000000  0.5013220000000 1.0
C      1  0.4471550000000  0.4939410000000  0.5615510000000 1.0
END
