TITL C-4164244-2836-384 0.92029780725911 125000 -9627.88709124089 0 0 66 (C1) n - 1
REM
REM in /home/nfs/bkarasulu/CARBON/AIRSS/Generating-Clusters/ReaxFF-fromJPCA2015/Units_Real/with-SteepDescent/Only-C1/SD-CG/Try1-3A/FIRE-CG
REM
REM
REM
REM
REM
REM ./C.cell (11c1c37f851c82e70ff6c80c92926a4b)
REM
REM compiler GCC version 9.2.1 20190827 (Red Hat 9.2.1-1)
REM options -cpp -mtune=generic -march=x86-64 -g -O0 -fpre-include=/usr/include/finclude/math-vector-fortran.h
REM seed -1676637662 -594324869 616209908 271414801 -1912797385 344541496 -1896604432 18418311 882466050 -287460345 -885346322 -1513018589 -1009903373 -402922866 -1832932159 1762671859 -1245297657 377905914 1924364654 160216770 -1860967400 -1563313087 473398268 -2091672232 1171253301 1023702668 -1777776835 1633657957 -1725966051 -531493407 257977075 -130048274 148822452
REM
CELL 1.54180   50.00000   50.00000   50.00000   90.00000   90.00000   90.00000
LATT -1
SFAC C  
C      1  0.4968130000000  0.5486970000000  0.5128240000000 1.0
C      1  0.4506840000000  0.5394500000000  0.5613690000000 1.0
C      1  0.4484950000000  0.5532850000000  0.5106950000000 1.0
C      1  0.5215100000000  0.5678760000000  0.5190420000000 1.0
C      1  0.5360670000000  0.4608330000000  0.5392300000000 1.0
C      1  0.5141810000000  0.5946720000000  0.5284540000000 1.0
C      1  0.4906520000000  0.4740920000000  0.5470950000000 1.0
C      1  0.4808840000000  0.4358500000000  0.4804510000000 1.0
C      1  0.4783550000000  0.4473840000000  0.5302580000000 1.0
C      1  0.4995290000000  0.5305400000000  0.5676850000000 1.0
C      1  0.4744240000000  0.5729320000000  0.4702600000000 1.0
C      1  0.5265170000000  0.5108650000000  0.5249870000000 1.0
C      1  0.5277390000000  0.5289940000000  0.5555770000000 1.0
C      1  0.4689890000000  0.4925260000000  0.5569690000000 1.0
C      1  0.5628860000000  0.5450630000000  0.5230570000000 1.0
C      1  0.5061190000000  0.4735860000000  0.4181430000000 1.0
C      1  0.5161320000000  0.4809010000000  0.5254120000000 1.0
C      1  0.5776750000000  0.5089160000000  0.4719110000000 1.0
C      1  0.4287670000000  0.4726450000000  0.5330190000000 1.0
C      1  0.5053980000000  0.5035540000000  0.4820700000000 1.0
C      1  0.5043920000000  0.4463440000000  0.4342430000000 1.0
C      1  0.5218180000000  0.5499320000000  0.4691530000000 1.0
C      1  0.5281070000000  0.5213030000000  0.4719150000000 1.0
C      1  0.5227940000000  0.4299500000000  0.5331480000000 1.0
C      1  0.4516460000000  0.5565430000000  0.4796210000000 1.0
C      1  0.5227380000000  0.4372300000000  0.4547930000000 1.0
C      1  0.5526910000000  0.5136090000000  0.4567110000000 1.0
C      1  0.4201450000000  0.4797250000000  0.5046230000000 1.0
C      1  0.5396560000000  0.5507730000000  0.5391950000000 1.0
C      1  0.5062320000000  0.4803190000000  0.5718860000000 1.0
C      1  0.4257870000000  0.4837020000000  0.4772120000000 1.0
C      1  0.5742020000000  0.4710500000000  0.5052990000000 1.0
C      1  0.4859470000000  0.5030540000000  0.4529530000000 1.0
C      1  0.5573240000000  0.4515870000000  0.5196860000000 1.0
C      1  0.4377260000000  0.5085640000000  0.4620460000000 1.0
C      1  0.5354080000000  0.5675130000000  0.4885310000000 1.0
C      1  0.5384220000000  0.4317320000000  0.5079910000000 1.0
C      1  0.4896180000000  0.5047850000000  0.5759210000000 1.0
C      1  0.5454960000000  0.5053820000000  0.5682670000000 1.0
C      1  0.5353530000000  0.4791100000000  0.5660010000000 1.0
C      1  0.4765220000000  0.4366590000000  0.4350190000000 1.0
C      1  0.4772840000000  0.5478690000000  0.5584220000000 1.0
C      1  0.4456910000000  0.4669970000000  0.4606740000000 1.0
C      1  0.4948450000000  0.5538410000000  0.4581400000000 1.0
C      1  0.4510600000000  0.4558200000000  0.5330780000000 1.0
C      1  0.5598200000000  0.5616080000000  0.4993900000000 1.0
C      1  0.5051400000000  0.4226900000000  0.4711300000000 1.0
C      1  0.4532830000000  0.5330640000000  0.4621520000000 1.0
C      1  0.4301140000000  0.5230640000000  0.5499170000000 1.0
C      1  0.5501960000000  0.5193920000000  0.4269660000000 1.0
C      1  0.4966570000000  0.4210130000000  0.5386150000000 1.0
C      1  0.4413380000000  0.4945400000000  0.5497510000000 1.0
C      1  0.4794560000000  0.5308420000000  0.4482970000000 1.0
C      1  0.5250560000000  0.5114350000000  0.4137640000000 1.0
C      1  0.4730430000000  0.5541410000000  0.5284220000000 1.0
C      1  0.5002290000000  0.5011550000000  0.4272660000000 1.0
C      1  0.5041940000000  0.5213670000000  0.5072600000000 1.0
C      1  0.4605230000000  0.4414480000000  0.4602070000000 1.0
C      1  0.5266960000000  0.4834630000000  0.3992650000000 1.0
C      1  0.4864630000000  0.4562080000000  0.5001710000000 1.0
C      1  0.5554760000000  0.5166570000000  0.5186440000000 1.0
C      1  0.4575570000000  0.4912640000000  0.4512800000000 1.0
C      1  0.5059760000000  0.4767200000000  0.4977290000000 1.0
C      1  0.4325710000000  0.5379630000000  0.5254870000000 1.0
C      1  0.5304610000000  0.4255190000000  0.4804990000000 1.0
C      1  0.5730330000000  0.5003940000000  0.5007520000000 1.0
END
