TITL C-4164236-1577-1 63.1868053498458 125000 -29579.8271104269 0 0 197 (C1) n - 1
REM
REM in /home/nfs/bkarasulu/CARBON/AIRSS/Generating-Clusters/ReaxFF-fromJPCA2015/Units_Real/with-SteepDescent/Only-C1/SD-CG/Try1-3A/FIRE-CG
REM
REM
REM
REM
REM
REM ./C.cell (11c1c37f851c82e70ff6c80c92926a4b)
REM
REM compiler GCC version 9.2.1 20190827 (Red Hat 9.2.1-1)
REM options -cpp -mtune=generic -march=x86-64 -g -O0 -fpre-include=/usr/include/finclude/math-vector-fortran.h
REM seed -576771848 -1491552535 971365766 -1926777177 134728136 663842475 -1350487208 -281947081 587335916 -749437675 1091383961 -315582248 -576274698 1736994369 -553259751 -340680883 -230732952 -827629368 -1609063762 -586164075 -1746435096 114541715 -1793377154 -707648314 -1728585377 1057160078 1072155801 -2033881693 -528363130 1553366953 -265724027 1994056830 -2022067233
REM
CELL 1.54180   50.00000   50.00000   50.00000   90.00000   90.00000   90.00000
LATT -1
SFAC C  
C      1  0.4969660000000  0.3970310000000  0.5521750000000 1.0
C      1  0.4643840000000  0.4043960000000  0.4746220000000 1.0
C      1  0.4298430000000  0.5582390000000  0.4398880000000 1.0
C      1  0.4875260000000  0.5646740000000  0.5032730000000 1.0
C      1  0.4478310000000  0.4212110000000  0.4249340000000 1.0
C      1  0.4665430000000  0.5191540000000  0.4556960000000 1.0
C      1  0.4445550000000  0.5811340000000  0.4511820000000 1.0
C      1  0.3938010000000  0.4777270000000  0.5149350000000 1.0
C      1  0.4025210000000  0.5555140000000  0.4540670000000 1.0
C      1  0.4740580000000  0.4191730000000  0.4131050000000 1.0
C      1  0.5124410000000  0.4037680000000  0.5035280000000 1.0
C      1  0.4986020000000  0.5221920000000  0.4962780000000 1.0
C      1  0.5190100000000  0.4838860000000  0.3886510000000 1.0
C      1  0.5173440000000  0.5077370000000  0.5121820000000 1.0
C      1  0.5999750000000  0.4410980000000  0.5072490000000 1.0
C      1  0.4640740000000  0.6127420000000  0.5005800000000 1.0
C      1  0.4167860000000  0.4559930000000  0.5744870000000 1.0
C      1  0.4772140000000  0.4549840000000  0.4367450000000 1.0
C      1  0.5719790000000  0.5785730000000  0.4694050000000 1.0
C      1  0.4504880000000  0.5840190000000  0.5937040000000 1.0
C      1  0.5674270000000  0.4816960000000  0.4055140000000 1.0
C      1  0.5171780000000  0.3931740000000  0.5308660000000 1.0
C      1  0.4730430000000  0.4296850000000  0.5409680000000 1.0
C      1  0.4868180000000  0.5224430000000  0.3923170000000 1.0
C      1  0.4538170000000  0.5588850000000  0.5326480000000 1.0
C      1  0.5529650000000  0.5247970000000  0.4941330000000 1.0
C      1  0.4563040000000  0.5331150000000  0.6006590000000 1.0
C      1  0.5718170000000  0.4565540000000  0.5748560000000 1.0
C      1  0.5279470000000  0.3988230000000  0.4503400000000 1.0
C      1  0.5997990000000  0.5110360000000  0.4645570000000 1.0
C      1  0.4972490000000  0.4098120000000  0.4251050000000 1.0
C      1  0.5152520000000  0.4833190000000  0.4970120000000 1.0
C      1  0.4795920000000  0.4978600000000  0.4379050000000 1.0
C      1  0.4824060000000  0.4545390000000  0.6049330000000 1.0
C      1  0.5220690000000  0.4154850000000  0.4271840000000 1.0
C      1  0.5929070000000  0.5760390000000  0.5699490000000 1.0
C      1  0.5053540000000  0.4869830000000  0.4490540000000 1.0
C      1  0.4703810000000  0.5225090000000  0.4901850000000 1.0
C      1  0.4951400000000  0.4839460000000  0.4763280000000 1.0
C      1  0.5120310000000  0.5600180000000  0.4047370000000 1.0
C      1  0.4291130000000  0.5404760000000  0.5376420000000 1.0
C      1  0.5547640000000  0.5151980000000  0.4516610000000 1.0
C      1  0.4826830000000  0.4518310000000  0.4060480000000 1.0
C      1  0.6053070000000  0.5171390000000  0.4918100000000 1.0
C      1  0.5705690000000  0.4405290000000  0.4359260000000 1.0
C      1  0.5023830000000  0.4151920000000  0.5760660000000 1.0
C      1  0.3961900000000  0.4781570000000  0.4510000000000 1.0
C      1  0.4599420000000  0.4689080000000  0.6113760000000 1.0
C      1  0.5017420000000  0.5558430000000  0.5536830000000 1.0
C      1  0.5377720000000  0.5550810000000  0.5154860000000 1.0
C      1  0.4764440000000  0.5881310000000  0.5787580000000 1.0
C      1  0.4335390000000  0.5796430000000  0.5253160000000 1.0
C      1  0.5114110000000  0.4584800000000  0.3997950000000 1.0
C      1  0.4450180000000  0.4042820000000  0.4964220000000 1.0
C      1  0.4663460000000  0.5682880000000  0.4123700000000 1.0
C      1  0.4015550000000  0.5281400000000  0.5043880000000 1.0
C      1  0.5899970000000  0.5521640000000  0.5523680000000 1.0
C      1  0.5696770000000  0.4036740000000  0.5237710000000 1.0
C      1  0.5660470000000  0.5074700000000  0.5384190000000 1.0
C      1  0.4884060000000  0.6191680000000  0.4875970000000 1.0
C      1  0.4873220000000  0.6160360000000  0.5155880000000 1.0
C      1  0.5665630000000  0.5083170000000  0.5719780000000 1.0
C      1  0.5379220000000  0.5219340000000  0.3910490000000 1.0
C      1  0.4552050000000  0.4105810000000  0.4489940000000 1.0
C      1  0.4142000000000  0.5120880000000  0.5781610000000 1.0
C      1  0.4988020000000  0.4781630000000  0.5932500000000 1.0
C      1  0.5060140000000  0.4323510000000  0.5021470000000 1.0
C      1  0.5524180000000  0.5962690000000  0.5379390000000 1.0
C      1  0.4966090000000  0.4447590000000  0.4543600000000 1.0
C      1  0.4413100000000  0.5545540000000  0.4101580000000 1.0
C      1  0.5278620000000  0.4731260000000  0.5910160000000 1.0
C      1  0.5798730000000  0.5049800000000  0.4125690000000 1.0
C      1  0.4805110000000  0.4300900000000  0.5882760000000 1.0
C      1  0.5401040000000  0.4960740000000  0.4064640000000 1.0
C      1  0.5296250000000  0.5088650000000  0.4376250000000 1.0
C      1  0.5890680000000  0.4432230000000  0.5542360000000 1.0
C      1  0.5732390000000  0.5371610000000  0.5743730000000 1.0
C      1  0.5459860000000  0.4534680000000  0.4695010000000 1.0
C      1  0.4414140000000  0.5948180000000  0.5015090000000 1.0
C      1  0.4274900000000  0.5013170000000  0.4017990000000 1.0
C      1  0.5091280000000  0.5685610000000  0.5244200000000 1.0
C      1  0.5334270000000  0.6095530000000  0.5203570000000 1.0
C      1  0.5961840000000  0.4340290000000  0.4785340000000 1.0
C      1  0.5488630000000  0.5681400000000  0.4603620000000 1.0
C      1  0.4385920000000  0.4333920000000  0.4902360000000 1.0
C      1  0.5216090000000  0.5034440000000  0.5631560000000 1.0
C      1  0.4752300000000  0.5009650000000  0.4089160000000 1.0
C      1  0.4652840000000  0.4753660000000  0.3967910000000 1.0
C      1  0.3932230000000  0.5064000000000  0.4392870000000 1.0
C      1  0.4635550000000  0.4469090000000  0.4871630000000 1.0
C      1  0.4199920000000  0.5111130000000  0.4285860000000 1.0
C      1  0.4054300000000  0.5697870000000  0.4791310000000 1.0
C      1  0.5298140000000  0.4246550000000  0.5809670000000 1.0
C      1  0.4631060000000  0.4839730000000  0.5173370000000 1.0
C      1  0.5360290000000  0.5673810000000  0.4132750000000 1.0
C      1  0.5956480000000  0.5448810000000  0.4981530000000 1.0
C      1  0.4305460000000  0.4502660000000  0.4217090000000 1.0
C      1  0.5207030000000  0.3903820000000  0.4787010000000 1.0
C      1  0.4745390000000  0.5123490000000  0.5595240000000 1.0
C      1  0.4717820000000  0.5643170000000  0.5599420000000 1.0
C      1  0.4236280000000  0.4149090000000  0.5414090000000 1.0
C      1  0.5868920000000  0.4277620000000  0.5297240000000 1.0
C      1  0.4450500000000  0.4001220000000  0.5251680000000 1.0
C      1  0.4825090000000  0.5625640000000  0.4541840000000 1.0
C      1  0.4376150000000  0.4735420000000  0.4007370000000 1.0
C      1  0.5864970000000  0.5547630000000  0.4724920000000 1.0
C      1  0.4511330000000  0.5558470000000  0.5826440000000 1.0
C      1  0.5445320000000  0.4506040000000  0.5869170000000 1.0
C      1  0.4350330000000  0.5131840000000  0.6009920000000 1.0
C      1  0.5912950000000  0.4829330000000  0.4605210000000 1.0
C      1  0.5012770000000  0.5788890000000  0.5931350000000 1.0
C      1  0.5488460000000  0.3851050000000  0.4814680000000 1.0
C      1  0.4721490000000  0.5835370000000  0.4383670000000 1.0
C      1  0.4370880000000  0.5293670000000  0.3952920000000 1.0
C      1  0.5633680000000  0.5761620000000  0.5181590000000 1.0
C      1  0.3904940000000  0.4464090000000  0.5112860000000 1.0
C      1  0.5303380000000  0.4545930000000  0.4963420000000 1.0
C      1  0.5829700000000  0.4832540000000  0.5772390000000 1.0
C      1  0.5305580000000  0.5806150000000  0.4410170000000 1.0
C      1  0.4305670000000  0.4314940000000  0.5656400000000 1.0
C      1  0.5653490000000  0.5783610000000  0.5833980000000 1.0
C      1  0.4123730000000  0.4839310000000  0.5687350000000 1.0
C      1  0.5306910000000  0.4462720000000  0.4186500000000 1.0
C      1  0.4976650000000  0.5635730000000  0.4767060000000 1.0
C      1  0.5646410000000  0.4762910000000  0.4728740000000 1.0
C      1  0.5185770000000  0.5749300000000  0.5701650000000 1.0
C      1  0.5073920000000  0.5986330000000  0.5269720000000 1.0
C      1  0.5113250000000  0.5120340000000  0.3817730000000 1.0
C      1  0.4835940000000  0.4728730000000  0.5373570000000 1.0
C      1  0.5298600000000  0.4798910000000  0.5492000000000 1.0
C      1  0.5129190000000  0.5311230000000  0.4458560000000 1.0
C      1  0.5565030000000  0.3988360000000  0.4592130000000 1.0
C      1  0.5317070000000  0.5439890000000  0.6076960000000 1.0
C      1  0.6099590000000  0.4621840000000  0.5451590000000 1.0
C      1  0.5116270000000  0.6076330000000  0.4737880000000 1.0
C      1  0.5957860000000  0.5051330000000  0.5367040000000 1.0
C      1  0.4415060000000  0.5056730000000  0.5145390000000 1.0
C      1  0.4841770000000  0.4843150000000  0.5637490000000 1.0
C      1  0.4032510000000  0.4552280000000  0.4345690000000 1.0
C      1  0.5443500000000  0.5880880000000  0.5646200000000 1.0
C      1  0.4307760000000  0.5854240000000  0.4760760000000 1.0
C      1  0.4219010000000  0.4854880000000  0.5220420000000 1.0
C      1  0.5766740000000  0.5318870000000  0.4195960000000 1.0
C      1  0.4359880000000  0.4714760000000  0.5615830000000 1.0
C      1  0.4667020000000  0.4744280000000  0.4866480000000 1.0
C      1  0.5405940000000  0.5484040000000  0.4853360000000 1.0
C      1  0.6122720000000  0.4666850000000  0.5165970000000 1.0
C      1  0.5614750000000  0.4531040000000  0.4141700000000 1.0
C      1  0.5258400000000  0.5159810000000  0.6095470000000 1.0
C      1  0.4154090000000  0.4855120000000  0.4727260000000 1.0
C      1  0.5516970000000  0.5022810000000  0.4772930000000 1.0
C      1  0.4599610000000  0.4320740000000  0.5673740000000 1.0
C      1  0.5060610000000  0.5938510000000  0.4488210000000 1.0
C      1  0.4207220000000  0.5167940000000  0.4707860000000 1.0
C      1  0.5446750000000  0.3991250000000  0.5397760000000 1.0
C      1  0.4426590000000  0.4688330000000  0.5333600000000 1.0
C      1  0.4867680000000  0.5529840000000  0.3971620000000 1.0
C      1  0.5225440000000  0.4565790000000  0.4484220000000 1.0
C      1  0.4844640000000  0.4305890000000  0.4792260000000 1.0
C      1  0.4645700000000  0.5473520000000  0.5050720000000 1.0
C      1  0.5695260000000  0.4283580000000  0.4617360000000 1.0
C      1  0.5615380000000  0.5929070000000  0.4912640000000 1.0
C      1  0.5365440000000  0.6068140000000  0.4911520000000 1.0
C      1  0.4451640000000  0.4888770000000  0.6094850000000 1.0
C      1  0.5023490000000  0.5241750000000  0.5572430000000 1.0
C      1  0.5043620000000  0.5535130000000  0.6075020000000 1.0
C      1  0.5819630000000  0.5317210000000  0.4515520000000 1.0
C      1  0.4140000000000  0.5324380000000  0.5586530000000 1.0
C      1  0.5870520000000  0.5572400000000  0.5231380000000 1.0
C      1  0.4138690000000  0.4445370000000  0.4980210000000 1.0
C      1  0.5270400000000  0.4493650000000  0.5419550000000 1.0
C      1  0.4962550000000  0.4459470000000  0.5306640000000 1.0
C      1  0.5413210000000  0.4241190000000  0.5546310000000 1.0
C      1  0.5427610000000  0.5244710000000  0.5197240000000 1.0
C      1  0.6028260000000  0.4594240000000  0.4699920000000 1.0
C      1  0.3943950000000  0.5282930000000  0.4577420000000 1.0
C      1  0.5472350000000  0.4557650000000  0.5206280000000 1.0
C      1  0.3968320000000  0.5573430000000  0.5042770000000 1.0
C      1  0.4848850000000  0.5305550000000  0.6086050000000 1.0
C      1  0.4850670000000  0.5376730000000  0.4428760000000 1.0
C      1  0.5381760000000  0.4999190000000  0.5877880000000 1.0
C      1  0.4497980000000  0.4608840000000  0.4441440000000 1.0
C      1  0.4104180000000  0.5617870000000  0.5300540000000 1.0
C      1  0.5614640000000  0.3956550000000  0.5006370000000 1.0
C      1  0.4381720000000  0.5255290000000  0.4479730000000 1.0
C      1  0.3909120000000  0.5018180000000  0.5005950000000 1.0
C      1  0.4304130000000  0.5262220000000  0.4974200000000 1.0
C      1  0.4728330000000  0.4009380000000  0.5350540000000 1.0
C      1  0.4993940000000  0.5060170000000  0.6092680000000 1.0
C      1  0.5517610000000  0.5425380000000  0.4064430000000 1.0
C      1  0.6047530000000  0.4876900000000  0.5585150000000 1.0
C      1  0.5138870000000  0.5407050000000  0.4747580000000 1.0
C      1  0.3975630000000  0.4232350000000  0.5301300000000 1.0
C      1  0.4418970000000  0.4752940000000  0.4674220000000 1.0
C      1  0.5530340000000  0.4810910000000  0.5341520000000 1.0
C      1  0.5570130000000  0.5520180000000  0.5930930000000 1.0
C      1  0.6081210000000  0.4958290000000  0.5122720000000 1.0
END
