TITL C-4164235-1454-165 -6.22855407652528 125000 -19011.694197535 0 0 126 (C1) n - 1
REM
REM in /home/nfs/bkarasulu/CARBON/AIRSS/Generating-Clusters/ReaxFF-fromJPCA2015/Units_Real/with-SteepDescent/Only-C1/SD-CG/Try1-3A/FIRE-CG
REM
REM
REM
REM
REM
REM ./C.cell (11c1c37f851c82e70ff6c80c92926a4b)
REM
REM compiler GCC version 9.2.1 20190827 (Red Hat 9.2.1-1)
REM options -cpp -mtune=generic -march=x86-64 -g -O0 -fpre-include=/usr/include/finclude/math-vector-fortran.h
REM seed 741394526 537758794 -672586686 -1920390138 -1060700161 2146923458 -1404317940 301500680 857681623 -907334532 1962760425 -150832826 -2014670845 2012395251 -668356198 -1172049061 -1262232591 1385015664 -767460607 -2107554199 1932427716 1222430159 -1535466802 883629895 -1171673815 -1253826178 -1602750880 -1985451341 1446921932 715567465 1978557087 -1926803604 -270002144
REM
CELL 1.54180   50.00000   50.00000   50.00000   90.00000   90.00000   90.00000
LATT -1
SFAC C  
C      1  0.4778000000000  0.5666730000000  0.5571920000000 1.0
C      1  0.5825720000000  0.5555880000000  0.5361780000000 1.0
C      1  0.5185400000000  0.5946840000000  0.5499560000000 1.0
C      1  0.4747870000000  0.5701450000000  0.5042980000000 1.0
C      1  0.5875840000000  0.4640620000000  0.5029640000000 1.0
C      1  0.5218690000000  0.5018030000000  0.4043330000000 1.0
C      1  0.5199000000000  0.5453160000000  0.5679180000000 1.0
C      1  0.4172560000000  0.4585250000000  0.4478310000000 1.0
C      1  0.4968690000000  0.4857840000000  0.4022640000000 1.0
C      1  0.4359190000000  0.4954220000000  0.4434800000000 1.0
C      1  0.5528660000000  0.4954690000000  0.5109490000000 1.0
C      1  0.5671280000000  0.5449790000000  0.5597890000000 1.0
C      1  0.4978430000000  0.5819890000000  0.4493180000000 1.0
C      1  0.4276460000000  0.4742980000000  0.4246750000000 1.0
C      1  0.5608330000000  0.5206420000000  0.5745690000000 1.0
C      1  0.5177100000000  0.5879150000000  0.4956780000000 1.0
C      1  0.4773820000000  0.5124910000000  0.4739220000000 1.0
C      1  0.5155640000000  0.5629920000000  0.4336070000000 1.0
C      1  0.4584660000000  0.5515340000000  0.4510030000000 1.0
C      1  0.4792670000000  0.5244820000000  0.5200220000000 1.0
C      1  0.5044830000000  0.5256440000000  0.5436550000000 1.0
C      1  0.5052610000000  0.4053440000000  0.4963740000000 1.0
C      1  0.4558400000000  0.5324880000000  0.4735750000000 1.0
C      1  0.5282540000000  0.4741830000000  0.4711730000000 1.0
C      1  0.4496350000000  0.4966110000000  0.5724710000000 1.0
C      1  0.4861480000000  0.4605020000000  0.5823570000000 1.0
C      1  0.5221510000000  0.5207730000000  0.5202640000000 1.0
C      1  0.5797950000000  0.4801580000000  0.4360670000000 1.0
C      1  0.4088220000000  0.5128190000000  0.5339610000000 1.0
C      1  0.4637810000000  0.4474120000000  0.4314200000000 1.0
C      1  0.5037790000000  0.4738250000000  0.4552130000000 1.0
C      1  0.4527100000000  0.4669650000000  0.4114460000000 1.0
C      1  0.4876530000000  0.5460770000000  0.5040720000000 1.0
C      1  0.5889520000000  0.4760840000000  0.4763520000000 1.0
C      1  0.4659300000000  0.4501160000000  0.5652920000000 1.0
C      1  0.4689010000000  0.4595310000000  0.4870990000000 1.0
C      1  0.4178460000000  0.5354460000000  0.5524510000000 1.0
C      1  0.5428790000000  0.5573350000000  0.5561840000000 1.0
C      1  0.5012700000000  0.4692480000000  0.4266050000000 1.0
C      1  0.4265850000000  0.4430540000000  0.4884480000000 1.0
C      1  0.5477530000000  0.4511400000000  0.4546450000000 1.0
C      1  0.4315550000000  0.5141270000000  0.5194800000000 1.0
C      1  0.5396280000000  0.4560010000000  0.4257150000000 1.0
C      1  0.5376010000000  0.4704460000000  0.5070960000000 1.0
C      1  0.5809960000000  0.4889460000000  0.5207010000000 1.0
C      1  0.5460660000000  0.4634920000000  0.5880070000000 1.0
C      1  0.5881760000000  0.5153390000000  0.5026030000000 1.0
C      1  0.4404470000000  0.4675470000000  0.5279910000000 1.0
C      1  0.5185440000000  0.5127720000000  0.6063280000000 1.0
C      1  0.5823020000000  0.5053430000000  0.4768250000000 1.0
C      1  0.5136280000000  0.4432830000000  0.4195250000000 1.0
C      1  0.5295390000000  0.4106710000000  0.5114760000000 1.0
C      1  0.4139150000000  0.4958270000000  0.4876760000000 1.0
C      1  0.5141690000000  0.5931940000000  0.5794090000000 1.0
C      1  0.4587920000000  0.5437800000000  0.5535780000000 1.0
C      1  0.5557590000000  0.5481630000000  0.4643220000000 1.0
C      1  0.5167780000000  0.5250090000000  0.4189130000000 1.0
C      1  0.4255550000000  0.5249160000000  0.4720980000000 1.0
C      1  0.5196800000000  0.4217290000000  0.5368670000000 1.0
C      1  0.5407500000000  0.4243080000000  0.4683330000000 1.0
C      1  0.5539150000000  0.4507620000000  0.5232080000000 1.0
C      1  0.4896550000000  0.4144830000000  0.4540070000000 1.0
C      1  0.5473970000000  0.5146610000000  0.5298150000000 1.0
C      1  0.4523800000000  0.5338510000000  0.4273990000000 1.0
C      1  0.4706710000000  0.5771870000000  0.4583100000000 1.0
C      1  0.5095220000000  0.5216790000000  0.4708760000000 1.0
C      1  0.5170640000000  0.4746260000000  0.5267700000000 1.0
C      1  0.5176870000000  0.4567820000000  0.5759770000000 1.0
C      1  0.5318580000000  0.5030970000000  0.4677960000000 1.0
C      1  0.5605750000000  0.5559110000000  0.4914780000000 1.0
C      1  0.5803750000000  0.5423850000000  0.5085120000000 1.0
C      1  0.4535720000000  0.5288640000000  0.5290840000000 1.0
C      1  0.4937040000000  0.5059360000000  0.5899850000000 1.0
C      1  0.4717590000000  0.4290730000000  0.5445180000000 1.0
C      1  0.4663400000000  0.4956770000000  0.4502900000000 1.0
C      1  0.4914880000000  0.5906620000000  0.5101680000000 1.0
C      1  0.5570960000000  0.4442670000000  0.5517990000000 1.0
C      1  0.5205920000000  0.4821150000000  0.5550320000000 1.0
C      1  0.4679390000000  0.4904780000000  0.4025440000000 1.0
C      1  0.5731950000000  0.5829650000000  0.5359250000000 1.0
C      1  0.4476770000000  0.4726150000000  0.5565830000000 1.0
C      1  0.4922410000000  0.5860730000000  0.5398300000000 1.0
C      1  0.4285300000000  0.5228440000000  0.4399840000000 1.0
C      1  0.4165520000000  0.4676770000000  0.4761820000000 1.0
C      1  0.5733810000000  0.4385420000000  0.5057960000000 1.0
C      1  0.5144780000000  0.4112550000000  0.4692890000000 1.0
C      1  0.4990740000000  0.5667520000000  0.5770770000000 1.0
C      1  0.5758330000000  0.4893770000000  0.5522100000000 1.0
C      1  0.3937240000000  0.5012670000000  0.5086950000000 1.0
C      1  0.4361700000000  0.4408380000000  0.5160000000000 1.0
C      1  0.4951040000000  0.4356120000000  0.5282210000000 1.0
C      1  0.4893770000000  0.4302600000000  0.4302720000000 1.0
C      1  0.5353350000000  0.5665910000000  0.5053820000000 1.0
C      1  0.4970070000000  0.4791890000000  0.5084680000000 1.0
C      1  0.4287320000000  0.5784250000000  0.4865640000000 1.0
C      1  0.5591030000000  0.5164890000000  0.4593060000000 1.0
C      1  0.4758240000000  0.4672340000000  0.4587510000000 1.0
C      1  0.5153920000000  0.5398650000000  0.4983220000000 1.0
C      1  0.5631560000000  0.5018150000000  0.4310520000000 1.0
C      1  0.5777320000000  0.4594530000000  0.4544380000000 1.0
C      1  0.5207790000000  0.5882160000000  0.4669450000000 1.0
C      1  0.4234150000000  0.5575400000000  0.5344720000000 1.0
C      1  0.5437470000000  0.4846020000000  0.4170890000000 1.0
C      1  0.5096430000000  0.5352410000000  0.4414760000000 1.0
C      1  0.5358800000000  0.5287030000000  0.5885420000000 1.0
C      1  0.4539690000000  0.4778130000000  0.5043850000000 1.0
C      1  0.4199350000000  0.5520550000000  0.4808660000000 1.0
C      1  0.5513880000000  0.5015220000000  0.5555100000000 1.0
C      1  0.4764640000000  0.4995440000000  0.5028700000000 1.0
C      1  0.4569710000000  0.4197730000000  0.5213790000000 1.0
C      1  0.4664730000000  0.4120830000000  0.4732740000000 1.0
C      1  0.4588530000000  0.5835590000000  0.4856460000000 1.0
C      1  0.5382730000000  0.5680560000000  0.4524950000000 1.0
C      1  0.5417020000000  0.5779170000000  0.5364320000000 1.0
C      1  0.5685310000000  0.4661410000000  0.5686800000000 1.0
C      1  0.4701000000000  0.5109060000000  0.4232600000000 1.0
C      1  0.4371800000000  0.4374070000000  0.4437290000000 1.0
C      1  0.4417270000000  0.5249270000000  0.5677900000000 1.0
C      1  0.4401250000000  0.4246270000000  0.4692290000000 1.0
C      1  0.4299120000000  0.5736220000000  0.5142140000000 1.0
C      1  0.5520360000000  0.4203410000000  0.4941010000000 1.0
C      1  0.4914600000000  0.4520120000000  0.5035480000000 1.0
C      1  0.5009770000000  0.5029730000000  0.5616210000000 1.0
C      1  0.5312650000000  0.4339940000000  0.5606760000000 1.0
C      1  0.4722660000000  0.4850870000000  0.5897430000000 1.0
C      1  0.4756110000000  0.4092630000000  0.5001070000000 1.0
END
