TITL C-4164240-4114-251 -1.93812860746713 125000 -8970.5639239832 0 0 62 (C1) n - 1
REM
REM in /home/nfs/bkarasulu/CARBON/AIRSS/Generating-Clusters/ReaxFF-fromJPCA2015/Units_Real/with-SteepDescent/Only-C1/SD-CG/Try1-3A/FIRE-CG
REM
REM
REM
REM
REM
REM ./C.cell (11c1c37f851c82e70ff6c80c92926a4b)
REM
REM compiler GCC version 9.2.1 20190827 (Red Hat 9.2.1-1)
REM options -cpp -mtune=generic -march=x86-64 -g -O0 -fpre-include=/usr/include/finclude/math-vector-fortran.h
REM seed 784211369 1205580394 1207163573 148983800 -891549001 -463966017 1951051366 -1622547518 -1784306905 1656703802 -1364664787 -202919908 -579045818 1639432411 625586687 -1763249705 1241556223 1689403594 1554723093 86631417 -378809535 1895045262 1237426315 2006714631 -1913681835 1726807794 963305880 33898998 -1348059637 813035540 906434441 1281860211 982156669
REM
CELL 1.54180   50.00000   50.00000   50.00000   90.00000   90.00000   90.00000
LATT -1
SFAC C  
C      1  0.4966280000000  0.5415390000000  0.4417340000000 1.0
C      1  0.4255850000000  0.5114710000000  0.4834170000000 1.0
C      1  0.4784600000000  0.5104120000000  0.4751230000000 1.0
C      1  0.4985450000000  0.5402970000000  0.5498160000000 1.0
C      1  0.4465970000000  0.5649870000000  0.5014580000000 1.0
C      1  0.5018170000000  0.4795120000000  0.5529940000000 1.0
C      1  0.5502980000000  0.4554180000000  0.5076230000000 1.0
C      1  0.5469290000000  0.4893590000000  0.5570680000000 1.0
C      1  0.5020510000000  0.4951430000000  0.4677030000000 1.0
C      1  0.4820950000000  0.4623720000000  0.5413090000000 1.0
C      1  0.4749800000000  0.5479770000000  0.5393690000000 1.0
C      1  0.4460540000000  0.4915480000000  0.5194110000000 1.0
C      1  0.5652900000000  0.5321060000000  0.5374010000000 1.0
C      1  0.5824300000000  0.5146770000000  0.5248390000000 1.0
C      1  0.4507890000000  0.5593770000000  0.4720630000000 1.0
C      1  0.5062490000000  0.5195510000000  0.5118950000000 1.0
C      1  0.5226990000000  0.5092700000000  0.4512370000000 1.0
C      1  0.5227380000000  0.5002920000000  0.5027850000000 1.0
C      1  0.4490020000000  0.4613520000000  0.4457400000000 1.0
C      1  0.5691150000000  0.4916540000000  0.5357940000000 1.0
C      1  0.4497970000000  0.5536370000000  0.5287530000000 1.0
C      1  0.5168400000000  0.4246510000000  0.5276840000000 1.0
C      1  0.4684490000000  0.5097710000000  0.5776520000000 1.0
C      1  0.5283580000000  0.4676900000000  0.5506380000000 1.0
C      1  0.5362830000000  0.4464840000000  0.5316420000000 1.0
C      1  0.5243920000000  0.5424910000000  0.4512690000000 1.0
C      1  0.5171810000000  0.4071780000000  0.5040130000000 1.0
C      1  0.4891260000000  0.4359010000000  0.5316930000000 1.0
C      1  0.4798790000000  0.4608670000000  0.4928560000000 1.0
C      1  0.4921000000000  0.4124020000000  0.4867090000000 1.0
C      1  0.5012920000000  0.5145850000000  0.4307250000000 1.0
C      1  0.5333940000000  0.4564680000000  0.4834470000000 1.0
C      1  0.5100900000000  0.4758700000000  0.4889220000000 1.0
C      1  0.5330400000000  0.5608190000000  0.4728140000000 1.0
C      1  0.4745180000000  0.4503370000000  0.4594620000000 1.0
C      1  0.5463910000000  0.5138020000000  0.4929970000000 1.0
C      1  0.5458410000000  0.4614130000000  0.4564940000000 1.0
C      1  0.4497040000000  0.5174470000000  0.5593570000000 1.0
C      1  0.4831680000000  0.4906160000000  0.4266380000000 1.0
C      1  0.4344560000000  0.5271710000000  0.5376690000000 1.0
C      1  0.4864740000000  0.5305380000000  0.4950720000000 1.0
C      1  0.4331310000000  0.5370580000000  0.4739550000000 1.0
C      1  0.4535920000000  0.4845180000000  0.4294510000000 1.0
C      1  0.5651440000000  0.5349860000000  0.5083940000000 1.0
C      1  0.4511830000000  0.4997860000000  0.4743950000000 1.0
C      1  0.5169900000000  0.5687260000000  0.4967280000000 1.0
C      1  0.4798480000000  0.5555610000000  0.4619010000000 1.0
C      1  0.4990640000000  0.5093760000000  0.5640380000000 1.0
C      1  0.4378790000000  0.4864160000000  0.4535850000000 1.0
C      1  0.5187920000000  0.5349100000000  0.5308290000000 1.0
C      1  0.5530030000000  0.5554850000000  0.5274240000000 1.0
C      1  0.4888080000000  0.4666520000000  0.4399860000000 1.0
C      1  0.4795140000000  0.4342410000000  0.5043930000000 1.0
C      1  0.5498540000000  0.4911370000000  0.4583160000000 1.0
C      1  0.5283400000000  0.5072510000000  0.5721250000000 1.0
C      1  0.5241700000000  0.5614800000000  0.5249510000000 1.0
C      1  0.4652290000000  0.4722230000000  0.5176250000000 1.0
C      1  0.4864140000000  0.4198110000000  0.4599640000000 1.0
C      1  0.4270530000000  0.5090850000000  0.5152870000000 1.0
C      1  0.4900150000000  0.5595630000000  0.4887410000000 1.0
C      1  0.5650370000000  0.4944470000000  0.4833220000000 1.0
C      1  0.5678160000000  0.4788340000000  0.5093040000000 1.0
END
