TITL C-4164234-2335-65 1.10837933322245 125000 -25426.1643875498 0 0 172 (C1) n - 1
REM
REM in /home/nfs/bkarasulu/CARBON/AIRSS/Generating-Clusters/ReaxFF-fromJPCA2015/Units_Real/with-SteepDescent/Only-C1/SD-CG/Try1-3A/FIRE-CG
REM
REM
REM
REM
REM
REM ./C.cell (11c1c37f851c82e70ff6c80c92926a4b)
REM
REM compiler GCC version 9.2.1 20190827 (Red Hat 9.2.1-1)
REM options -cpp -mtune=generic -march=x86-64 -g -O0 -fpre-include=/usr/include/finclude/math-vector-fortran.h
REM seed -555454066 -937769660 -2043231459 -669351471 -96055707 -942684310 877419397 721790182 -1715441888 1643226870 -1785739333 205562788 1997877964 -540082893 -1049580754 -1929694626 -1001415670 -514139598 -1444221150 -811697303 -963023516 -484680760 274897882 649805742 977722602 -15102165 -364866767 -2015169506 -942637581 -202482653 -1840293583 647168983 -1271424916
REM
CELL 1.54180   50.00000   50.00000   50.00000   90.00000   90.00000   90.00000
LATT -1
SFAC C  
C      1  0.4644750000000  0.5155570000000  0.5265450000000 1.0
C      1  0.5042920000000  0.5037240000000  0.5076300000000 1.0
C      1  0.4944170000000  0.4874320000000  0.5524060000000 1.0
C      1  0.4552420000000  0.4091900000000  0.5422940000000 1.0
C      1  0.5815240000000  0.5486690000000  0.4956210000000 1.0
C      1  0.5761980000000  0.4965630000000  0.4423620000000 1.0
C      1  0.4452340000000  0.5553030000000  0.5030490000000 1.0
C      1  0.4477430000000  0.5878460000000  0.5442960000000 1.0
C      1  0.6095500000000  0.4791610000000  0.4629710000000 1.0
C      1  0.4070630000000  0.5266000000000  0.4795510000000 1.0
C      1  0.5703180000000  0.4475740000000  0.4929410000000 1.0
C      1  0.4982130000000  0.5444590000000  0.5044250000000 1.0
C      1  0.4479280000000  0.4902060000000  0.5959600000000 1.0
C      1  0.5351000000000  0.6098190000000  0.5401440000000 1.0
C      1  0.4938760000000  0.5070050000000  0.5716970000000 1.0
C      1  0.4379700000000  0.5292160000000  0.4922470000000 1.0
C      1  0.4971570000000  0.4448650000000  0.5864760000000 1.0
C      1  0.5100600000000  0.4939450000000  0.4390360000000 1.0
C      1  0.4462020000000  0.4904010000000  0.5527620000000 1.0
C      1  0.5089750000000  0.4918260000000  0.6087960000000 1.0
C      1  0.4814160000000  0.4039000000000  0.5498660000000 1.0
C      1  0.4509960000000  0.5337000000000  0.5702490000000 1.0
C      1  0.3894830000000  0.5184380000000  0.5290190000000 1.0
C      1  0.3864690000000  0.5438830000000  0.4955050000000 1.0
C      1  0.5494970000000  0.5322240000000  0.5828950000000 1.0
C      1  0.5951260000000  0.4591370000000  0.4470860000000 1.0
C      1  0.5562630000000  0.3955270000000  0.5367340000000 1.0
C      1  0.4397430000000  0.5097020000000  0.5133290000000 1.0
C      1  0.4893690000000  0.5282870000000  0.6072310000000 1.0
C      1  0.5062620000000  0.6284800000000  0.4716980000000 1.0
C      1  0.5231540000000  0.3821550000000  0.4851550000000 1.0
C      1  0.5278060000000  0.5887640000000  0.4458340000000 1.0
C      1  0.5479570000000  0.4862070000000  0.5523940000000 1.0
C      1  0.5763660000000  0.4165430000000  0.5435140000000 1.0
C      1  0.3989870000000  0.4602410000000  0.4906580000000 1.0
C      1  0.5195920000000  0.4345280000000  0.4209820000000 1.0
C      1  0.5008650000000  0.5553410000000  0.5641630000000 1.0
C      1  0.5531430000000  0.4841440000000  0.5818320000000 1.0
C      1  0.5057870000000  0.6076160000000  0.4486690000000 1.0
C      1  0.5136280000000  0.5742050000000  0.4243550000000 1.0
C      1  0.5376280000000  0.5955770000000  0.4953160000000 1.0
C      1  0.5038370000000  0.4401920000000  0.5158850000000 1.0
C      1  0.4796220000000  0.4724070000000  0.4662510000000 1.0
C      1  0.5875500000000  0.5408990000000  0.5248070000000 1.0
C      1  0.4265440000000  0.5411550000000  0.4248880000000 1.0
C      1  0.4490320000000  0.4694240000000  0.4326170000000 1.0
C      1  0.5021000000000  0.3862920000000  0.4648150000000 1.0
C      1  0.4799580000000  0.5216980000000  0.4189830000000 1.0
C      1  0.5045560000000  0.5761930000000  0.5442000000000 1.0
C      1  0.5644310000000  0.5025750000000  0.5348640000000 1.0
C      1  0.5814460000000  0.4916380000000  0.5785980000000 1.0
C      1  0.4230500000000  0.5308860000000  0.5640130000000 1.0
C      1  0.4510010000000  0.4285440000000  0.5649610000000 1.0
C      1  0.5807320000000  0.4739440000000  0.4997090000000 1.0
C      1  0.4805360000000  0.5198520000000  0.5025690000000 1.0
C      1  0.5279060000000  0.5302860000000  0.3939210000000 1.0
C      1  0.5483490000000  0.5852440000000  0.4675410000000 1.0
C      1  0.5455070000000  0.5263900000000  0.4580180000000 1.0
C      1  0.4543820000000  0.6025460000000  0.4967240000000 1.0
C      1  0.4683200000000  0.4729070000000  0.5560100000000 1.0
C      1  0.5751490000000  0.5219470000000  0.5739880000000 1.0
C      1  0.4783560000000  0.4574220000000  0.4973240000000 1.0
C      1  0.5593280000000  0.4242120000000  0.4475090000000 1.0
C      1  0.4737840000000  0.3880850000000  0.4730540000000 1.0
C      1  0.5330030000000  0.5788470000000  0.5401080000000 1.0
C      1  0.4551410000000  0.4875170000000  0.4713180000000 1.0
C      1  0.4756150000000  0.4268150000000  0.4526630000000 1.0
C      1  0.5363430000000  0.5424570000000  0.4793900000000 1.0
C      1  0.4351610000000  0.4695540000000  0.4591900000000 1.0
C      1  0.5147250000000  0.3873210000000  0.5131760000000 1.0
C      1  0.4407760000000  0.6031480000000  0.5214160000000 1.0
C      1  0.4607760000000  0.5612360000000  0.5281960000000 1.0
C      1  0.5481360000000  0.5159920000000  0.5150010000000 1.0
C      1  0.6085980000000  0.4788180000000  0.4929710000000 1.0
C      1  0.4612710000000  0.5155610000000  0.4744820000000 1.0
C      1  0.3879490000000  0.5447590000000  0.5250660000000 1.0
C      1  0.5466340000000  0.4379760000000  0.5787310000000 1.0
C      1  0.5208890000000  0.4757960000000  0.5443840000000 1.0
C      1  0.5146600000000  0.4479360000000  0.5425580000000 1.0
C      1  0.5263530000000  0.4254770000000  0.4440380000000 1.0
C      1  0.3989080000000  0.5553900000000  0.4720560000000 1.0
C      1  0.4357970000000  0.5650120000000  0.4399090000000 1.0
C      1  0.4199370000000  0.5015120000000  0.5599090000000 1.0
C      1  0.4050840000000  0.5052130000000  0.4573820000000 1.0
C      1  0.4389510000000  0.4937680000000  0.4210640000000 1.0
C      1  0.5525190000000  0.4317090000000  0.5086590000000 1.0
C      1  0.5253530000000  0.4602910000000  0.4107790000000 1.0
C      1  0.5244820000000  0.5192940000000  0.4374670000000 1.0
C      1  0.5928850000000  0.4192200000000  0.5192160000000 1.0
C      1  0.4713620000000  0.4481080000000  0.5739080000000 1.0
C      1  0.4278820000000  0.4470590000000  0.5672370000000 1.0
C      1  0.4073100000000  0.4773560000000  0.4647780000000 1.0
C      1  0.5276910000000  0.3892780000000  0.5394790000000 1.0
C      1  0.5703280000000  0.5672090000000  0.4701310000000 1.0
C      1  0.5928880000000  0.5124190000000  0.5289360000000 1.0
C      1  0.5685070000000  0.5463860000000  0.4196230000000 1.0
C      1  0.5870590000000  0.4647800000000  0.5663760000000 1.0
C      1  0.4983000000000  0.4110130000000  0.5127930000000 1.0
C      1  0.4540300000000  0.4070030000000  0.4625720000000 1.0
C      1  0.5080530000000  0.4018530000000  0.5571610000000 1.0
C      1  0.5664960000000  0.4996950000000  0.4920330000000 1.0
C      1  0.5572810000000  0.4022130000000  0.5084250000000 1.0
C      1  0.5408700000000  0.5729930000000  0.5138060000000 1.0
C      1  0.4774620000000  0.5249170000000  0.4480110000000 1.0
C      1  0.4789200000000  0.5999900000000  0.4395940000000 1.0
C      1  0.6088140000000  0.5053190000000  0.5049410000000 1.0
C      1  0.4335590000000  0.4818370000000  0.5126500000000 1.0
C      1  0.5005380000000  0.4096340000000  0.4480730000000 1.0
C      1  0.4367270000000  0.4164440000000  0.4857170000000 1.0
C      1  0.5212200000000  0.5357070000000  0.5533190000000 1.0
C      1  0.4399840000000  0.5777750000000  0.4875460000000 1.0
C      1  0.5490120000000  0.6182230000000  0.5171520000000 1.0
C      1  0.4777200000000  0.4080360000000  0.4951650000000 1.0
C      1  0.4562150000000  0.5104420000000  0.4021920000000 1.0
C      1  0.4973240000000  0.4941500000000  0.4632630000000 1.0
C      1  0.4211140000000  0.5129040000000  0.4343530000000 1.0
C      1  0.5197740000000  0.5236120000000  0.5226260000000 1.0
C      1  0.4321640000000  0.4701680000000  0.5855810000000 1.0
C      1  0.5305260000000  0.4476410000000  0.5036950000000 1.0
C      1  0.4333470000000  0.4387050000000  0.5202660000000 1.0
C      1  0.4762930000000  0.4581300000000  0.4369040000000 1.0
C      1  0.5030920000000  0.5377760000000  0.4503720000000 1.0
C      1  0.5761290000000  0.5432670000000  0.5521020000000 1.0
C      1  0.5533340000000  0.4672380000000  0.4174440000000 1.0
C      1  0.4789200000000  0.6141470000000  0.5358980000000 1.0
C      1  0.4405460000000  0.4112680000000  0.5153110000000 1.0
C      1  0.5923490000000  0.5200210000000  0.4844600000000 1.0
C      1  0.5117860000000  0.4642390000000  0.6036660000000 1.0
C      1  0.5882210000000  0.4241210000000  0.4902550000000 1.0
C      1  0.5685780000000  0.5492090000000  0.4471940000000 1.0
C      1  0.5584150000000  0.5014260000000  0.4642710000000 1.0
C      1  0.4231450000000  0.5753270000000  0.5441300000000 1.0
C      1  0.5486640000000  0.5208780000000  0.4126670000000 1.0
C      1  0.4852550000000  0.5798830000000  0.4220220000000 1.0
C      1  0.5409290000000  0.4605580000000  0.5949170000000 1.0
C      1  0.5517570000000  0.5484210000000  0.5026360000000 1.0
C      1  0.5630070000000  0.4940330000000  0.4161150000000 1.0
C      1  0.3972480000000  0.4949980000000  0.5406020000000 1.0
C      1  0.4524300000000  0.5123830000000  0.3683740000000 1.0
C      1  0.5285970000000  0.4654460000000  0.4805580000000 1.0
C      1  0.4920760000000  0.5540900000000  0.5927040000000 1.0
C      1  0.5057450000000  0.6172480000000  0.5471790000000 1.0
C      1  0.5689960000000  0.4097060000000  0.4703970000000 1.0
C      1  0.4831910000000  0.5986580000000  0.5065950000000 1.0
C      1  0.5706230000000  0.4481640000000  0.4351600000000 1.0
C      1  0.5514210000000  0.3890900000000  0.4831020000000 1.0
C      1  0.4515900000000  0.4605630000000  0.5099800000000 1.0
C      1  0.5986700000000  0.5062930000000  0.4578210000000 1.0
C      1  0.5144440000000  0.4905890000000  0.4844660000000 1.0
C      1  0.4990420000000  0.5331650000000  0.3996970000000 1.0
C      1  0.5482480000000  0.5517640000000  0.5604140000000 1.0
C      1  0.5083400000000  0.6085230000000  0.4929810000000 1.0
C      1  0.5175240000000  0.5178670000000  0.6055890000000 1.0
C      1  0.4402310000000  0.5365170000000  0.3999950000000 1.0
C      1  0.4216630000000  0.5718090000000  0.4642370000000 1.0
C      1  0.5232810000000  0.5155140000000  0.5746400000000 1.0
C      1  0.4628920000000  0.5760950000000  0.4383110000000 1.0
C      1  0.4150380000000  0.4485250000000  0.5410120000000 1.0
C      1  0.5094080000000  0.5487730000000  0.4766900000000 1.0
C      1  0.4784640000000  0.4329730000000  0.4819870000000 1.0
C      1  0.5265400000000  0.4490070000000  0.4585090000000 1.0
C      1  0.5009400000000  0.4712830000000  0.4237450000000 1.0
C      1  0.4177860000000  0.4380500000000  0.4795850000000 1.0
C      1  0.5713820000000  0.4392900000000  0.5636480000000 1.0
C      1  0.4632130000000  0.5377880000000  0.5446100000000 1.0
C      1  0.4889350000000  0.5696120000000  0.5200490000000 1.0
C      1  0.5174530000000  0.4307040000000  0.5679970000000 1.0
C      1  0.4346140000000  0.5353480000000  0.3691470000000 1.0
C      1  0.5173610000000  0.5563990000000  0.4014180000000 1.0
C      1  0.4067450000000  0.4713170000000  0.5236580000000 1.0
C      1  0.4085050000000  0.5522070000000  0.5480320000000 1.0
C      1  0.4679720000000  0.5141120000000  0.5872710000000 1.0
END
