TITL C-4164235-1454-386 6.020231259731 125000 -20748.9744680116 0 0 142 (C1) n - 1
REM
REM in /home/nfs/bkarasulu/CARBON/AIRSS/Generating-Clusters/ReaxFF-fromJPCA2015/Units_Real/with-SteepDescent/Only-C1/SD-CG/Try1-3A/FIRE-CG
REM
REM
REM
REM
REM
REM ./C.cell (11c1c37f851c82e70ff6c80c92926a4b)
REM
REM compiler GCC version 9.2.1 20190827 (Red Hat 9.2.1-1)
REM options -cpp -mtune=generic -march=x86-64 -g -O0 -fpre-include=/usr/include/finclude/math-vector-fortran.h
REM seed 526043656 1470897227 -485607197 582613670 -400382275 -840179640 -807892857 1341021727 386376718 -2111182139 -2060113066 1883400287 1815093752 116663693 -1150608680 -1791414169 -620373996 19216239 1844449539 -1430138683 -1484142480 -358940344 994041 -1287799296 -2137327392 -1245125310 -774211429 8044467 1407960558 1493092083 -823112314 1979368155 97593762
REM
CELL 1.54180   50.00000   50.00000   50.00000   90.00000   90.00000   90.00000
LATT -1
SFAC C  
C      1  0.4909020000000  0.4879360000000  0.5279240000000 1.0
C      1  0.4735720000000  0.4500040000000  0.4860740000000 1.0
C      1  0.5595190000000  0.5001650000000  0.4736780000000 1.0
C      1  0.5963310000000  0.4823310000000  0.4892260000000 1.0
C      1  0.5696810000000  0.5325820000000  0.5717020000000 1.0
C      1  0.4268170000000  0.5010340000000  0.4492810000000 1.0
C      1  0.5441980000000  0.4097130000000  0.4571020000000 1.0
C      1  0.5991640000000  0.5095930000000  0.5039680000000 1.0
C      1  0.5574160000000  0.5894040000000  0.5056110000000 1.0
C      1  0.4749110000000  0.5164690000000  0.4713250000000 1.0
C      1  0.5462700000000  0.5601060000000  0.4340560000000 1.0
C      1  0.4804650000000  0.5939150000000  0.5039100000000 1.0
C      1  0.4277920000000  0.5571150000000  0.4703940000000 1.0
C      1  0.4412250000000  0.5761560000000  0.4868480000000 1.0
C      1  0.5215800000000  0.5135610000000  0.5971570000000 1.0
C      1  0.5054650000000  0.5019380000000  0.5466720000000 1.0
C      1  0.4655030000000  0.5564290000000  0.5764480000000 1.0
C      1  0.5312860000000  0.4387120000000  0.5453030000000 1.0
C      1  0.4747570000000  0.4670690000000  0.5337350000000 1.0
C      1  0.5482180000000  0.5399930000000  0.4904860000000 1.0
C      1  0.3957320000000  0.4906340000000  0.5292240000000 1.0
C      1  0.3930180000000  0.5188930000000  0.5248950000000 1.0
C      1  0.4180460000000  0.4399780000000  0.4855470000000 1.0
C      1  0.4358650000000  0.5242920000000  0.4313760000000 1.0
C      1  0.5179390000000  0.5367690000000  0.5743890000000 1.0
C      1  0.5399730000000  0.5321760000000  0.5566480000000 1.0
C      1  0.4962760000000  0.4431400000000  0.4680890000000 1.0
C      1  0.4660150000000  0.5597570000000  0.4334500000000 1.0
C      1  0.5189590000000  0.5678350000000  0.5720420000000 1.0
C      1  0.4206220000000  0.4752790000000  0.4374580000000 1.0
C      1  0.5725540000000  0.4335590000000  0.4905870000000 1.0
C      1  0.4225030000000  0.4431540000000  0.5354640000000 1.0
C      1  0.5173270000000  0.4477250000000  0.5209600000000 1.0
C      1  0.4016510000000  0.4770200000000  0.4831750000000 1.0
C      1  0.4266960000000  0.4274000000000  0.5111520000000 1.0
C      1  0.5298710000000  0.4596760000000  0.4989150000000 1.0
C      1  0.4752790000000  0.4601920000000  0.5854330000000 1.0
C      1  0.4690680000000  0.4050660000000  0.4882760000000 1.0
C      1  0.5911070000000  0.4548070000000  0.4980030000000 1.0
C      1  0.4630540000000  0.5868630000000  0.5266810000000 1.0
C      1  0.4021940000000  0.4844050000000  0.4553670000000 1.0
C      1  0.4949300000000  0.4934440000000  0.4817750000000 1.0
C      1  0.4373710000000  0.4535380000000  0.4396900000000 1.0
C      1  0.5874640000000  0.4406760000000  0.5489820000000 1.0
C      1  0.5596880000000  0.4317170000000  0.4659070000000 1.0
C      1  0.5096190000000  0.4344190000000  0.4215430000000 1.0
C      1  0.5655860000000  0.5399110000000  0.4408900000000 1.0
C      1  0.5844080000000  0.4912450000000  0.4634150000000 1.0
C      1  0.4487810000000  0.5143000000000  0.5225250000000 1.0
C      1  0.4831020000000  0.5728210000000  0.5427910000000 1.0
C      1  0.4791620000000  0.5072830000000  0.4445440000000 1.0
C      1  0.4331400000000  0.4347720000000  0.4610900000000 1.0
C      1  0.4977680000000  0.5436740000000  0.5054590000000 1.0
C      1  0.5607340000000  0.5794930000000  0.5340640000000 1.0
C      1  0.5382650000000  0.5194280000000  0.5104700000000 1.0
C      1  0.4154530000000  0.4729860000000  0.5419240000000 1.0
C      1  0.4671520000000  0.4799500000000  0.6055350000000 1.0
C      1  0.4290260000000  0.5143000000000  0.4968090000000 1.0
C      1  0.5363970000000  0.4778320000000  0.4105950000000 1.0
C      1  0.4839640000000  0.5446740000000  0.5315440000000 1.0
C      1  0.5627470000000  0.5151320000000  0.4250930000000 1.0
C      1  0.5374130000000  0.5125860000000  0.4617620000000 1.0
C      1  0.4401160000000  0.5497500000000  0.4434920000000 1.0
C      1  0.5159900000000  0.4003390000000  0.4618370000000 1.0
C      1  0.4895560000000  0.5731140000000  0.5709730000000 1.0
C      1  0.4620250000000  0.5153700000000  0.4215310000000 1.0
C      1  0.4503540000000  0.4100890000000  0.5120920000000 1.0
C      1  0.5013040000000  0.5253890000000  0.4045840000000 1.0
C      1  0.5209810000000  0.5014170000000  0.4437790000000 1.0
C      1  0.4959240000000  0.4121870000000  0.4790880000000 1.0
C      1  0.5726680000000  0.5450170000000  0.4738110000000 1.0
C      1  0.4653420000000  0.4901090000000  0.5162990000000 1.0
C      1  0.5813000000000  0.5155220000000  0.5525640000000 1.0
C      1  0.4272620000000  0.5414760000000  0.5476190000000 1.0
C      1  0.5321020000000  0.6035830000000  0.4991750000000 1.0
C      1  0.5992140000000  0.5326220000000  0.4869760000000 1.0
C      1  0.4763290000000  0.5401110000000  0.4136440000000 1.0
C      1  0.3975060000000  0.5009860000000  0.5002270000000 1.0
C      1  0.5175650000000  0.5614210000000  0.5161190000000 1.0
C      1  0.4945190000000  0.4948910000000  0.3981010000000 1.0
C      1  0.4441010000000  0.5663010000000  0.5156640000000 1.0
C      1  0.5280030000000  0.5373130000000  0.4720750000000 1.0
C      1  0.4103740000000  0.5424730000000  0.5226310000000 1.0
C      1  0.4753110000000  0.4770660000000  0.4103980000000 1.0
C      1  0.4462970000000  0.5614740000000  0.5559120000000 1.0
C      1  0.4246840000000  0.4653070000000  0.4909970000000 1.0
C      1  0.5137610000000  0.4133370000000  0.5457320000000 1.0
C      1  0.5131790000000  0.4611580000000  0.4112470000000 1.0
C      1  0.4596480000000  0.4139190000000  0.5397980000000 1.0
C      1  0.4657790000000  0.5257840000000  0.5748400000000 1.0
C      1  0.4468430000000  0.5016720000000  0.4759550000000 1.0
C      1  0.5342290000000  0.5074000000000  0.5433740000000 1.0
C      1  0.5177370000000  0.5501560000000  0.4325140000000 1.0
C      1  0.4440260000000  0.4358390000000  0.5522520000000 1.0
C      1  0.5560910000000  0.4979880000000  0.5010050000000 1.0
C      1  0.5605860000000  0.4180890000000  0.5134120000000 1.0
C      1  0.4868820000000  0.4414880000000  0.4377750000000 1.0
C      1  0.5919420000000  0.4611120000000  0.5268320000000 1.0
C      1  0.5583550000000  0.4913830000000  0.5517450000000 1.0
C      1  0.5401400000000  0.5459030000000  0.5290280000000 1.0
C      1  0.5666240000000  0.5771790000000  0.4803680000000 1.0
C      1  0.5247610000000  0.4122050000000  0.4363620000000 1.0
C      1  0.5511740000000  0.4739140000000  0.5081990000000 1.0
C      1  0.4980200000000  0.4860740000000  0.4533410000000 1.0
C      1  0.5089530000000  0.5890770000000  0.5121810000000 1.0
C      1  0.5392770000000  0.5084540000000  0.4067210000000 1.0
C      1  0.5298950000000  0.4608280000000  0.5807030000000 1.0
C      1  0.4522870000000  0.4743940000000  0.4888880000000 1.0
C      1  0.5871630000000  0.5287030000000  0.5269830000000 1.0
C      1  0.4584550000000  0.4276990000000  0.4731120000000 1.0
C      1  0.5035970000000  0.4468370000000  0.5837530000000 1.0
C      1  0.5697150000000  0.5529720000000  0.5247480000000 1.0
C      1  0.4593280000000  0.5408380000000  0.5190830000000 1.0
C      1  0.5068470000000  0.5547540000000  0.4593260000000 1.0
C      1  0.5113010000000  0.5234640000000  0.4298900000000 1.0
C      1  0.5556190000000  0.5775400000000  0.4549940000000 1.0
C      1  0.4882060000000  0.4436110000000  0.5164250000000 1.0
C      1  0.5751400000000  0.4894470000000  0.4354330000000 1.0
C      1  0.4959110000000  0.5102560000000  0.6022200000000 1.0
C      1  0.5512290000000  0.4782830000000  0.5764860000000 1.0
C      1  0.5371260000000  0.4046610000000  0.5203580000000 1.0
C      1  0.4693990000000  0.5106920000000  0.6013690000000 1.0
C      1  0.5460470000000  0.4536850000000  0.4551460000000 1.0
C      1  0.5397230000000  0.5785080000000  0.5550250000000 1.0
C      1  0.4175410000000  0.5414100000000  0.4929140000000 1.0
C      1  0.4929760000000  0.5258900000000  0.5579760000000 1.0
C      1  0.4767830000000  0.5816660000000  0.4513140000000 1.0
C      1  0.5193690000000  0.6008540000000  0.4744070000000 1.0
C      1  0.5604950000000  0.4294680000000  0.5435030000000 1.0
C      1  0.4560160000000  0.4626050000000  0.5611940000000 1.0
C      1  0.5219620000000  0.4582070000000  0.4710490000000 1.0
C      1  0.5654620000000  0.4732970000000  0.5307110000000 1.0
C      1  0.4872180000000  0.4179280000000  0.5318040000000 1.0
C      1  0.4882700000000  0.5417540000000  0.4783800000000 1.0
C      1  0.4350620000000  0.4856480000000  0.5577930000000 1.0
C      1  0.4668210000000  0.5882810000000  0.4783560000000 1.0
C      1  0.5337120000000  0.4869600000000  0.5947620000000 1.0
C      1  0.5048780000000  0.5876940000000  0.4549830000000 1.0
C      1  0.5077910000000  0.4191860000000  0.5760920000000 1.0
C      1  0.4409180000000  0.5147490000000  0.5553900000000 1.0
C      1  0.4642560000000  0.4560720000000  0.4269720000000 1.0
C      1  0.5556610000000  0.4686720000000  0.4317510000000 1.0
END
