TITL C-4164235-1454-594 -1.33832038020004 125000 -16048.0636961 0 0 106 (C1) n - 1
REM
REM in /home/nfs/bkarasulu/CARBON/AIRSS/Generating-Clusters/ReaxFF-fromJPCA2015/Units_Real/with-SteepDescent/Only-C1/SD-CG/Try1-3A/FIRE-CG
REM
REM
REM
REM
REM
REM ./C.cell (11c1c37f851c82e70ff6c80c92926a4b)
REM
REM compiler GCC version 9.2.1 20190827 (Red Hat 9.2.1-1)
REM options -cpp -mtune=generic -march=x86-64 -g -O0 -fpre-include=/usr/include/finclude/math-vector-fortran.h
REM seed -1051169592 1106471107 1550197544 -809800221 -139221437 1137336057 -490539557 -778576199 -1742998330 1461584272 56370568 -22093388 -1040948151 1792091309 65802662 -900264381 355839465 1974186270 -2027039547 -462976437 597289301 -1488001624 -419475078 1784283251 1051111106 -801502574 45311014 564534834 -365813972 1483498666 -1790794378 1515331335 -699646031
REM
CELL 1.54180   50.00000   50.00000   50.00000   90.00000   90.00000   90.00000
LATT -1
SFAC C  
C      1  0.4829230000000  0.5766860000000  0.4521670000000 1.0
C      1  0.4471680000000  0.5632200000000  0.4900120000000 1.0
C      1  0.5697580000000  0.4425560000000  0.5113350000000 1.0
C      1  0.5200840000000  0.4661510000000  0.4928530000000 1.0
C      1  0.5181740000000  0.4162170000000  0.4628030000000 1.0
C      1  0.5547070000000  0.5367590000000  0.5808980000000 1.0
C      1  0.4799190000000  0.4348970000000  0.5562530000000 1.0
C      1  0.5805310000000  0.5058450000000  0.5207140000000 1.0
C      1  0.4102870000000  0.4794100000000  0.5241570000000 1.0
C      1  0.4456920000000  0.5010640000000  0.5102730000000 1.0
C      1  0.5716330000000  0.5483860000000  0.5380330000000 1.0
C      1  0.4991720000000  0.5396710000000  0.4309090000000 1.0
C      1  0.5515560000000  0.5484810000000  0.4419000000000 1.0
C      1  0.4042830000000  0.4995990000000  0.5026290000000 1.0
C      1  0.5117870000000  0.5192560000000  0.4721190000000 1.0
C      1  0.5715530000000  0.5149990000000  0.4618370000000 1.0
C      1  0.5483230000000  0.5651440000000  0.5451580000000 1.0
C      1  0.4003370000000  0.4404280000000  0.4908280000000 1.0
C      1  0.5371050000000  0.4561910000000  0.4712370000000 1.0
C      1  0.4311380000000  0.5226770000000  0.5249410000000 1.0
C      1  0.5110320000000  0.5742240000000  0.4644210000000 1.0
C      1  0.4538490000000  0.4340930000000  0.5088430000000 1.0
C      1  0.4839160000000  0.5884510000000  0.5405520000000 1.0
C      1  0.4707430000000  0.5000710000000  0.5241350000000 1.0
C      1  0.4508070000000  0.4570370000000  0.4411470000000 1.0
C      1  0.5325230000000  0.5132960000000  0.4954810000000 1.0
C      1  0.4063500000000  0.4512810000000  0.5173640000000 1.0
C      1  0.5411210000000  0.4138760000000  0.4813200000000 1.0
C      1  0.4598960000000  0.5527150000000  0.5139090000000 1.0
C      1  0.5079110000000  0.4978300000000  0.4517770000000 1.0
C      1  0.4048540000000  0.4887990000000  0.4748410000000 1.0
C      1  0.5779310000000  0.5364290000000  0.5634090000000 1.0
C      1  0.4706610000000  0.5785330000000  0.4783950000000 1.0
C      1  0.5815270000000  0.4871050000000  0.4591640000000 1.0
C      1  0.4586480000000  0.5209690000000  0.4182030000000 1.0
C      1  0.5442180000000  0.5706500000000  0.4571000000000 1.0
C      1  0.5415660000000  0.5616400000000  0.5033300000000 1.0
C      1  0.4459150000000  0.4607960000000  0.5545710000000 1.0
C      1  0.4563580000000  0.4936160000000  0.4139240000000 1.0
C      1  0.5368390000000  0.5036300000000  0.4230710000000 1.0
C      1  0.4272230000000  0.5426740000000  0.4803880000000 1.0
C      1  0.4677710000000  0.4572860000000  0.5734560000000 1.0
C      1  0.5566850000000  0.5217490000000  0.4362310000000 1.0
C      1  0.4711570000000  0.5028000000000  0.5800200000000 1.0
C      1  0.5338280000000  0.5807690000000  0.5239050000000 1.0
C      1  0.5057160000000  0.5871800000000  0.5186070000000 1.0
C      1  0.4938990000000  0.4627120000000  0.4147420000000 1.0
C      1  0.5786200000000  0.5314720000000  0.5127590000000 1.0
C      1  0.3951590000000  0.4613090000000  0.4697920000000 1.0
C      1  0.5308160000000  0.4885700000000  0.5094170000000 1.0
C      1  0.5213580000000  0.4563160000000  0.4236840000000 1.0
C      1  0.5338800000000  0.5509840000000  0.5669310000000 1.0
C      1  0.5058590000000  0.5092220000000  0.4243970000000 1.0
C      1  0.4561930000000  0.4387090000000  0.5374680000000 1.0
C      1  0.4938190000000  0.4590160000000  0.5020050000000 1.0
C      1  0.4295510000000  0.4988720000000  0.4569200000000 1.0
C      1  0.4776320000000  0.4373140000000  0.4894570000000 1.0
C      1  0.5543610000000  0.5095180000000  0.5940620000000 1.0
C      1  0.5314510000000  0.5353000000000  0.5137430000000 1.0
C      1  0.5559270000000  0.4665440000000  0.5549840000000 1.0
C      1  0.4316210000000  0.5304840000000  0.4552880000000 1.0
C      1  0.5315920000000  0.4937120000000  0.5951090000000 1.0
C      1  0.4401620000000  0.4813360000000  0.4354040000000 1.0
C      1  0.5701860000000  0.4907760000000  0.5768740000000 1.0
C      1  0.4627030000000  0.5769710000000  0.5255550000000 1.0
C      1  0.4725000000000  0.4987810000000  0.4773100000000 1.0
C      1  0.5824690000000  0.4664210000000  0.5153860000000 1.0
C      1  0.5598110000000  0.4385110000000  0.4814090000000 1.0
C      1  0.5151670000000  0.4854540000000  0.5344370000000 1.0
C      1  0.5075950000000  0.5340620000000  0.5309610000000 1.0
C      1  0.5134160000000  0.4768040000000  0.5851080000000 1.0
C      1  0.4824570000000  0.4789560000000  0.5870480000000 1.0
C      1  0.5117570000000  0.5460050000000  0.4554810000000 1.0
C      1  0.4856430000000  0.4899510000000  0.4105810000000 1.0
C      1  0.4561210000000  0.5217380000000  0.5703800000000 1.0
C      1  0.4964500000000  0.5829650000000  0.4915170000000 1.0
C      1  0.5793590000000  0.4828310000000  0.5369570000000 1.0
C      1  0.4252660000000  0.4319420000000  0.5050100000000 1.0
C      1  0.4739420000000  0.4472540000000  0.4296860000000 1.0
C      1  0.4999910000000  0.4161330000000  0.4865140000000 1.0
C      1  0.4477580000000  0.5414960000000  0.4331870000000 1.0
C      1  0.4133730000000  0.5272790000000  0.5024820000000 1.0
C      1  0.5231330000000  0.4132630000000  0.5043020000000 1.0
C      1  0.5078880000000  0.5382220000000  0.5591330000000 1.0
C      1  0.5606040000000  0.5615060000000  0.4802250000000 1.0
C      1  0.4820660000000  0.5278910000000  0.5149480000000 1.0
C      1  0.4739720000000  0.4553950000000  0.4578850000000 1.0
C      1  0.5774530000000  0.4581200000000  0.4610420000000 1.0
C      1  0.5916540000000  0.5090260000000  0.5694200000000 1.0
C      1  0.4863680000000  0.4820250000000  0.4608510000000 1.0
C      1  0.4454620000000  0.4936120000000  0.4824430000000 1.0
C      1  0.5286330000000  0.4269900000000  0.5319190000000 1.0
C      1  0.4883100000000  0.4773240000000  0.5247910000000 1.0
C      1  0.5435030000000  0.4758550000000  0.4230610000000 1.0
C      1  0.5699960000000  0.4709050000000  0.4366360000000 1.0
C      1  0.4870070000000  0.5196050000000  0.4871290000000 1.0
C      1  0.4755670000000  0.5559990000000  0.4324810000000 1.0
C      1  0.4796280000000  0.5693250000000  0.5615510000000 1.0
C      1  0.5537210000000  0.4433670000000  0.5359580000000 1.0
C      1  0.5051300000000  0.4311590000000  0.5451580000000 1.0
C      1  0.5244350000000  0.4417740000000  0.4488620000000 1.0
C      1  0.5273750000000  0.4739880000000  0.5581710000000 1.0
C      1  0.4277830000000  0.4838390000000  0.5471800000000 1.0
C      1  0.4797940000000  0.5428780000000  0.5712970000000 1.0
C      1  0.5735110000000  0.5352410000000  0.4828170000000 1.0
C      1  0.4339720000000  0.5118330000000  0.5520770000000 1.0
END
