TITL C-4164246-3563-164 -8.77027421185636 125000 -29465.7743804003 0 0 195 (C1) n - 1
REM
REM in /home/nfs/bkarasulu/CARBON/AIRSS/Generating-Clusters/ReaxFF-fromJPCA2015/Units_Real/with-SteepDescent/Only-C1/SD-CG/Try1-3A/FIRE-CG
REM
REM
REM
REM
REM
REM ./C.cell (11c1c37f851c82e70ff6c80c92926a4b)
REM
REM compiler GCC version 9.2.1 20190827 (Red Hat 9.2.1-1)
REM options -cpp -mtune=generic -march=x86-64 -g -O0 -fpre-include=/usr/include/finclude/math-vector-fortran.h
REM seed -1835202564 -1025342924 -2273515 -406208545 1546598970 -805177288 418222668 -1612785306 -1214890896 2053251305 -1029520777 202082547 542619253 -203448303 -6610503 -325519992 -969773945 -505909276 1200367781 1293425526 -414463157 1024042388 -2045993697 -573073496 1682275209 -658212520 -609869106 -1594695629 -1084379945 -1050889736 -1306178900 1639608839 -536305202
REM
CELL 1.54180   50.00000   50.00000   50.00000   90.00000   90.00000   90.00000
LATT -1
SFAC C  
C      1  0.4582740000000  0.4416610000000  0.6009760000000 1.0
C      1  0.3919030000000  0.4230760000000  0.5097400000000 1.0
C      1  0.5572470000000  0.5856000000000  0.5568570000000 1.0
C      1  0.5823350000000  0.4396490000000  0.4404870000000 1.0
C      1  0.4504610000000  0.4163400000000  0.4663690000000 1.0
C      1  0.6072150000000  0.5271100000000  0.4875420000000 1.0
C      1  0.5203240000000  0.4877650000000  0.4382680000000 1.0
C      1  0.4987050000000  0.5568110000000  0.5066240000000 1.0
C      1  0.4472900000000  0.4613480000000  0.4948390000000 1.0
C      1  0.4148110000000  0.4919900000000  0.4559950000000 1.0
C      1  0.5765750000000  0.5478510000000  0.4016390000000 1.0
C      1  0.4737230000000  0.5105930000000  0.4524790000000 1.0
C      1  0.5731590000000  0.4285800000000  0.5598250000000 1.0
C      1  0.5221390000000  0.5792470000000  0.4311420000000 1.0
C      1  0.4100490000000  0.5284070000000  0.5624590000000 1.0
C      1  0.4309100000000  0.4102280000000  0.5188400000000 1.0
C      1  0.5900390000000  0.5089830000000  0.5613120000000 1.0
C      1  0.4856150000000  0.4092980000000  0.4326990000000 1.0
C      1  0.5590690000000  0.4165180000000  0.5364090000000 1.0
C      1  0.4436470000000  0.5365780000000  0.5340790000000 1.0
C      1  0.4674210000000  0.5270970000000  0.5517610000000 1.0
C      1  0.4907560000000  0.5077280000000  0.5106160000000 1.0
C      1  0.4300060000000  0.5733700000000  0.4781600000000 1.0
C      1  0.5029550000000  0.5021700000000  0.6270290000000 1.0
C      1  0.5207130000000  0.4809060000000  0.5531480000000 1.0
C      1  0.4549390000000  0.5688250000000  0.4221460000000 1.0
C      1  0.4466920000000  0.4873800000000  0.4855650000000 1.0
C      1  0.4692400000000  0.5825380000000  0.5737000000000 1.0
C      1  0.4389620000000  0.5362250000000  0.4019270000000 1.0
C      1  0.5547500000000  0.4971970000000  0.5286950000000 1.0
C      1  0.5411250000000  0.4656540000000  0.3984880000000 1.0
C      1  0.4566510000000  0.3975880000000  0.5120050000000 1.0
C      1  0.4542780000000  0.4460600000000  0.4717410000000 1.0
C      1  0.5216130000000  0.5699100000000  0.4961380000000 1.0
C      1  0.4945920000000  0.4633660000000  0.4744560000000 1.0
C      1  0.5086580000000  0.4636310000000  0.6003310000000 1.0
C      1  0.5100200000000  0.5538000000000  0.6020850000000 1.0
C      1  0.4871230000000  0.5320980000000  0.4963740000000 1.0
C      1  0.4388750000000  0.5867270000000  0.5412100000000 1.0
C      1  0.5353740000000  0.5894280000000  0.5124620000000 1.0
C      1  0.5313020000000  0.5946410000000  0.5516720000000 1.0
C      1  0.4671390000000  0.5454130000000  0.6017960000000 1.0
C      1  0.4721650000000  0.5597760000000  0.4619560000000 1.0
C      1  0.4281880000000  0.5137610000000  0.5249850000000 1.0
C      1  0.6132800000000  0.4552980000000  0.4737430000000 1.0
C      1  0.5260750000000  0.4410050000000  0.5949510000000 1.0
C      1  0.5500020000000  0.4832560000000  0.6064900000000 1.0
C      1  0.5519680000000  0.5538960000000  0.4546770000000 1.0
C      1  0.5163940000000  0.5464520000000  0.5486490000000 1.0
C      1  0.4865860000000  0.5452100000000  0.3814370000000 1.0
C      1  0.4807010000000  0.4618150000000  0.5706110000000 1.0
C      1  0.5426120000000  0.4864390000000  0.4173010000000 1.0
C      1  0.4998670000000  0.5921170000000  0.4432050000000 1.0
C      1  0.5585080000000  0.5755150000000  0.5850220000000 1.0
C      1  0.5486310000000  0.4456010000000  0.4822390000000 1.0
C      1  0.4053570000000  0.4428690000000  0.4646380000000 1.0
C      1  0.4294090000000  0.4365290000000  0.5356930000000 1.0
C      1  0.5619900000000  0.5822190000000  0.5162420000000 1.0
C      1  0.5260850000000  0.3968580000000  0.5019750000000 1.0
C      1  0.4489920000000  0.5513410000000  0.4739830000000 1.0
C      1  0.4923370000000  0.5066150000000  0.4306330000000 1.0
C      1  0.4758970000000  0.4946000000000  0.3843360000000 1.0
C      1  0.5428810000000  0.5415920000000  0.5400100000000 1.0
C      1  0.4282080000000  0.4822800000000  0.4111040000000 1.0
C      1  0.5385100000000  0.5608040000000  0.6010610000000 1.0
C      1  0.4199750000000  0.4189030000000  0.4711100000000 1.0
C      1  0.4577840000000  0.4153840000000  0.4361410000000 1.0
C      1  0.5287740000000  0.4185860000000  0.4157770000000 1.0
C      1  0.5468200000000  0.5221770000000  0.5205010000000 1.0
C      1  0.5653150000000  0.5616280000000  0.5371510000000 1.0
C      1  0.4297430000000  0.5531920000000  0.4239530000000 1.0
C      1  0.5065780000000  0.4857420000000  0.5019170000000 1.0
C      1  0.5497380000000  0.5302580000000  0.4938530000000 1.0
C      1  0.4315110000000  0.5615860000000  0.5266800000000 1.0
C      1  0.5979950000000  0.5216240000000  0.5351480000000 1.0
C      1  0.4113700000000  0.4068610000000  0.4966440000000 1.0
C      1  0.5005940000000  0.4234010000000  0.4112420000000 1.0
C      1  0.5939490000000  0.5552920000000  0.4975040000000 1.0
C      1  0.5933180000000  0.4340710000000  0.4648130000000 1.0
C      1  0.5052990000000  0.5235980000000  0.6057180000000 1.0
C      1  0.5012060000000  0.5118110000000  0.5812510000000 1.0
C      1  0.5698310000000  0.5221930000000  0.4760880000000 1.0
C      1  0.4034320000000  0.4541360000000  0.5368310000000 1.0
C      1  0.5487100000000  0.5808870000000  0.4436160000000 1.0
C      1  0.5150490000000  0.4105590000000  0.5520010000000 1.0
C      1  0.5026170000000  0.5335380000000  0.4333350000000 1.0
C      1  0.5647750000000  0.5485840000000  0.5934330000000 1.0
C      1  0.5543410000000  0.5007420000000  0.5822530000000 1.0
C      1  0.5051080000000  0.5912530000000  0.5422280000000 1.0
C      1  0.5862500000000  0.5217040000000  0.4147610000000 1.0
C      1  0.5689020000000  0.4441330000000  0.4190110000000 1.0
C      1  0.5856470000000  0.4821610000000  0.4987300000000 1.0
C      1  0.5919830000000  0.5485770000000  0.5251350000000 1.0
C      1  0.4417630000000  0.5103690000000  0.4997100000000 1.0
C      1  0.4970920000000  0.5294970000000  0.5588950000000 1.0
C      1  0.6104330000000  0.4822600000000  0.4600210000000 1.0
C      1  0.4704870000000  0.4108120000000  0.5337890000000 1.0
C      1  0.5704630000000  0.4258680000000  0.4828830000000 1.0
C      1  0.3842400000000  0.4495870000000  0.5136120000000 1.0
C      1  0.5085650000000  0.6088120000000  0.4646660000000 1.0
C      1  0.4340260000000  0.4507880000000  0.5878090000000 1.0
C      1  0.4374200000000  0.4319430000000  0.5646260000000 1.0
C      1  0.4241820000000  0.4563430000000  0.4193710000000 1.0
C      1  0.4711030000000  0.5002490000000  0.4072030000000 1.0
C      1  0.4944320000000  0.4518490000000  0.4058660000000 1.0
C      1  0.6007900000000  0.5093230000000  0.5092940000000 1.0
C      1  0.6116860000000  0.5119410000000  0.4618880000000 1.0
C      1  0.5525650000000  0.4029170000000  0.4912100000000 1.0
C      1  0.4409650000000  0.5051080000000  0.4008900000000 1.0
C      1  0.6068670000000  0.4594400000000  0.5015320000000 1.0
C      1  0.4494180000000  0.4378410000000  0.4197590000000 1.0
C      1  0.4972540000000  0.4418700000000  0.4940470000000 1.0
C      1  0.5037200000000  0.4351660000000  0.5412460000000 1.0
C      1  0.4712720000000  0.4563630000000  0.4230270000000 1.0
C      1  0.5828220000000  0.4822140000000  0.4680310000000 1.0
C      1  0.5138380000000  0.4615430000000  0.4525230000000 1.0
C      1  0.4107070000000  0.4645700000000  0.4441990000000 1.0
C      1  0.5485780000000  0.5371380000000  0.4048200000000 1.0
C      1  0.5252550000000  0.4394240000000  0.4995120000000 1.0
C      1  0.5340830000000  0.4019520000000  0.5300620000000 1.0
C      1  0.4587080000000  0.4795530000000  0.5372560000000 1.0
C      1  0.4578360000000  0.4780040000000  0.5662080000000 1.0
C      1  0.5054760000000  0.5241720000000  0.3759690000000 1.0
C      1  0.5328640000000  0.4878470000000  0.4895580000000 1.0
C      1  0.4527920000000  0.5312630000000  0.5797790000000 1.0
C      1  0.5517780000000  0.4562450000000  0.5936940000000 1.0
C      1  0.5293510000000  0.4150120000000  0.4447090000000 1.0
C      1  0.6061560000000  0.4428390000000  0.5259950000000 1.0
C      1  0.5132700000000  0.4706810000000  0.3925020000000 1.0
C      1  0.5371190000000  0.6109760000000  0.4746900000000 1.0
C      1  0.4133850000000  0.4972540000000  0.5687820000000 1.0
C      1  0.5878310000000  0.4207400000000  0.5358640000000 1.0
C      1  0.5136910000000  0.4733500000000  0.5269820000000 1.0
C      1  0.5720610000000  0.4547800000000  0.5734070000000 1.0
C      1  0.4713440000000  0.3998140000000  0.4866930000000 1.0
C      1  0.4424210000000  0.5739850000000  0.5676650000000 1.0
C      1  0.4344080000000  0.4807510000000  0.5834390000000 1.0
C      1  0.4895850000000  0.4753170000000  0.6198570000000 1.0
C      1  0.5129640000000  0.5482260000000  0.3884930000000 1.0
C      1  0.3968810000000  0.5107480000000  0.5259780000000 1.0
C      1  0.4034510000000  0.5578970000000  0.5186980000000 1.0
C      1  0.4060130000000  0.5447000000000  0.4406560000000 1.0
C      1  0.5583090000000  0.5102940000000  0.4112270000000 1.0
C      1  0.5632750000000  0.5008650000000  0.4596150000000 1.0
C      1  0.5557850000000  0.4794000000000  0.5056510000000 1.0
C      1  0.3950330000000  0.5376400000000  0.5387570000000 1.0
C      1  0.5031810000000  0.4945630000000  0.3775830000000 1.0
C      1  0.4586150000000  0.5327010000000  0.4931340000000 1.0
C      1  0.4636670000000  0.5518590000000  0.3991790000000 1.0
C      1  0.5457780000000  0.4907810000000  0.5559760000000 1.0
C      1  0.5475690000000  0.4381760000000  0.4032450000000 1.0
C      1  0.3891940000000  0.4568450000000  0.4848100000000 1.0
C      1  0.4735150000000  0.5028570000000  0.5327040000000 1.0
C      1  0.4645790000000  0.6043940000000  0.4976580000000 1.0
C      1  0.5735560000000  0.5226670000000  0.5811720000000 1.0
C      1  0.5750670000000  0.5770190000000  0.4910320000000 1.0
C      1  0.4674590000000  0.4649700000000  0.4536170000000 1.0
C      1  0.4808660000000  0.4329390000000  0.5787700000000 1.0
C      1  0.5589600000000  0.5920070000000  0.4689660000000 1.0
C      1  0.4603050000000  0.6011320000000  0.5274350000000 1.0
C      1  0.4065360000000  0.4766550000000  0.5524830000000 1.0
C      1  0.3920800000000  0.4996830000000  0.5014310000000 1.0
C      1  0.4617380000000  0.4171160000000  0.5609520000000 1.0
C      1  0.4995380000000  0.5625100000000  0.5347890000000 1.0
C      1  0.4014720000000  0.5183810000000  0.4519100000000 1.0
C      1  0.5369180000000  0.5509700000000  0.4799100000000 1.0
C      1  0.4635680000000  0.4673430000000  0.6105880000000 1.0
C      1  0.5354430000000  0.4965090000000  0.4630400000000 1.0
C      1  0.4521110000000  0.5918880000000  0.4744200000000 1.0
C      1  0.4695370000000  0.5822430000000  0.4456140000000 1.0
C      1  0.5112220000000  0.4214280000000  0.5789380000000 1.0
C      1  0.5774200000000  0.5410490000000  0.4573310000000 1.0
C      1  0.4777630000000  0.5998620000000  0.5509360000000 1.0
C      1  0.4050180000000  0.5614880000000  0.4894870000000 1.0
C      1  0.4524400000000  0.4911650000000  0.4587420000000 1.0
C      1  0.4863050000000  0.5367290000000  0.4569910000000 1.0
C      1  0.5901860000000  0.4784800000000  0.5631950000000 1.0
C      1  0.5028640000000  0.4795840000000  0.5765290000000 1.0
C      1  0.4883280000000  0.6191580000000  0.4860190000000 1.0
C      1  0.5284970000000  0.4928850000000  0.6223330000000 1.0
C      1  0.4291750000000  0.5470810000000  0.5743860000000 1.0
C      1  0.5977150000000  0.5278580000000  0.4415070000000 1.0
C      1  0.4538550000000  0.4553910000000  0.5220400000000 1.0
C      1  0.5197270000000  0.5514380000000  0.4169860000000 1.0
C      1  0.5353530000000  0.6174700000000  0.5034910000000 1.0
C      1  0.5252300000000  0.4480370000000  0.5270700000000 1.0
C      1  0.3922420000000  0.4856700000000  0.4780190000000 1.0
C      1  0.3958160000000  0.5438920000000  0.4680210000000 1.0
C      1  0.5349390000000  0.4419270000000  0.4560780000000 1.0
C      1  0.4813540000000  0.4366620000000  0.5198980000000 1.0
C      1  0.5097300000000  0.6284670000000  0.5008230000000 1.0
C      1  0.6005350000000  0.4640560000000  0.5429830000000 1.0
C      1  0.4993560000000  0.3975870000000  0.4831240000000 1.0
C      1  0.5046040000000  0.4024470000000  0.4548200000000 1.0
C      1  0.4853300000000  0.5686260000000  0.5953720000000 1.0
END
