TITL C-4164236-1577-22 33.1677724423122 125000 -21212.9601145412 0 0 143 (C1) n - 1
REM
REM in /home/nfs/bkarasulu/CARBON/AIRSS/Generating-Clusters/ReaxFF-fromJPCA2015/Units_Real/with-SteepDescent/Only-C1/SD-CG/Try1-3A/FIRE-CG
REM
REM
REM
REM
REM
REM ./C.cell (11c1c37f851c82e70ff6c80c92926a4b)
REM
REM compiler GCC version 9.2.1 20190827 (Red Hat 9.2.1-1)
REM options -cpp -mtune=generic -march=x86-64 -g -O0 -fpre-include=/usr/include/finclude/math-vector-fortran.h
REM seed -1715158874 -77325318 327124543 2101770507 671937531 -1437192159 1174088610 295525484 -1113671844 2027496488 -1700136975 611935676 -1904029050 1468228846 -205632748 1594316314 1545735093 1638987988 -146725524 -235399695 -127369741 132423221 -1355037745 -365537209 -1865318181 350412894 -1513872028 92976580 1082851753 -561972126 1030040200 849575745 67382531
REM
CELL 1.54180   50.00000   50.00000   50.00000   90.00000   90.00000   90.00000
LATT -1
SFAC C  
C      1  0.4711930000000  0.5849130000000  0.5506160000000 1.0
C      1  0.4795170000000  0.5237380000000  0.5061620000000 1.0
C      1  0.5125150000000  0.3935160000000  0.4983550000000 1.0
C      1  0.5210980000000  0.4819220000000  0.4124920000000 1.0
C      1  0.4797150000000  0.4290490000000  0.5149060000000 1.0
C      1  0.5653370000000  0.5196960000000  0.5641360000000 1.0
C      1  0.4479420000000  0.5382110000000  0.4761430000000 1.0
C      1  0.4846760000000  0.5705250000000  0.5732660000000 1.0
C      1  0.5102770000000  0.4707930000000  0.4614670000000 1.0
C      1  0.4137060000000  0.5016650000000  0.5456880000000 1.0
C      1  0.5308440000000  0.4739550000000  0.4406560000000 1.0
C      1  0.4720130000000  0.4833830000000  0.5372120000000 1.0
C      1  0.5883000000000  0.5522350000000  0.5335180000000 1.0
C      1  0.4250070000000  0.5313200000000  0.5697150000000 1.0
C      1  0.4752910000000  0.5757130000000  0.5086080000000 1.0
C      1  0.4552990000000  0.5809530000000  0.4875590000000 1.0
C      1  0.5412500000000  0.5563440000000  0.4385680000000 1.0
C      1  0.4521720000000  0.4468240000000  0.5804290000000 1.0
C      1  0.5084480000000  0.4097280000000  0.5455580000000 1.0
C      1  0.5386910000000  0.5599300000000  0.5678950000000 1.0
C      1  0.4991630000000  0.4502380000000  0.5163600000000 1.0
C      1  0.4983870000000  0.5861710000000  0.4604340000000 1.0
C      1  0.6021210000000  0.5192810000000  0.5011660000000 1.0
C      1  0.4988930000000  0.5395870000000  0.4556850000000 1.0
C      1  0.5605940000000  0.4584870000000  0.5615140000000 1.0
C      1  0.5454170000000  0.5576370000000  0.5110710000000 1.0
C      1  0.5037300000000  0.4800400000000  0.5097710000000 1.0
C      1  0.5872700000000  0.4891930000000  0.4566030000000 1.0
C      1  0.4916710000000  0.4246260000000  0.5642470000000 1.0
C      1  0.5214740000000  0.5644680000000  0.4941770000000 1.0
C      1  0.4322550000000  0.4176640000000  0.4940960000000 1.0
C      1  0.5800790000000  0.5073370000000  0.4342140000000 1.0
C      1  0.5082990000000  0.5406460000000  0.4838890000000 1.0
C      1  0.4867050000000  0.4208600000000  0.4319110000000 1.0
C      1  0.4309780000000  0.5309360000000  0.5219680000000 1.0
C      1  0.5528570000000  0.4155230000000  0.5179350000000 1.0
C      1  0.5965520000000  0.4698690000000  0.5069310000000 1.0
C      1  0.5450160000000  0.5947110000000  0.4741940000000 1.0
C      1  0.4699210000000  0.5859660000000  0.4615300000000 1.0
C      1  0.4666380000000  0.5687300000000  0.4378300000000 1.0
C      1  0.5334790000000  0.4238270000000  0.5383960000000 1.0
C      1  0.4797980000000  0.4600490000000  0.4131710000000 1.0
C      1  0.4509150000000  0.5198120000000  0.4991540000000 1.0
C      1  0.5975600000000  0.5118130000000  0.4724270000000 1.0
C      1  0.5386120000000  0.5341690000000  0.4206680000000 1.0
C      1  0.4120580000000  0.5181300000000  0.4727750000000 1.0
C      1  0.4697360000000  0.5464740000000  0.5809690000000 1.0
C      1  0.5324190000000  0.5437130000000  0.5380080000000 1.0
C      1  0.5117380000000  0.6020080000000  0.5176700000000 1.0
C      1  0.4841930000000  0.3974650000000  0.4502560000000 1.0
C      1  0.5973300000000  0.5060060000000  0.5268820000000 1.0
C      1  0.4690150000000  0.4940750000000  0.4534480000000 1.0
C      1  0.4288400000000  0.5065450000000  0.4523550000000 1.0
C      1  0.5093850000000  0.5444810000000  0.5952560000000 1.0
C      1  0.5541380000000  0.4513510000000  0.4444330000000 1.0
C      1  0.5426350000000  0.4625370000000  0.5792220000000 1.0
C      1  0.5094530000000  0.5654330000000  0.4419260000000 1.0
C      1  0.5037020000000  0.5409250000000  0.5372210000000 1.0
C      1  0.4021430000000  0.4672740000000  0.4981840000000 1.0
C      1  0.4872870000000  0.5020980000000  0.4724620000000 1.0
C      1  0.4202150000000  0.5460680000000  0.4766430000000 1.0
C      1  0.4638030000000  0.4307130000000  0.5591080000000 1.0
C      1  0.4951300000000  0.4039360000000  0.5198350000000 1.0
C      1  0.4483340000000  0.4731980000000  0.5231920000000 1.0
C      1  0.5880970000000  0.5260230000000  0.5466350000000 1.0
C      1  0.5742030000000  0.4360000000000  0.5166120000000 1.0
C      1  0.4066970000000  0.5134430000000  0.5210650000000 1.0
C      1  0.5149530000000  0.5192390000000  0.4364110000000 1.0
C      1  0.5170920000000  0.5932170000000  0.4853270000000 1.0
C      1  0.5011300000000  0.5057240000000  0.4143120000000 1.0
C      1  0.4846630000000  0.5968230000000  0.5271820000000 1.0
C      1  0.5246480000000  0.5210020000000  0.5968350000000 1.0
C      1  0.4578660000000  0.4511700000000  0.4579670000000 1.0
C      1  0.4797030000000  0.5192200000000  0.5741640000000 1.0
C      1  0.4063050000000  0.4508270000000  0.4742400000000 1.0
C      1  0.4961680000000  0.4051970000000  0.4769770000000 1.0
C      1  0.4364910000000  0.5171340000000  0.5486010000000 1.0
C      1  0.4561620000000  0.5205900000000  0.4091570000000 1.0
C      1  0.5085680000000  0.4556970000000  0.4114940000000 1.0
C      1  0.4439860000000  0.5247110000000  0.4350320000000 1.0
C      1  0.4244720000000  0.4746480000000  0.5427250000000 1.0
C      1  0.5406930000000  0.4017970000000  0.4945170000000 1.0
C      1  0.5628010000000  0.5802060000000  0.4626170000000 1.0
C      1  0.4872910000000  0.4678280000000  0.5552200000000 1.0
C      1  0.4401730000000  0.4698040000000  0.4111930000000 1.0
C      1  0.4102890000000  0.4550580000000  0.5225590000000 1.0
C      1  0.4295670000000  0.5691270000000  0.4955250000000 1.0
C      1  0.5641290000000  0.5515310000000  0.4588670000000 1.0
C      1  0.5316410000000  0.5940100000000  0.5342230000000 1.0
C      1  0.4423570000000  0.4891360000000  0.4972680000000 1.0
C      1  0.5487670000000  0.5141640000000  0.4945260000000 1.0
C      1  0.5364990000000  0.5014340000000  0.4441740000000 1.0
C      1  0.5730490000000  0.4618240000000  0.4659040000000 1.0
C      1  0.5335380000000  0.4425060000000  0.4847270000000 1.0
C      1  0.5531760000000  0.4873250000000  0.5066790000000 1.0
C      1  0.4647880000000  0.4418170000000  0.4303100000000 1.0
C      1  0.5085270000000  0.4947870000000  0.5975540000000 1.0
C      1  0.4328370000000  0.4359390000000  0.4706470000000 1.0
C      1  0.4867630000000  0.5584750000000  0.4194040000000 1.0
C      1  0.5285930000000  0.4797620000000  0.5274680000000 1.0
C      1  0.4570070000000  0.4759710000000  0.5904630000000 1.0
C      1  0.4876790000000  0.4528650000000  0.4668100000000 1.0
C      1  0.4867770000000  0.5001850000000  0.5194590000000 1.0
C      1  0.5529130000000  0.5081860000000  0.4208570000000 1.0
C      1  0.5128690000000  0.5686700000000  0.5821020000000 1.0
C      1  0.5819930000000  0.4818540000000  0.5239300000000 1.0
C      1  0.5005180000000  0.5177620000000  0.5538530000000 1.0
C      1  0.5019160000000  0.4529380000000  0.5724600000000 1.0
C      1  0.4217910000000  0.4639880000000  0.4281260000000 1.0
C      1  0.4101340000000  0.4970910000000  0.4963520000000 1.0
C      1  0.5777250000000  0.4552970000000  0.5403390000000 1.0
C      1  0.4775440000000  0.4883180000000  0.4219630000000 1.0
C      1  0.5616650000000  0.5401830000000  0.4927280000000 1.0
C      1  0.4073310000000  0.4578810000000  0.4474440000000 1.0
C      1  0.4851680000000  0.5495330000000  0.5174150000000 1.0
C      1  0.4635570000000  0.5410720000000  0.4512570000000 1.0
C      1  0.4355180000000  0.4684290000000  0.5730400000000 1.0
C      1  0.4416840000000  0.5538130000000  0.5722530000000 1.0
C      1  0.4316120000000  0.5616420000000  0.5236490000000 1.0
C      1  0.5865760000000  0.5300760000000  0.4516040000000 1.0
C      1  0.4828680000000  0.5324640000000  0.4080520000000 1.0
C      1  0.5045580000000  0.4342200000000  0.4781520000000 1.0
C      1  0.5394860000000  0.4270790000000  0.4423590000000 1.0
C      1  0.5226280000000  0.4499120000000  0.5307910000000 1.0
C      1  0.4558390000000  0.4918110000000  0.4026370000000 1.0
C      1  0.5221520000000  0.4994840000000  0.5480470000000 1.0
C      1  0.5494790000000  0.4670260000000  0.4848860000000 1.0
C      1  0.5089830000000  0.4910400000000  0.4815590000000 1.0
C      1  0.4556620000000  0.4390400000000  0.5298610000000 1.0
C      1  0.5140780000000  0.4315190000000  0.4265800000000 1.0
C      1  0.5457510000000  0.4194850000000  0.4710180000000 1.0
C      1  0.5476640000000  0.5344490000000  0.5824000000000 1.0
C      1  0.4456500000000  0.4830720000000  0.4668570000000 1.0
C      1  0.5869570000000  0.4478590000000  0.4929830000000 1.0
C      1  0.5230110000000  0.5157590000000  0.4855370000000 1.0
C      1  0.5670580000000  0.5718750000000  0.5288690000000 1.0
C      1  0.4797050000000  0.4959980000000  0.5920340000000 1.0
C      1  0.5435690000000  0.5172890000000  0.5444050000000 1.0
C      1  0.4276080000000  0.4317350000000  0.5203010000000 1.0
C      1  0.4453530000000  0.5714950000000  0.5472980000000 1.0
C      1  0.5891940000000  0.5446160000000  0.5052550000000 1.0
C      1  0.5198190000000  0.4685210000000  0.5932310000000 1.0
C      1  0.5510370000000  0.5828160000000  0.5505350000000 1.0
END
