TITL C-4164238-4211-650 -2.8658522026288 125000 -18542.7896015397 0 0 125 (C1) n - 1
REM
REM in /home/nfs/bkarasulu/CARBON/AIRSS/Generating-Clusters/ReaxFF-fromJPCA2015/Units_Real/with-SteepDescent/Only-C1/SD-CG/Try1-3A/FIRE-CG
REM
REM
REM
REM
REM
REM ./C.cell (11c1c37f851c82e70ff6c80c92926a4b)
REM
REM compiler GCC version 9.2.1 20190827 (Red Hat 9.2.1-1)
REM options -cpp -mtune=generic -march=x86-64 -g -O0 -fpre-include=/usr/include/finclude/math-vector-fortran.h
REM seed 1491925946 -540384608 -551698728 -1165755757 254433478 -808720921 613679068 -1533588485 1773031715 1816217380 -881669737 1468673589 -738752543 2112172800 -1832259713 857353746 420815813 1071315750 -1609895248 1906226178 1368929945 1130884913 1372980802 14116541 -2001869944 799343176 -1204616105 706084016 -996160892 672915169 -1295809630 696928145 -2089597884
REM
CELL 1.54180   50.00000   50.00000   50.00000   90.00000   90.00000   90.00000
LATT -1
SFAC C  
C      1  0.5944800000000  0.4792110000000  0.5182930000000 1.0
C      1  0.5128980000000  0.4998370000000  0.4737050000000 1.0
C      1  0.4370130000000  0.5366440000000  0.4433610000000 1.0
C      1  0.4921970000000  0.5150620000000  0.5713470000000 1.0
C      1  0.4726580000000  0.4664170000000  0.5250670000000 1.0
C      1  0.4827170000000  0.5618400000000  0.5683280000000 1.0
C      1  0.5083530000000  0.4903990000000  0.5286820000000 1.0
C      1  0.5662720000000  0.4853490000000  0.5762030000000 1.0
C      1  0.5002610000000  0.5241600000000  0.4809330000000 1.0
C      1  0.4529110000000  0.4764560000000  0.5729990000000 1.0
C      1  0.5759100000000  0.5575160000000  0.5285340000000 1.0
C      1  0.5168350000000  0.4716970000000  0.3967280000000 1.0
C      1  0.5844290000000  0.4954340000000  0.5561710000000 1.0
C      1  0.4425990000000  0.4684220000000  0.4346090000000 1.0
C      1  0.4027760000000  0.4677270000000  0.4980200000000 1.0
C      1  0.4920680000000  0.5392710000000  0.4193070000000 1.0
C      1  0.4435160000000  0.5205320000000  0.4196580000000 1.0
C      1  0.5309270000000  0.5355600000000  0.4314340000000 1.0
C      1  0.5605240000000  0.5529230000000  0.4604760000000 1.0
C      1  0.5286450000000  0.4060750000000  0.5374850000000 1.0
C      1  0.5201730000000  0.4991450000000  0.5981200000000 1.0
C      1  0.4712210000000  0.5239300000000  0.4072790000000 1.0
C      1  0.4426660000000  0.4477070000000  0.5312490000000 1.0
C      1  0.4076820000000  0.5132500000000  0.4750450000000 1.0
C      1  0.5168590000000  0.5461180000000  0.4856750000000 1.0
C      1  0.4820630000000  0.5223990000000  0.4597880000000 1.0
C      1  0.5517450000000  0.5549940000000  0.5445650000000 1.0
C      1  0.4430160000000  0.4756970000000  0.4626240000000 1.0
C      1  0.4816380000000  0.5597160000000  0.5223430000000 1.0
C      1  0.5762490000000  0.5316410000000  0.4480770000000 1.0
C      1  0.4085820000000  0.5083100000000  0.5276560000000 1.0
C      1  0.5106370000000  0.5540380000000  0.4336050000000 1.0
C      1  0.5979140000000  0.4700140000000  0.4890950000000 1.0
C      1  0.4798410000000  0.4181510000000  0.5465360000000 1.0
C      1  0.4869740000000  0.4407560000000  0.4618340000000 1.0
C      1  0.5972780000000  0.5054520000000  0.5331500000000 1.0
C      1  0.4974040000000  0.5374660000000  0.5305440000000 1.0
C      1  0.4638420000000  0.4951450000000  0.5250830000000 1.0
C      1  0.4221530000000  0.4311490000000  0.4865070000000 1.0
C      1  0.5663980000000  0.4723330000000  0.5197140000000 1.0
C      1  0.4464450000000  0.5038340000000  0.5611920000000 1.0
C      1  0.5285870000000  0.4664970000000  0.4434200000000 1.0
C      1  0.4226260000000  0.4928490000000  0.4633480000000 1.0
C      1  0.5615030000000  0.5763590000000  0.5095530000000 1.0
C      1  0.5570770000000  0.5219830000000  0.4995140000000 1.0
C      1  0.4577930000000  0.5544450000000  0.5077530000000 1.0
C      1  0.5446970000000  0.5110590000000  0.5512930000000 1.0
C      1  0.4710210000000  0.5047360000000  0.4986890000000 1.0
C      1  0.4197280000000  0.5988820000000  0.5007370000000 1.0
C      1  0.5577790000000  0.4795360000000  0.4715600000000 1.0
C      1  0.5239930000000  0.6020770000000  0.4953920000000 1.0
C      1  0.5272570000000  0.4535680000000  0.4164140000000 1.0
C      1  0.5589130000000  0.5761760000000  0.4793790000000 1.0
C      1  0.5309790000000  0.4381450000000  0.5096840000000 1.0
C      1  0.4554740000000  0.5565070000000  0.5573080000000 1.0
C      1  0.4459400000000  0.5332780000000  0.5709740000000 1.0
C      1  0.4821370000000  0.4608520000000  0.4978910000000 1.0
C      1  0.4630720000000  0.4274610000000  0.4546820000000 1.0
C      1  0.5187920000000  0.4679640000000  0.5623490000000 1.0
C      1  0.4257760000000  0.5647630000000  0.4782100000000 1.0
C      1  0.5393320000000  0.4926280000000  0.4522010000000 1.0
C      1  0.4328670000000  0.4649450000000  0.5550310000000 1.0
C      1  0.5059080000000  0.4757830000000  0.5871180000000 1.0
C      1  0.5544570000000  0.4205500000000  0.5410380000000 1.0
C      1  0.4942190000000  0.5985090000000  0.4957690000000 1.0
C      1  0.4971020000000  0.5121410000000  0.5433280000000 1.0
C      1  0.4207170000000  0.4474610000000  0.5106510000000 1.0
C      1  0.4876230000000  0.4938140000000  0.4587950000000 1.0
C      1  0.5484640000000  0.5038320000000  0.5922120000000 1.0
C      1  0.5009860000000  0.4064750000000  0.5269390000000 1.0
C      1  0.4218480000000  0.4918890000000  0.5489710000000 1.0
C      1  0.4918550000000  0.5874590000000  0.5228540000000 1.0
C      1  0.4582350000000  0.4217390000000  0.5280630000000 1.0
C      1  0.5963510000000  0.5202710000000  0.4671920000000 1.0
C      1  0.4663780000000  0.4125490000000  0.5010470000000 1.0
C      1  0.5159770000000  0.4091420000000  0.4772050000000 1.0
C      1  0.4810710000000  0.4394440000000  0.5660090000000 1.0
C      1  0.4382210000000  0.5552700000000  0.5287920000000 1.0
C      1  0.5433820000000  0.4231890000000  0.4481420000000 1.0
C      1  0.4702310000000  0.4941750000000  0.4011510000000 1.0
C      1  0.4788040000000  0.4633030000000  0.5817130000000 1.0
C      1  0.4953850000000  0.4060250000000  0.4984190000000 1.0
C      1  0.5092660000000  0.4307750000000  0.4246470000000 1.0
C      1  0.4206280000000  0.5739460000000  0.5060250000000 1.0
C      1  0.4450570000000  0.4913470000000  0.4151570000000 1.0
C      1  0.5161650000000  0.5863600000000  0.5386610000000 1.0
C      1  0.5608200000000  0.4312130000000  0.4689160000000 1.0
C      1  0.4895080000000  0.4708730000000  0.4014540000000 1.0
C      1  0.5992850000000  0.4933620000000  0.4743370000000 1.0
C      1  0.5864860000000  0.5290350000000  0.4942660000000 1.0
C      1  0.5932080000000  0.5339790000000  0.5216440000000 1.0
C      1  0.5111480000000  0.5672350000000  0.5603420000000 1.0
C      1  0.5406320000000  0.4194800000000  0.4889890000000 1.0
C      1  0.5420570000000  0.5303990000000  0.5266020000000 1.0
C      1  0.5525430000000  0.5188510000000  0.4366840000000 1.0
C      1  0.4852100000000  0.5388100000000  0.5856850000000 1.0
C      1  0.4583790000000  0.5636970000000  0.4789480000000 1.0
C      1  0.4035430000000  0.4979190000000  0.5005310000000 1.0
C      1  0.5433460000000  0.5378810000000  0.4789100000000 1.0
C      1  0.5201640000000  0.4868770000000  0.5006260000000 1.0
C      1  0.5513440000000  0.4895470000000  0.4993230000000 1.0
C      1  0.5176330000000  0.4130450000000  0.4472490000000 1.0
C      1  0.5112870000000  0.4587100000000  0.4951890000000 1.0
C      1  0.5498580000000  0.5266440000000  0.5744920000000 1.0
C      1  0.4847160000000  0.4447140000000  0.4169510000000 1.0
C      1  0.5113510000000  0.5265350000000  0.5904680000000 1.0
C      1  0.5006210000000  0.4648010000000  0.5394330000000 1.0
C      1  0.5088780000000  0.5716190000000  0.4626060000000 1.0
C      1  0.4585810000000  0.4436440000000  0.4298490000000 1.0
C      1  0.5381180000000  0.5915680000000  0.5189100000000 1.0
C      1  0.4448640000000  0.5093180000000  0.5084920000000 1.0
C      1  0.4017570000000  0.4503360000000  0.4730900000000 1.0
C      1  0.4482080000000  0.4193230000000  0.4790800000000 1.0
C      1  0.4277020000000  0.5290160000000  0.5202680000000 1.0
C      1  0.4707430000000  0.4809400000000  0.4799110000000 1.0
C      1  0.5536170000000  0.4469070000000  0.5249440000000 1.0
C      1  0.5447280000000  0.4819550000000  0.5560100000000 1.0
C      1  0.4612460000000  0.5413520000000  0.4582600000000 1.0
C      1  0.5354530000000  0.5527570000000  0.5695340000000 1.0
C      1  0.5185340000000  0.5440960000000  0.5148620000000 1.0
C      1  0.5764640000000  0.4574540000000  0.4715050000000 1.0
C      1  0.5330160000000  0.5878150000000  0.4720740000000 1.0
C      1  0.4843200000000  0.5818740000000  0.4745100000000 1.0
C      1  0.4169410000000  0.5405910000000  0.4650710000000 1.0
C      1  0.5112450000000  0.4539000000000  0.4636840000000 1.0
END
