TITL C-4164239-2837-695 10.7676940232177 125000 -12692.5884855681 0 0 86 (C1) n - 1
REM
REM in /home/nfs/bkarasulu/CARBON/AIRSS/Generating-Clusters/ReaxFF-fromJPCA2015/Units_Real/with-SteepDescent/Only-C1/SD-CG/Try1-3A/FIRE-CG
REM
REM
REM
REM
REM
REM ./C.cell (11c1c37f851c82e70ff6c80c92926a4b)
REM
REM compiler GCC version 9.2.1 20190827 (Red Hat 9.2.1-1)
REM options -cpp -mtune=generic -march=x86-64 -g -O0 -fpre-include=/usr/include/finclude/math-vector-fortran.h
REM seed 748368059 1365639361 1650238841 -1539860568 -1056133007 -398393594 -1490204562 481659313 -148020509 -660261624 -126965134 -2141803632 -1161628661 -1830445164 -1978808184 962428251 -424971084 -49429808 2092125498 -879735971 1720808951 557816157 -2024844051 788035343 213444703 1316149773 547869501 -419970787 1406331917 -2083522210 -1790887195 1655226503 2039401150
REM
CELL 1.54180   50.00000   50.00000   50.00000   90.00000   90.00000   90.00000
LATT -1
SFAC C  
C      1  0.4460730000000  0.4761830000000  0.4482740000000 1.0
C      1  0.4950130000000  0.4818520000000  0.4615660000000 1.0
C      1  0.4647590000000  0.4586960000000  0.5222340000000 1.0
C      1  0.5343150000000  0.5225330000000  0.5591830000000 1.0
C      1  0.5431210000000  0.4989430000000  0.4197540000000 1.0
C      1  0.4176870000000  0.4888790000000  0.5193020000000 1.0
C      1  0.5044240000000  0.5794230000000  0.4835450000000 1.0
C      1  0.5171820000000  0.4523140000000  0.5543840000000 1.0
C      1  0.4656260000000  0.5066130000000  0.5737820000000 1.0
C      1  0.5259650000000  0.5715360000000  0.5426900000000 1.0
C      1  0.5754350000000  0.5001970000000  0.5368660000000 1.0
C      1  0.4244860000000  0.4703300000000  0.5398690000000 1.0
C      1  0.4992020000000  0.5304200000000  0.4280510000000 1.0
C      1  0.4286220000000  0.5126730000000  0.5352700000000 1.0
C      1  0.5901580000000  0.4710130000000  0.4933470000000 1.0
C      1  0.5663400000000  0.4680300000000  0.4594880000000 1.0
C      1  0.5358930000000  0.5128650000000  0.4723370000000 1.0
C      1  0.5377960000000  0.4823190000000  0.5132460000000 1.0
C      1  0.4544740000000  0.4482620000000  0.4550630000000 1.0
C      1  0.4909240000000  0.4664240000000  0.4351590000000 1.0
C      1  0.5468190000000  0.4434280000000  0.5027020000000 1.0
C      1  0.4290680000000  0.4506550000000  0.4948960000000 1.0
C      1  0.4704270000000  0.4855790000000  0.5087360000000 1.0
C      1  0.4755730000000  0.4916750000000  0.4803970000000 1.0
C      1  0.4563180000000  0.5551060000000  0.4924050000000 1.0
C      1  0.4214510000000  0.4788610000000  0.4914350000000 1.0
C      1  0.5060120000000  0.5266450000000  0.5504260000000 1.0
C      1  0.5014310000000  0.5175850000000  0.5253420000000 1.0
C      1  0.4766410000000  0.5140010000000  0.4370000000000 1.0
C      1  0.5252270000000  0.4912630000000  0.5677750000000 1.0
C      1  0.4969060000000  0.5956150000000  0.5065790000000 1.0
C      1  0.5252250000000  0.4423270000000  0.4511920000000 1.0
C      1  0.4361160000000  0.5390080000000  0.5291590000000 1.0
C      1  0.4992420000000  0.5819300000000  0.5339310000000 1.0
C      1  0.5287420000000  0.5249390000000  0.4284630000000 1.0
C      1  0.5044210000000  0.5556710000000  0.4430730000000 1.0
C      1  0.4363610000000  0.4498380000000  0.5234650000000 1.0
C      1  0.5334630000000  0.5481590000000  0.4458990000000 1.0
C      1  0.5058120000000  0.5593090000000  0.5836680000000 1.0
C      1  0.4572950000000  0.5068940000000  0.5421720000000 1.0
C      1  0.5279560000000  0.4627040000000  0.4970370000000 1.0
C      1  0.5684410000000  0.4516990000000  0.4840300000000 1.0
C      1  0.4816070000000  0.4352820000000  0.5236100000000 1.0
C      1  0.5611200000000  0.5435730000000  0.5187330000000 1.0
C      1  0.4722600000000  0.4768140000000  0.5753260000000 1.0
C      1  0.5485170000000  0.4726510000000  0.4359760000000 1.0
C      1  0.5484780000000  0.5539430000000  0.4713140000000 1.0
C      1  0.5224100000000  0.4897730000000  0.4627580000000 1.0
C      1  0.4360170000000  0.5213060000000  0.4680220000000 1.0
C      1  0.5571260000000  0.4764410000000  0.5353120000000 1.0
C      1  0.5017090000000  0.4260190000000  0.4587560000000 1.0
C      1  0.5288000000000  0.4638670000000  0.4703090000000 1.0
C      1  0.4688070000000  0.5181000000000  0.4667300000000 1.0
C      1  0.4263010000000  0.5461180000000  0.4674350000000 1.0
C      1  0.4454830000000  0.5624610000000  0.4696490000000 1.0
C      1  0.5242260000000  0.4588860000000  0.4268110000000 1.0
C      1  0.5653540000000  0.5150140000000  0.4740180000000 1.0
C      1  0.4760350000000  0.5077420000000  0.5233060000000 1.0
C      1  0.5577500000000  0.5241420000000  0.5398980000000 1.0
C      1  0.4744290000000  0.4255230000000  0.4968060000000 1.0
C      1  0.5008480000000  0.4744650000000  0.5668520000000 1.0
C      1  0.5099030000000  0.4347990000000  0.5318850000000 1.0
C      1  0.4803240000000  0.4403240000000  0.4446940000000 1.0
C      1  0.5415700000000  0.5646800000000  0.5198210000000 1.0
C      1  0.4596890000000  0.5221370000000  0.5938940000000 1.0
C      1  0.5233660000000  0.5080690000000  0.5120570000000 1.0
C      1  0.4780110000000  0.5429260000000  0.4818890000000 1.0
C      1  0.5016140000000  0.4205310000000  0.4874040000000 1.0
C      1  0.4883350000000  0.5477780000000  0.5608930000000 1.0
C      1  0.4530720000000  0.5601740000000  0.5224420000000 1.0
C      1  0.5273810000000  0.5591540000000  0.4928590000000 1.0
C      1  0.5671350000000  0.5400510000000  0.4886840000000 1.0
C      1  0.4864720000000  0.5655610000000  0.4644160000000 1.0
C      1  0.4509550000000  0.4370490000000  0.4815270000000 1.0
C      1  0.4503840000000  0.4429640000000  0.5770190000000 1.0
C      1  0.5885470000000  0.4908700000000  0.5135420000000 1.0
C      1  0.4460940000000  0.4648020000000  0.5647660000000 1.0
C      1  0.4678960000000  0.4869970000000  0.4314480000000 1.0
C      1  0.4764480000000  0.5657470000000  0.5406740000000 1.0
C      1  0.5237230000000  0.4247690000000  0.5076150000000 1.0
C      1  0.5300930000000  0.5550820000000  0.5674970000000 1.0
C      1  0.5212010000000  0.5274790000000  0.4921950000000 1.0
C      1  0.5419310000000  0.4689120000000  0.5594580000000 1.0
C      1  0.4292910000000  0.4919160000000  0.4665520000000 1.0
C      1  0.5308090000000  0.4827680000000  0.4004060000000 1.0
C      1  0.5820420000000  0.4899440000000  0.4715490000000 1.0
END
