TITL C-4164241-3639-399 -4.20399958126753 125000 -4087.23793861075 0 0 29 (C1) n - 1
REM
REM in /home/nfs/bkarasulu/CARBON/AIRSS/Generating-Clusters/ReaxFF-fromJPCA2015/Units_Real/with-SteepDescent/Only-C1/SD-CG/Try1-3A/FIRE-CG
REM
REM
REM
REM
REM
REM ./C.cell (11c1c37f851c82e70ff6c80c92926a4b)
REM
REM compiler GCC version 9.2.1 20190827 (Red Hat 9.2.1-1)
REM options -cpp -mtune=generic -march=x86-64 -g -O0 -fpre-include=/usr/include/finclude/math-vector-fortran.h
REM seed -2129404830 -2138241435 -489976466 1215963748 640999813 1498697913 -751844790 384701134 -362804791 1280968646 -481832539 -1131942308 767418801 834022138 1157718271 -891258516 1743005608 1982119113 -1412071463 -536641782 -133871857 -980813003 2073503624 1322891814 -930864566 -548925592 -869366236 -119424634 271486059 -1363179571 -236574406 -303833962 -1620077085
REM
CELL 1.54180   50.00000   50.00000   50.00000   90.00000   90.00000   90.00000
LATT -1
SFAC C  
C      1  0.5127670000000  0.4602750000000  0.4657920000000 1.0
C      1  0.5437810000000  0.5206340000000  0.4988360000000 1.0
C      1  0.5390180000000  0.4950870000000  0.5481500000000 1.0
C      1  0.5042750000000  0.4562900000000  0.5613400000000 1.0
C      1  0.4326540000000  0.5054390000000  0.4795100000000 1.0
C      1  0.4956030000000  0.5029690000000  0.4509640000000 1.0
C      1  0.5242240000000  0.4702840000000  0.5441630000000 1.0
C      1  0.5451110000000  0.4929780000000  0.4558850000000 1.0
C      1  0.5495740000000  0.5168510000000  0.4721080000000 1.0
C      1  0.5040480000000  0.5542950000000  0.5144440000000 1.0
C      1  0.5277860000000  0.5066760000000  0.5189080000000 1.0
C      1  0.4641790000000  0.4667370000000  0.5535260000000 1.0
C      1  0.5332900000000  0.5386970000000  0.4804320000000 1.0
C      1  0.4473220000000  0.5082450000000  0.4542830000000 1.0
C      1  0.5061080000000  0.5494270000000  0.4848900000000 1.0
C      1  0.5036640000000  0.5271960000000  0.5276790000000 1.0
C      1  0.4519840000000  0.5118930000000  0.5299120000000 1.0
C      1  0.4562960000000  0.5445090000000  0.4914700000000 1.0
C      1  0.5384790000000  0.4499690000000  0.4744010000000 1.0
C      1  0.5190690000000  0.4777490000000  0.5155510000000 1.0
C      1  0.4406210000000  0.5226100000000  0.5033450000000 1.0
C      1  0.4752610000000  0.5205910000000  0.4526180000000 1.0
C      1  0.5599500000000  0.4682600000000  0.4633450000000 1.0
C      1  0.4785250000000  0.4433390000000  0.5677140000000 1.0
C      1  0.4789420000000  0.5169560000000  0.5317090000000 1.0
C      1  0.5173440000000  0.4580380000000  0.4944510000000 1.0
C      1  0.5160100000000  0.4852900000000  0.4493050000000 1.0
C      1  0.4799680000000  0.5423050000000  0.4731730000000 1.0
C      1  0.4541450000000  0.4864080000000  0.5420970000000 1.0
END
