TITL C-4164247-2821-584 -4.31210979179898 125000 -25436.7539534133 0 0 170 (C1) n - 1
REM
REM in /home/nfs/bkarasulu/CARBON/AIRSS/Generating-Clusters/ReaxFF-fromJPCA2015/Units_Real/with-SteepDescent/Only-C1/SD-CG/Try1-3A/FIRE-CG
REM
REM
REM
REM
REM
REM ./C.cell (11c1c37f851c82e70ff6c80c92926a4b)
REM
REM compiler GCC version 9.2.1 20190827 (Red Hat 9.2.1-1)
REM options -cpp -mtune=generic -march=x86-64 -g -O0 -fpre-include=/usr/include/finclude/math-vector-fortran.h
REM seed 960160688 -1697630751 436060339 -856777457 332513348 -822680432 74372081 507919202 253942964 -1536731317 -1203961310 -1059257499 96729685 225157645 -974374862 1619323747 -1466090967 -482665602 2031431322 1188421020 1585431494 -1817365092 1883492677 -1942246539 -1929631782 -1939161993 717141336 -1698103977 1350545491 -880513554 14394712 1183007561 172768703
REM
CELL 1.54180   50.00000   50.00000   50.00000   90.00000   90.00000   90.00000
LATT -1
SFAC C  
C      1  0.4878270000000  0.4765280000000  0.5852830000000 1.0
C      1  0.5266380000000  0.5900620000000  0.5053920000000 1.0
C      1  0.4646210000000  0.4922170000000  0.5525120000000 1.0
C      1  0.4691260000000  0.4226440000000  0.4849470000000 1.0
C      1  0.5333310000000  0.5352020000000  0.4138450000000 1.0
C      1  0.5617630000000  0.5663960000000  0.4827470000000 1.0
C      1  0.4728030000000  0.5444620000000  0.4392840000000 1.0
C      1  0.4336540000000  0.4984850000000  0.5125820000000 1.0
C      1  0.5619350000000  0.4829130000000  0.5851300000000 1.0
C      1  0.5317830000000  0.4303930000000  0.5171220000000 1.0
C      1  0.5978480000000  0.4551820000000  0.4677320000000 1.0
C      1  0.4597850000000  0.5321890000000  0.4620630000000 1.0
C      1  0.5861590000000  0.5714510000000  0.4396300000000 1.0
C      1  0.4232740000000  0.5105450000000  0.4881970000000 1.0
C      1  0.5603200000000  0.4407430000000  0.4768230000000 1.0
C      1  0.5428370000000  0.5415840000000  0.5243380000000 1.0
C      1  0.4922520000000  0.4237640000000  0.6012630000000 1.0
C      1  0.4327660000000  0.5011420000000  0.4067150000000 1.0
C      1  0.5734620000000  0.5038620000000  0.5629940000000 1.0
C      1  0.5756010000000  0.5549100000000  0.5517830000000 1.0
C      1  0.5684570000000  0.5341080000000  0.5701270000000 1.0
C      1  0.5014410000000  0.4953030000000  0.3928180000000 1.0
C      1  0.6002620000000  0.4583680000000  0.4956290000000 1.0
C      1  0.4436140000000  0.5821540000000  0.5509050000000 1.0
C      1  0.5569210000000  0.4697310000000  0.4760230000000 1.0
C      1  0.4613810000000  0.4215690000000  0.4363170000000 1.0
C      1  0.4036830000000  0.5594740000000  0.4907850000000 1.0
C      1  0.4344960000000  0.4389680000000  0.5739150000000 1.0
C      1  0.5405730000000  0.5361110000000  0.5764400000000 1.0
C      1  0.5232700000000  0.5980250000000  0.4747890000000 1.0
C      1  0.4170020000000  0.5469590000000  0.5735960000000 1.0
C      1  0.5170190000000  0.5560640000000  0.4189490000000 1.0
C      1  0.5345850000000  0.4900210000000  0.5916630000000 1.0
C      1  0.5569780000000  0.4194970000000  0.4416870000000 1.0
C      1  0.5542640000000  0.5765410000000  0.5478860000000 1.0
C      1  0.5217940000000  0.4493360000000  0.5621840000000 1.0
C      1  0.4778950000000  0.4131760000000  0.5559000000000 1.0
C      1  0.5735850000000  0.5847400000000  0.5039720000000 1.0
C      1  0.5087130000000  0.4069200000000  0.4550120000000 1.0
C      1  0.5583270000000  0.4729820000000  0.5254480000000 1.0
C      1  0.5350030000000  0.5571160000000  0.4999580000000 1.0
C      1  0.4736120000000  0.4561830000000  0.5700130000000 1.0
C      1  0.4793460000000  0.5142970000000  0.3950880000000 1.0
C      1  0.4206990000000  0.5636880000000  0.4421620000000 1.0
C      1  0.5527750000000  0.4921470000000  0.4011830000000 1.0
C      1  0.4728070000000  0.4773560000000  0.4871360000000 1.0
C      1  0.4564470000000  0.4817540000000  0.4605810000000 1.0
C      1  0.4917230000000  0.5077860000000  0.4410430000000 1.0
C      1  0.4773290000000  0.5028950000000  0.5933750000000 1.0
C      1  0.4809310000000  0.4821710000000  0.4439470000000 1.0
C      1  0.5365330000000  0.4009290000000  0.4555840000000 1.0
C      1  0.5689390000000  0.4861610000000  0.4537180000000 1.0
C      1  0.4638300000000  0.5572700000000  0.5887890000000 1.0
C      1  0.4446690000000  0.5729410000000  0.4269060000000 1.0
C      1  0.5024040000000  0.5973330000000  0.5219590000000 1.0
C      1  0.5096520000000  0.5716560000000  0.5841060000000 1.0
C      1  0.5393900000000  0.5186770000000  0.4691810000000 1.0
C      1  0.4281310000000  0.4456960000000  0.5238460000000 1.0
C      1  0.6035480000000  0.5181680000000  0.5256390000000 1.0
C      1  0.4604830000000  0.4903290000000  0.5102700000000 1.0
C      1  0.4105060000000  0.5382340000000  0.4306920000000 1.0
C      1  0.5698330000000  0.4166590000000  0.4993080000000 1.0
C      1  0.5509100000000  0.4927850000000  0.5461500000000 1.0
C      1  0.4255080000000  0.5303590000000  0.4061980000000 1.0
C      1  0.5150570000000  0.4763150000000  0.5734120000000 1.0
C      1  0.4857100000000  0.4467310000000  0.4948830000000 1.0
C      1  0.4992000000000  0.5222390000000  0.4861380000000 1.0
C      1  0.4928200000000  0.4561400000000  0.5238070000000 1.0
C      1  0.4407920000000  0.5539700000000  0.4072270000000 1.0
C      1  0.5301330000000  0.5850640000000  0.4486260000000 1.0
C      1  0.3952300000000  0.5077180000000  0.4715580000000 1.0
C      1  0.4227220000000  0.4855340000000  0.5344430000000 1.0
C      1  0.5849370000000  0.5510540000000  0.4851810000000 1.0
C      1  0.5329870000000  0.3901650000000  0.4841320000000 1.0
C      1  0.5554920000000  0.5676750000000  0.4494800000000 1.0
C      1  0.5453030000000  0.4039970000000  0.5063800000000 1.0
C      1  0.5279630000000  0.4414580000000  0.4699440000000 1.0
C      1  0.5966200000000  0.4848920000000  0.4658170000000 1.0
C      1  0.4167710000000  0.4353320000000  0.5503310000000 1.0
C      1  0.4666810000000  0.4277550000000  0.5781400000000 1.0
C      1  0.3805830000000  0.4761390000000  0.5119670000000 1.0
C      1  0.4622070000000  0.5365420000000  0.5252240000000 1.0
C      1  0.4500950000000  0.5096680000000  0.5859660000000 1.0
C      1  0.5042080000000  0.3959340000000  0.4824420000000 1.0
C      1  0.5640970000000  0.5201000000000  0.4529640000000 1.0
C      1  0.3913330000000  0.4692410000000  0.4607310000000 1.0
C      1  0.5366260000000  0.4312870000000  0.4235600000000 1.0
C      1  0.4759350000000  0.5087240000000  0.5306430000000 1.0
C      1  0.5656680000000  0.4761040000000  0.4235310000000 1.0
C      1  0.4330210000000  0.5361430000000  0.5269390000000 1.0
C      1  0.4594100000000  0.4926040000000  0.3977800000000 1.0
C      1  0.4987330000000  0.4927500000000  0.4845540000000 1.0
C      1  0.5218690000000  0.5385790000000  0.4802800000000 1.0
C      1  0.4598190000000  0.4038580000000  0.5048900000000 1.0
C      1  0.6001980000000  0.4991730000000  0.5486220000000 1.0
C      1  0.5255820000000  0.5058510000000  0.5477860000000 1.0
C      1  0.4860970000000  0.5269150000000  0.4211260000000 1.0
C      1  0.5145890000000  0.4393570000000  0.4929590000000 1.0
C      1  0.5790800000000  0.4337430000000  0.4552950000000 1.0
C      1  0.4075310000000  0.5737230000000  0.4662440000000 1.0
C      1  0.4636720000000  0.5803630000000  0.5716990000000 1.0
C      1  0.5068120000000  0.4334620000000  0.4327340000000 1.0
C      1  0.4555810000000  0.4439340000000  0.4240970000000 1.0
C      1  0.4968540000000  0.5956420000000  0.4718570000000 1.0
C      1  0.5897600000000  0.4167080000000  0.5207150000000 1.0
C      1  0.4362340000000  0.5935480000000  0.5019900000000 1.0
C      1  0.5530990000000  0.4453500000000  0.5302050000000 1.0
C      1  0.4722640000000  0.5898020000000  0.4647940000000 1.0
C      1  0.4233300000000  0.4654090000000  0.5777500000000 1.0
C      1  0.5072850000000  0.4849620000000  0.4544080000000 1.0
C      1  0.4307130000000  0.4357490000000  0.4687160000000 1.0
C      1  0.5848860000000  0.5108510000000  0.5080310000000 1.0
C      1  0.4119570000000  0.5861070000000  0.4911500000000 1.0
C      1  0.5274430000000  0.5752290000000  0.5601170000000 1.0
C      1  0.4421930000000  0.5373070000000  0.5884290000000 1.0
C      1  0.4873780000000  0.3951130000000  0.5088220000000 1.0
C      1  0.4611730000000  0.5811250000000  0.4933560000000 1.0
C      1  0.4446090000000  0.5083290000000  0.4656870000000 1.0
C      1  0.6003610000000  0.5073830000000  0.4856510000000 1.0
C      1  0.4365580000000  0.4900770000000  0.5621700000000 1.0
C      1  0.5957890000000  0.5468990000000  0.5320980000000 1.0
C      1  0.4007500000000  0.5133040000000  0.4435040000000 1.0
C      1  0.4215390000000  0.4356600000000  0.4966510000000 1.0
C      1  0.4358310000000  0.4184820000000  0.5158040000000 1.0
C      1  0.5585470000000  0.5199780000000  0.5132990000000 1.0
C      1  0.5870790000000  0.4499060000000  0.5627480000000 1.0
C      1  0.4125900000000  0.4922930000000  0.4257880000000 1.0
C      1  0.4915630000000  0.5509040000000  0.5941480000000 1.0
C      1  0.5936010000000  0.5636910000000  0.5090250000000 1.0
C      1  0.3806650000000  0.4838670000000  0.4824450000000 1.0
C      1  0.4748540000000  0.5996410000000  0.5147360000000 1.0
C      1  0.4186390000000  0.5376830000000  0.5020030000000 1.0
C      1  0.5918020000000  0.4692180000000  0.5199740000000 1.0
C      1  0.5438520000000  0.4790150000000  0.4997660000000 1.0
C      1  0.4983480000000  0.5232230000000  0.5986130000000 1.0
C      1  0.5173960000000  0.4287790000000  0.5969460000000 1.0
C      1  0.4909400000000  0.5892720000000  0.5716630000000 1.0
C      1  0.5919550000000  0.5305300000000  0.4684410000000 1.0
C      1  0.4708220000000  0.4657400000000  0.5424090000000 1.0
C      1  0.5109000000000  0.4555160000000  0.4510770000000 1.0
C      1  0.3946710000000  0.4769700000000  0.5367230000000 1.0
C      1  0.4744050000000  0.5745750000000  0.4389390000000 1.0
C      1  0.5096180000000  0.4355550000000  0.5371810000000 1.0
C      1  0.4693580000000  0.5533440000000  0.5039320000000 1.0
C      1  0.4093670000000  0.4661470000000  0.4392160000000 1.0
C      1  0.6023880000000  0.4705200000000  0.5471710000000 1.0
C      1  0.5747450000000  0.4318170000000  0.5432610000000 1.0
C      1  0.5111460000000  0.4806670000000  0.5105070000000 1.0
C      1  0.4368770000000  0.4566300000000  0.4485270000000 1.0
C      1  0.4822920000000  0.4727960000000  0.4008260000000 1.0
C      1  0.5398230000000  0.4371240000000  0.5815390000000 1.0
C      1  0.5437670000000  0.5053920000000  0.4941900000000 1.0
C      1  0.5267600000000  0.5179820000000  0.5954640000000 1.0
C      1  0.6041510000000  0.5510510000000  0.4455220000000 1.0
C      1  0.4828970000000  0.4467080000000  0.4139350000000 1.0
C      1  0.5079570000000  0.5952760000000  0.5501700000000 1.0
C      1  0.4941550000000  0.4070070000000  0.5357650000000 1.0
C      1  0.4514160000000  0.4156370000000  0.4617760000000 1.0
C      1  0.4487050000000  0.5990740000000  0.5276810000000 1.0
C      1  0.4259800000000  0.5583420000000  0.5480720000000 1.0
C      1  0.5522750000000  0.5905160000000  0.5225760000000 1.0
C      1  0.5655650000000  0.4545460000000  0.5818860000000 1.0
C      1  0.5510990000000  0.4540210000000  0.4183560000000 1.0
C      1  0.5053140000000  0.5017180000000  0.5294050000000 1.0
C      1  0.4003880000000  0.4578840000000  0.5605050000000 1.0
C      1  0.5288620000000  0.5350510000000  0.5491970000000 1.0
C      1  0.4770530000000  0.5376980000000  0.4834130000000 1.0
C      1  0.5275680000000  0.5076070000000  0.3995970000000 1.0
C      1  0.5524520000000  0.5408920000000  0.4351930000000 1.0
C      1  0.5071680000000  0.5776170000000  0.4316890000000 1.0
END
