TITL C-4164245-3996-68 12.3403061472389 125000 -18499.7547649392 0 0 125 (C1) n - 1
REM
REM in /home/nfs/bkarasulu/CARBON/AIRSS/Generating-Clusters/ReaxFF-fromJPCA2015/Units_Real/with-SteepDescent/Only-C1/SD-CG/Try1-3A/FIRE-CG
REM
REM
REM
REM
REM
REM ./C.cell (11c1c37f851c82e70ff6c80c92926a4b)
REM
REM compiler GCC version 9.2.1 20190827 (Red Hat 9.2.1-1)
REM options -cpp -mtune=generic -march=x86-64 -g -O0 -fpre-include=/usr/include/finclude/math-vector-fortran.h
REM seed -707831070 255993996 674008576 1794169923 1025409537 1117078989 -153262124 1360053471 -1664141386 122175664 -1132803525 378583962 -406371912 1270055524 969803057 1467298771 532840662 -1796921586 -393482003 2124336629 148595889 -1714989148 105658208 -618821278 -1152686584 687435860 871325454 -738317587 -1657675867 1862551787 407866184 1187038024 718144258
REM
CELL 1.54180   50.00000   50.00000   50.00000   90.00000   90.00000   90.00000
LATT -1
SFAC C  
C      1  0.4876260000000  0.4713560000000  0.5559830000000 1.0
C      1  0.4358070000000  0.4543350000000  0.4632960000000 1.0
C      1  0.5513670000000  0.5513450000000  0.5664170000000 1.0
C      1  0.4280760000000  0.4720790000000  0.4413120000000 1.0
C      1  0.4846440000000  0.5506560000000  0.5031660000000 1.0
C      1  0.4868470000000  0.5811300000000  0.5440570000000 1.0
C      1  0.4244170000000  0.5445380000000  0.4515660000000 1.0
C      1  0.5563640000000  0.4503000000000  0.4368550000000 1.0
C      1  0.4947860000000  0.5068850000000  0.5173480000000 1.0
C      1  0.4719720000000  0.6017780000000  0.5258900000000 1.0
C      1  0.4659540000000  0.5235440000000  0.4742020000000 1.0
C      1  0.4356370000000  0.4182670000000  0.4830710000000 1.0
C      1  0.5740590000000  0.5026220000000  0.4734920000000 1.0
C      1  0.5501160000000  0.5002450000000  0.4210680000000 1.0
C      1  0.5345610000000  0.4331140000000  0.4398520000000 1.0
C      1  0.5412000000000  0.4702000000000  0.5675850000000 1.0
C      1  0.4926470000000  0.4656010000000  0.4162660000000 1.0
C      1  0.5293450000000  0.5440860000000  0.4736300000000 1.0
C      1  0.5619470000000  0.4790420000000  0.5217370000000 1.0
C      1  0.5001430000000  0.4158920000000  0.5531410000000 1.0
C      1  0.5164740000000  0.4665010000000  0.5210450000000 1.0
C      1  0.5450490000000  0.5961620000000  0.4832100000000 1.0
C      1  0.4795520000000  0.5089490000000  0.4546470000000 1.0
C      1  0.5725040000000  0.5379460000000  0.5557490000000 1.0
C      1  0.5089460000000  0.4710570000000  0.4716010000000 1.0
C      1  0.4933480000000  0.5011990000000  0.5533250000000 1.0
C      1  0.5050670000000  0.4977550000000  0.4615060000000 1.0
C      1  0.4975360000000  0.4153970000000  0.4724320000000 1.0
C      1  0.5384500000000  0.4762680000000  0.5363190000000 1.0
C      1  0.5876680000000  0.4663620000000  0.5590370000000 1.0
C      1  0.4224710000000  0.5445480000000  0.5034510000000 1.0
C      1  0.4245720000000  0.5838820000000  0.4730540000000 1.0
C      1  0.5933360000000  0.4818070000000  0.4776440000000 1.0
C      1  0.5368680000000  0.6114860000000  0.5005040000000 1.0
C      1  0.4920190000000  0.4133370000000  0.5013020000000 1.0
C      1  0.4266020000000  0.5159600000000  0.5457400000000 1.0
C      1  0.4078450000000  0.4904470000000  0.5181860000000 1.0
C      1  0.4050780000000  0.4202030000000  0.4849370000000 1.0
C      1  0.4717870000000  0.5585420000000  0.5277860000000 1.0
C      1  0.5528180000000  0.5759990000000  0.4654690000000 1.0
C      1  0.5151040000000  0.5122690000000  0.5720890000000 1.0
C      1  0.4840160000000  0.4681230000000  0.4869990000000 1.0
C      1  0.5525820000000  0.4799710000000  0.4372350000000 1.0
C      1  0.5283660000000  0.5654440000000  0.4501020000000 1.0
C      1  0.5255380000000  0.4159530000000  0.4601350000000 1.0
C      1  0.4380210000000  0.4672290000000  0.5604450000000 1.0
C      1  0.4435020000000  0.4414410000000  0.5015330000000 1.0
C      1  0.4521640000000  0.5459480000000  0.4598790000000 1.0
C      1  0.5553780000000  0.4312360000000  0.5196710000000 1.0
C      1  0.5774900000000  0.5301200000000  0.4787370000000 1.0
C      1  0.5255300000000  0.4262100000000  0.5627010000000 1.0
C      1  0.4444450000000  0.4707450000000  0.4187730000000 1.0
C      1  0.5646200000000  0.4518570000000  0.5645260000000 1.0
C      1  0.4064620000000  0.4691780000000  0.5012700000000 1.0
C      1  0.5293100000000  0.3992030000000  0.5153920000000 1.0
C      1  0.5208230000000  0.4493900000000  0.5787260000000 1.0
C      1  0.5397670000000  0.5694610000000  0.5500000000000 1.0
C      1  0.4526770000000  0.4320770000000  0.5277540000000 1.0
C      1  0.5860680000000  0.4814120000000  0.5362450000000 1.0
C      1  0.4132500000000  0.5166950000000  0.4993090000000 1.0
C      1  0.5036210000000  0.5447870000000  0.4111440000000 1.0
C      1  0.4774660000000  0.5501710000000  0.5833210000000 1.0
C      1  0.4124210000000  0.4957310000000  0.4483750000000 1.0
C      1  0.5363050000000  0.4702340000000  0.4806960000000 1.0
C      1  0.4706550000000  0.5217210000000  0.4299990000000 1.0
C      1  0.4415070000000  0.5585230000000  0.5237010000000 1.0
C      1  0.4560850000000  0.4620090000000  0.4856160000000 1.0
C      1  0.4358490000000  0.5415290000000  0.5500340000000 1.0
C      1  0.5670150000000  0.5135670000000  0.5700480000000 1.0
C      1  0.4204940000000  0.5210560000000  0.4344330000000 1.0
C      1  0.5029130000000  0.5223060000000  0.6177100000000 1.0
C      1  0.5218180000000  0.5157180000000  0.5063240000000 1.0
C      1  0.4863750000000  0.4392040000000  0.4281220000000 1.0
C      1  0.5893260000000  0.5361200000000  0.5035580000000 1.0
C      1  0.4220500000000  0.4889960000000  0.5440720000000 1.0
C      1  0.4522020000000  0.4418180000000  0.5548680000000 1.0
C      1  0.5878540000000  0.4945940000000  0.5614560000000 1.0
C      1  0.4930920000000  0.5645900000000  0.4283570000000 1.0
C      1  0.4506540000000  0.4847600000000  0.5804430000000 1.0
C      1  0.5129820000000  0.5555590000000  0.4971070000000 1.0
C      1  0.5586850000000  0.5503290000000  0.4791980000000 1.0
C      1  0.5695180000000  0.4375750000000  0.4615120000000 1.0
C      1  0.4698380000000  0.6003220000000  0.4962390000000 1.0
C      1  0.4075190000000  0.4498340000000  0.4816470000000 1.0
C      1  0.5808180000000  0.4558460000000  0.4811070000000 1.0
C      1  0.4990850000000  0.5785680000000  0.4510390000000 1.0
C      1  0.4804480000000  0.4348920000000  0.5184320000000 1.0
C      1  0.5480900000000  0.4918430000000  0.4668750000000 1.0
C      1  0.4128200000000  0.5065160000000  0.4742230000000 1.0
C      1  0.5248340000000  0.5136810000000  0.4760140000000 1.0
C      1  0.5753520000000  0.5440850000000  0.5276870000000 1.0
C      1  0.5411280000000  0.5010990000000  0.5743710000000 1.0
C      1  0.4675560000000  0.5070590000000  0.5684380000000 1.0
C      1  0.4780800000000  0.5876980000000  0.4704170000000 1.0
C      1  0.5281780000000  0.5414620000000  0.5171490000000 1.0
C      1  0.6170480000000  0.4927530000000  0.4934740000000 1.0
C      1  0.4882360000000  0.5183440000000  0.4069760000000 1.0
C      1  0.5528720000000  0.4082710000000  0.5021500000000 1.0
C      1  0.5175410000000  0.5878780000000  0.5429020000000 1.0
C      1  0.4963540000000  0.4522370000000  0.5351120000000 1.0
C      1  0.5568300000000  0.4588200000000  0.4999410000000 1.0
C      1  0.5523710000000  0.4311470000000  0.5484290000000 1.0
C      1  0.4493810000000  0.4268230000000  0.4588680000000 1.0
C      1  0.4923860000000  0.4536310000000  0.5793700000000 1.0
C      1  0.4779890000000  0.4249680000000  0.4529360000000 1.0
C      1  0.4547860000000  0.4934980000000  0.4033240000000 1.0
C      1  0.4486840000000  0.5901470000000  0.5144510000000 1.0
C      1  0.5270290000000  0.6016850000000  0.5209610000000 1.0
C      1  0.4529310000000  0.5750040000000  0.4635470000000 1.0
C      1  0.6140390000000  0.5186520000000  0.5067840000000 1.0
C      1  0.4561550000000  0.5345080000000  0.5702490000000 1.0
C      1  0.5037390000000  0.4011290000000  0.5266290000000 1.0
C      1  0.5508840000000  0.5564840000000  0.5266130000000 1.0
C      1  0.5423480000000  0.5241860000000  0.4196580000000 1.0
C      1  0.4781270000000  0.4313260000000  0.5661920000000 1.0
C      1  0.4748910000000  0.5232470000000  0.5013510000000 1.0
C      1  0.5306440000000  0.5488600000000  0.4222190000000 1.0
C      1  0.4840980000000  0.4897220000000  0.4019640000000 1.0
C      1  0.4682410000000  0.4592570000000  0.4287400000000 1.0
C      1  0.5523890000000  0.4160660000000  0.4726930000000 1.0
C      1  0.4138030000000  0.5569110000000  0.4783440000000 1.0
C      1  0.4800120000000  0.5770620000000  0.5751980000000 1.0
C      1  0.4965670000000  0.4810970000000  0.5077750000000 1.0
C      1  0.4445150000000  0.5174730000000  0.4176280000000 1.0
C      1  0.5018660000000  0.5302270000000  0.5933920000000 1.0
END
