TITL C-4164243-3780-474 1.61028035802884 125000 -15809.2928978045 0 0 109 (C1) n - 1
REM
REM in /home/nfs/bkarasulu/CARBON/AIRSS/Generating-Clusters/ReaxFF-fromJPCA2015/Units_Real/with-SteepDescent/Only-C1/SD-CG/Try1-3A/FIRE-CG
REM
REM
REM
REM
REM
REM ./C.cell (11c1c37f851c82e70ff6c80c92926a4b)
REM
REM compiler GCC version 9.2.1 20190827 (Red Hat 9.2.1-1)
REM options -cpp -mtune=generic -march=x86-64 -g -O0 -fpre-include=/usr/include/finclude/math-vector-fortran.h
REM seed -1019244122 -360281546 -1116763769 1494875524 997634784 -1486311732 -830702943 203465971 1363322603 1282692076 837571532 1291298016 985738359 1802706437 472959386 -2074917425 -1849227463 -489355863 -1908099449 1101640966 -204828873 58680755 -1380513820 414482140 2113848479 -1265252532 5142769 1399479176 1919507017 1107080247 75472196 1945341254 -148106214
REM
CELL 1.54180   50.00000   50.00000   50.00000   90.00000   90.00000   90.00000
LATT -1
SFAC C  
C      1  0.4380640000000  0.4907230000000  0.5110060000000 1.0
C      1  0.5241510000000  0.4597340000000  0.4693090000000 1.0
C      1  0.5387040000000  0.4782650000000  0.5231510000000 1.0
C      1  0.4131270000000  0.5213970000000  0.5435280000000 1.0
C      1  0.4807900000000  0.4107120000000  0.5123630000000 1.0
C      1  0.4546730000000  0.4606530000000  0.4301790000000 1.0
C      1  0.4102510000000  0.5366420000000  0.4220820000000 1.0
C      1  0.4958890000000  0.4073000000000  0.4850190000000 1.0
C      1  0.4953710000000  0.4429650000000  0.5723940000000 1.0
C      1  0.5565770000000  0.4533180000000  0.5287930000000 1.0
C      1  0.4667130000000  0.4729900000000  0.5157490000000 1.0
C      1  0.5120250000000  0.5849120000000  0.4590020000000 1.0
C      1  0.4231150000000  0.4865940000000  0.4554550000000 1.0
C      1  0.5186220000000  0.5246580000000  0.5226490000000 1.0
C      1  0.5420790000000  0.4317410000000  0.5134130000000 1.0
C      1  0.5144830000000  0.5573680000000  0.5289390000000 1.0
C      1  0.4744660000000  0.4550450000000  0.4662880000000 1.0
C      1  0.4780700000000  0.4974870000000  0.5268440000000 1.0
C      1  0.4379830000000  0.4399420000000  0.5041030000000 1.0
C      1  0.5805910000000  0.5446060000000  0.4990710000000 1.0
C      1  0.4209890000000  0.5460690000000  0.5296610000000 1.0
C      1  0.4772920000000  0.5354500000000  0.5426410000000 1.0
C      1  0.5721980000000  0.4540190000000  0.4487800000000 1.0
C      1  0.5855640000000  0.4947750000000  0.5172470000000 1.0
C      1  0.4683430000000  0.4418180000000  0.5646530000000 1.0
C      1  0.5024020000000  0.4812380000000  0.4248040000000 1.0
C      1  0.5059200000000  0.4722960000000  0.4873440000000 1.0
C      1  0.5819160000000  0.4665550000000  0.5147720000000 1.0
C      1  0.5690270000000  0.5177540000000  0.4439390000000 1.0
C      1  0.5320930000000  0.4865110000000  0.4328910000000 1.0
C      1  0.4639600000000  0.5305630000000  0.5844840000000 1.0
C      1  0.5692650000000  0.5105020000000  0.5349010000000 1.0
C      1  0.5252820000000  0.4127910000000  0.4743460000000 1.0
C      1  0.5186200000000  0.5734530000000  0.4850560000000 1.0
C      1  0.5104280000000  0.5603010000000  0.4418990000000 1.0
C      1  0.5488030000000  0.5341560000000  0.5764530000000 1.0
C      1  0.4519820000000  0.5360630000000  0.5562570000000 1.0
C      1  0.4435040000000  0.4852760000000  0.5747810000000 1.0
C      1  0.5522150000000  0.5106240000000  0.4857830000000 1.0
C      1  0.4369450000000  0.5155660000000  0.4936170000000 1.0
C      1  0.5009180000000  0.5498500000000  0.5540440000000 1.0
C      1  0.5347080000000  0.4866150000000  0.4657900000000 1.0
C      1  0.4343670000000  0.5053780000000  0.5375700000000 1.0
C      1  0.5499230000000  0.4598500000000  0.4296460000000 1.0
C      1  0.4878700000000  0.5967270000000  0.5000640000000 1.0
C      1  0.5499090000000  0.4217630000000  0.4872320000000 1.0
C      1  0.5208460000000  0.5450750000000  0.5760820000000 1.0
C      1  0.5176730000000  0.4803350000000  0.5399010000000 1.0
C      1  0.5029240000000  0.4178700000000  0.5294220000000 1.0
C      1  0.5818970000000  0.5128950000000  0.4907730000000 1.0
C      1  0.5632020000000  0.5101070000000  0.5644600000000 1.0
C      1  0.5008770000000  0.5019130000000  0.5457480000000 1.0
C      1  0.4838500000000  0.5313150000000  0.4907460000000 1.0
C      1  0.4927590000000  0.5006600000000  0.4037280000000 1.0
C      1  0.5431670000000  0.5147450000000  0.4297280000000 1.0
C      1  0.4795970000000  0.5233180000000  0.4179680000000 1.0
C      1  0.5070200000000  0.4675260000000  0.5818550000000 1.0
C      1  0.4700920000000  0.5230940000000  0.5175670000000 1.0
C      1  0.4873490000000  0.5968400000000  0.4712790000000 1.0
C      1  0.5715020000000  0.4373140000000  0.4734910000000 1.0
C      1  0.4873120000000  0.4131390000000  0.4595340000000 1.0
C      1  0.5698170000000  0.5598490000000  0.4765770000000 1.0
C      1  0.5400410000000  0.4429530000000  0.5542740000000 1.0
C      1  0.4426060000000  0.4867430000000  0.4346060000000 1.0
C      1  0.4699360000000  0.5717420000000  0.4701600000000 1.0
C      1  0.5126350000000  0.4980680000000  0.4793400000000 1.0
C      1  0.4255080000000  0.4642620000000  0.4995680000000 1.0
C      1  0.4215460000000  0.4995450000000  0.5610840000000 1.0
C      1  0.5369940000000  0.4629260000000  0.5760780000000 1.0
C      1  0.4466940000000  0.4582620000000  0.5651330000000 1.0
C      1  0.4233410000000  0.5132580000000  0.4682650000000 1.0
C      1  0.5450980000000  0.5719520000000  0.4785820000000 1.0
C      1  0.4363210000000  0.5503040000000  0.4286680000000 1.0
C      1  0.4601320000000  0.5735130000000  0.5208870000000 1.0
C      1  0.5131140000000  0.4384860000000  0.5111460000000 1.0
C      1  0.5448220000000  0.5595020000000  0.5642940000000 1.0
C      1  0.5319130000000  0.5385600000000  0.4423330000000 1.0
C      1  0.5532890000000  0.5342570000000  0.4642690000000 1.0
C      1  0.4856070000000  0.5469050000000  0.5920550000000 1.0
C      1  0.4831120000000  0.4631510000000  0.4383600000000 1.0
C      1  0.5866900000000  0.5027880000000  0.4616730000000 1.0
C      1  0.5636050000000  0.5552780000000  0.5176660000000 1.0
C      1  0.4815700000000  0.5586600000000  0.4411290000000 1.0
C      1  0.4578350000000  0.4488320000000  0.5388590000000 1.0
C      1  0.4249070000000  0.4610830000000  0.4705960000000 1.0
C      1  0.5877220000000  0.4570890000000  0.4879990000000 1.0
C      1  0.4501890000000  0.5656030000000  0.4948590000000 1.0
C      1  0.5145550000000  0.4294460000000  0.5545660000000 1.0
C      1  0.5891500000000  0.4740760000000  0.4623120000000 1.0
C      1  0.5095330000000  0.5197340000000  0.4959410000000 1.0
C      1  0.4936740000000  0.4921760000000  0.5749070000000 1.0
C      1  0.4825010000000  0.4585240000000  0.4940390000000 1.0
C      1  0.5438180000000  0.5648380000000  0.5351960000000 1.0
C      1  0.5126840000000  0.4662750000000  0.5176920000000 1.0
C      1  0.4650640000000  0.5487710000000  0.4201690000000 1.0
C      1  0.4202740000000  0.5369650000000  0.4507010000000 1.0
C      1  0.4721980000000  0.5171200000000  0.4644700000000 1.0
C      1  0.5450460000000  0.5107220000000  0.5164730000000 1.0
C      1  0.4428890000000  0.5600240000000  0.5418660000000 1.0
C      1  0.5341880000000  0.4359910000000  0.4270390000000 1.0
C      1  0.4553460000000  0.4237570000000  0.5186080000000 1.0
C      1  0.4647090000000  0.5075960000000  0.4413420000000 1.0
C      1  0.4898260000000  0.5786020000000  0.5215210000000 1.0
C      1  0.5186520000000  0.4343790000000  0.4548040000000 1.0
C      1  0.4919300000000  0.5594410000000  0.4855440000000 1.0
C      1  0.5510190000000  0.4865300000000  0.5718690000000 1.0
C      1  0.4479500000000  0.4483420000000  0.4564700000000 1.0
C      1  0.4670730000000  0.4999880000000  0.5835520000000 1.0
C      1  0.4326220000000  0.5439690000000  0.5021850000000 1.0
END
