TITL C-4164235-1454-351 12.6549341790099 125000 -23012.7904338233 0 0 154 (C1) n - 1
REM
REM in /home/nfs/bkarasulu/CARBON/AIRSS/Generating-Clusters/ReaxFF-fromJPCA2015/Units_Real/with-SteepDescent/Only-C1/SD-CG/Try1-3A/FIRE-CG
REM
REM
REM
REM
REM
REM ./C.cell (11c1c37f851c82e70ff6c80c92926a4b)
REM
REM compiler GCC version 9.2.1 20190827 (Red Hat 9.2.1-1)
REM options -cpp -mtune=generic -march=x86-64 -g -O0 -fpre-include=/usr/include/finclude/math-vector-fortran.h
REM seed 1509588776 -2066963815 -275046358 -1922170437 -679255061 -757861801 1616392177 1233469304 778862097 -110871264 252790121 738242977 -1401580386 -1630046389 -269158777 1115380021 -163237630 -244588113 1673250391 1855445016 -632061044 -1197718272 -1051389299 2137283574 -881118940 -1731874248 -50702161 -1990461430 522678874 -1089619194 -636585912 -429767015 1821780599
REM
CELL 1.54180   50.00000   50.00000   50.00000   90.00000   90.00000   90.00000
LATT -1
SFAC C  
C      1  0.5918970000000  0.5256880000000  0.4605020000000 1.0
C      1  0.4853390000000  0.4400440000000  0.4608490000000 1.0
C      1  0.4141880000000  0.5197110000000  0.5450780000000 1.0
C      1  0.4161670000000  0.4646020000000  0.4492150000000 1.0
C      1  0.4684620000000  0.4023580000000  0.5301020000000 1.0
C      1  0.4031000000000  0.4938130000000  0.5381580000000 1.0
C      1  0.5191830000000  0.6118220000000  0.5292920000000 1.0
C      1  0.5762130000000  0.5649720000000  0.5274420000000 1.0
C      1  0.5380620000000  0.5301180000000  0.5767880000000 1.0
C      1  0.5380310000000  0.4867910000000  0.5376130000000 1.0
C      1  0.5865440000000  0.4930710000000  0.5479110000000 1.0
C      1  0.5353830000000  0.5962930000000  0.5469610000000 1.0
C      1  0.4520410000000  0.4748910000000  0.4332630000000 1.0
C      1  0.4736930000000  0.5256810000000  0.4656170000000 1.0
C      1  0.5721790000000  0.4774550000000  0.4551530000000 1.0
C      1  0.4148050000000  0.5391350000000  0.4750560000000 1.0
C      1  0.4520190000000  0.4684050000000  0.5103000000000 1.0
C      1  0.5360020000000  0.4339160000000  0.4172600000000 1.0
C      1  0.5368600000000  0.5843360000000  0.4995900000000 1.0
C      1  0.3982900000000  0.4935840000000  0.5088660000000 1.0
C      1  0.5523610000000  0.5854870000000  0.5251280000000 1.0
C      1  0.4785350000000  0.4275820000000  0.4094310000000 1.0
C      1  0.5032530000000  0.4949260000000  0.5025150000000 1.0
C      1  0.5360610000000  0.4624820000000  0.5227530000000 1.0
C      1  0.4067030000000  0.4626310000000  0.4744550000000 1.0
C      1  0.4403450000000  0.5555450000000  0.5775030000000 1.0
C      1  0.5795970000000  0.4723600000000  0.4953670000000 1.0
C      1  0.4905340000000  0.4696730000000  0.5416780000000 1.0
C      1  0.5392000000000  0.5246160000000  0.4148980000000 1.0
C      1  0.4370310000000  0.5469770000000  0.5127740000000 1.0
C      1  0.5524710000000  0.5260510000000  0.5216580000000 1.0
C      1  0.5664250000000  0.5228820000000  0.4269010000000 1.0
C      1  0.4484490000000  0.5569950000000  0.4378470000000 1.0
C      1  0.5624950000000  0.4269890000000  0.5366700000000 1.0
C      1  0.4635500000000  0.4052870000000  0.4552870000000 1.0
C      1  0.5341800000000  0.4229210000000  0.4444820000000 1.0
C      1  0.4847190000000  0.4282980000000  0.5730410000000 1.0
C      1  0.4259100000000  0.5402440000000  0.4478230000000 1.0
C      1  0.4548830000000  0.4332940000000  0.4635260000000 1.0
C      1  0.4717670000000  0.4850130000000  0.4526660000000 1.0
C      1  0.5106450000000  0.4517140000000  0.5102090000000 1.0
C      1  0.5145360000000  0.4384940000000  0.4605470000000 1.0
C      1  0.4650790000000  0.5431730000000  0.4186030000000 1.0
C      1  0.5752150000000  0.4282480000000  0.5086400000000 1.0
C      1  0.4751190000000  0.5090170000000  0.5712720000000 1.0
C      1  0.6000100000000  0.4972540000000  0.4996640000000 1.0
C      1  0.4424580000000  0.5971750000000  0.5155230000000 1.0
C      1  0.5155440000000  0.5251000000000  0.5951230000000 1.0
C      1  0.5623590000000  0.5005930000000  0.5312050000000 1.0
C      1  0.4967440000000  0.5235210000000  0.4477000000000 1.0
C      1  0.5753380000000  0.4714970000000  0.5663480000000 1.0
C      1  0.5071490000000  0.3999870000000  0.4842510000000 1.0
C      1  0.5208310000000  0.5468630000000  0.4234790000000 1.0
C      1  0.5707180000000  0.4507970000000  0.4434420000000 1.0
C      1  0.4808010000000  0.4537270000000  0.5865690000000 1.0
C      1  0.4807060000000  0.4789990000000  0.3921160000000 1.0
C      1  0.5441830000000  0.4819800000000  0.4162570000000 1.0
C      1  0.5330020000000  0.4682670000000  0.5895970000000 1.0
C      1  0.5512660000000  0.5598730000000  0.4811140000000 1.0
C      1  0.5458010000000  0.5103480000000  0.4726600000000 1.0
C      1  0.4263700000000  0.5604270000000  0.4910220000000 1.0
C      1  0.5207940000000  0.5243300000000  0.4656630000000 1.0
C      1  0.5565460000000  0.4552310000000  0.4182560000000 1.0
C      1  0.4903860000000  0.5786280000000  0.4352090000000 1.0
C      1  0.5292310000000  0.5311720000000  0.5464120000000 1.0
C      1  0.4639380000000  0.5403310000000  0.5128870000000 1.0
C      1  0.5937230000000  0.4501570000000  0.5061120000000 1.0
C      1  0.4283070000000  0.5167570000000  0.4306990000000 1.0
C      1  0.4598150000000  0.4984120000000  0.5487190000000 1.0
C      1  0.5573920000000  0.4847610000000  0.5844670000000 1.0
C      1  0.5815950000000  0.5034200000000  0.4439960000000 1.0
C      1  0.5091640000000  0.5165930000000  0.4889160000000 1.0
C      1  0.5782050000000  0.5453230000000  0.4424970000000 1.0
C      1  0.5179450000000  0.5055760000000  0.5434730000000 1.0
C      1  0.5811120000000  0.5451870000000  0.5478080000000 1.0
C      1  0.4604840000000  0.4710580000000  0.5382190000000 1.0
C      1  0.5478290000000  0.4816300000000  0.4700260000000 1.0
C      1  0.5007460000000  0.4705770000000  0.4914810000000 1.0
C      1  0.5127830000000  0.5718170000000  0.5114700000000 1.0
C      1  0.4131870000000  0.4710290000000  0.5537110000000 1.0
C      1  0.4785090000000  0.6030130000000  0.5344450000000 1.0
C      1  0.4598970000000  0.5566270000000  0.5595370000000 1.0
C      1  0.3988570000000  0.4643320000000  0.4997800000000 1.0
C      1  0.5029280000000  0.5566480000000  0.4897970000000 1.0
C      1  0.4901900000000  0.6044150000000  0.4849380000000 1.0
C      1  0.4176960000000  0.4428680000000  0.5105270000000 1.0
C      1  0.4259950000000  0.5058890000000  0.5876750000000 1.0
C      1  0.4654890000000  0.5113210000000  0.5215960000000 1.0
C      1  0.4399060000000  0.5869260000000  0.4891020000000 1.0
C      1  0.4948850000000  0.4984170000000  0.4325510000000 1.0
C      1  0.5042520000000  0.4739480000000  0.5912710000000 1.0
C      1  0.4946920000000  0.5745310000000  0.5826720000000 1.0
C      1  0.6082680000000  0.4821920000000  0.5230530000000 1.0
C      1  0.4789260000000  0.5343130000000  0.5567040000000 1.0
C      1  0.4645130000000  0.5795730000000  0.4485480000000 1.0
C      1  0.5153550000000  0.5878540000000  0.4486510000000 1.0
C      1  0.4490070000000  0.4958080000000  0.5008150000000 1.0
C      1  0.4506970000000  0.5179000000000  0.4114780000000 1.0
C      1  0.5010860000000  0.5702650000000  0.5366020000000 1.0
C      1  0.4793500000000  0.4026720000000  0.4814410000000 1.0
C      1  0.4982450000000  0.4042590000000  0.5297320000000 1.0
C      1  0.5595700000000  0.4271400000000  0.4585060000000 1.0
C      1  0.4248570000000  0.5226820000000  0.5172220000000 1.0
C      1  0.4613860000000  0.4139410000000  0.5039370000000 1.0
C      1  0.4952210000000  0.6145930000000  0.5139310000000 1.0
C      1  0.5569760000000  0.4662940000000  0.5075610000000 1.0
C      1  0.5833580000000  0.5209030000000  0.5621540000000 1.0
C      1  0.4400370000000  0.4490310000000  0.4434970000000 1.0
C      1  0.4252130000000  0.5297350000000  0.5708190000000 1.0
C      1  0.5966180000000  0.5263410000000  0.4900000000000 1.0
C      1  0.4448430000000  0.4391130000000  0.4981020000000 1.0
C      1  0.4358790000000  0.4272600000000  0.5553440000000 1.0
C      1  0.5171830000000  0.4288350000000  0.5624360000000 1.0
C      1  0.5343610000000  0.4007620000000  0.4925940000000 1.0
C      1  0.5592150000000  0.5651100000000  0.4521100000000 1.0
C      1  0.5158170000000  0.5973920000000  0.4757690000000 1.0
C      1  0.5053840000000  0.5506400000000  0.5914730000000 1.0
C      1  0.4962560000000  0.4297580000000  0.5178190000000 1.0
C      1  0.5255850000000  0.4659060000000  0.4599420000000 1.0
C      1  0.4768330000000  0.5437470000000  0.4871720000000 1.0
C      1  0.5105100000000  0.5840910000000  0.5588080000000 1.0
C      1  0.4629850000000  0.4162840000000  0.5569240000000 1.0
C      1  0.4834560000000  0.4664940000000  0.4712570000000 1.0
C      1  0.5285960000000  0.5011850000000  0.4008090000000 1.0
C      1  0.4989830000000  0.4991620000000  0.4023240000000 1.0
C      1  0.4316250000000  0.4925610000000  0.4471330000000 1.0
C      1  0.5383020000000  0.4130300000000  0.5405450000000 1.0
C      1  0.4924700000000  0.5548620000000  0.4188060000000 1.0
C      1  0.4966060000000  0.5011590000000  0.5894170000000 1.0
C      1  0.4642720000000  0.5716020000000  0.5813530000000 1.0
C      1  0.4064810000000  0.5176460000000  0.4945470000000 1.0
C      1  0.4961770000000  0.4973730000000  0.5285810000000 1.0
C      1  0.5027570000000  0.5426660000000  0.5430180000000 1.0
C      1  0.4578430000000  0.4903380000000  0.4051920000000 1.0
C      1  0.5644530000000  0.4450800000000  0.5604130000000 1.0
C      1  0.4644690000000  0.5929380000000  0.4741920000000 1.0
C      1  0.4710170000000  0.4141320000000  0.4299810000000 1.0
C      1  0.5352580000000  0.5695360000000  0.4366710000000 1.0
C      1  0.4283260000000  0.4769310000000  0.5789650000000 1.0
C      1  0.5582330000000  0.4183390000000  0.4861140000000 1.0
C      1  0.5615230000000  0.5138990000000  0.5809220000000 1.0
C      1  0.5523730000000  0.5301150000000  0.4931830000000 1.0
C      1  0.5191590000000  0.4751210000000  0.4324270000000 1.0
C      1  0.5123450000000  0.4501350000000  0.4124660000000 1.0
C      1  0.5247770000000  0.5500090000000  0.4729860000000 1.0
C      1  0.4175270000000  0.4451410000000  0.5405240000000 1.0
C      1  0.5083720000000  0.4537140000000  0.5522640000000 1.0
C      1  0.5266760000000  0.3958390000000  0.5207470000000 1.0
C      1  0.4892280000000  0.4496130000000  0.3952880000000 1.0
C      1  0.4546810000000  0.5030380000000  0.4706220000000 1.0
C      1  0.4539120000000  0.4641800000000  0.5850380000000 1.0
C      1  0.5879870000000  0.5476270000000  0.5071840000000 1.0
C      1  0.4510350000000  0.6041540000000  0.5360770000000 1.0
C      1  0.5402670000000  0.4430690000000  0.5771320000000 1.0
END
