TITL C-4164236-1577-656 -2.27978292675685 125000 -5209.35685163361 0 0 36 (C1) n - 1
REM
REM in /home/nfs/bkarasulu/CARBON/AIRSS/Generating-Clusters/ReaxFF-fromJPCA2015/Units_Real/with-SteepDescent/Only-C1/SD-CG/Try1-3A/FIRE-CG
REM
REM
REM
REM
REM
REM ./C.cell (11c1c37f851c82e70ff6c80c92926a4b)
REM
REM compiler GCC version 9.2.1 20190827 (Red Hat 9.2.1-1)
REM options -cpp -mtune=generic -march=x86-64 -g -O0 -fpre-include=/usr/include/finclude/math-vector-fortran.h
REM seed 64782284 -152513202 2066462534 -959994862 1614899834 1424272313 1027249364 -1111738496 -1774511261 150844696 264688518 1299291891 1481636783 556935098 -1830372687 2135708620 -998704968 1431299384 -1177303980 -934749795 1491140477 769737006 920429078 -1904097266 -1885176805 -2077094377 1074562154 -999253065 1719881901 1340945221 -1161058099 -44445560 1042262873
REM
CELL 1.54180   50.00000   50.00000   50.00000   90.00000   90.00000   90.00000
LATT -1
SFAC C  
C      1  0.5017570000000  0.4949750000000  0.5560800000000 1.0
C      1  0.5179180000000  0.4744380000000  0.4888400000000 1.0
C      1  0.4524130000000  0.5320650000000  0.5255260000000 1.0
C      1  0.4787900000000  0.5215370000000  0.4638660000000 1.0
C      1  0.5265920000000  0.5466550000000  0.4787410000000 1.0
C      1  0.4603580000000  0.4752620000000  0.5294090000000 1.0
C      1  0.4853030000000  0.5485640000000  0.4979710000000 1.0
C      1  0.4579610000000  0.5076150000000  0.4777440000000 1.0
C      1  0.5448220000000  0.5384780000000  0.4590480000000 1.0
C      1  0.4957530000000  0.5446670000000  0.4745020000000 1.0
C      1  0.4441680000000  0.5131360000000  0.5041470000000 1.0
C      1  0.4657750000000  0.5204390000000  0.5487940000000 1.0
C      1  0.5046060000000  0.4736570000000  0.5693030000000 1.0
C      1  0.4742830000000  0.5526220000000  0.5226740000000 1.0
C      1  0.5367200000000  0.5243640000000  0.5285090000000 1.0
C      1  0.4639280000000  0.4548480000000  0.4818810000000 1.0
C      1  0.4854810000000  0.4368400000000  0.4749890000000 1.0
C      1  0.4718410000000  0.4915690000000  0.5512210000000 1.0
C      1  0.4859660000000  0.5031760000000  0.4414740000000 1.0
C      1  0.4554060000000  0.4808530000000  0.4652140000000 1.0
C      1  0.5632470000000  0.5201000000000  0.4460870000000 1.0
C      1  0.5239390000000  0.4403910000000  0.5240460000000 1.0
C      1  0.5021200000000  0.4516720000000  0.4996300000000 1.0
C      1  0.5336580000000  0.4799250000000  0.5125760000000 1.0
C      1  0.4353930000000  0.4881640000000  0.5176430000000 1.0
C      1  0.5137860000000  0.5237350000000  0.5455220000000 1.0
C      1  0.5396870000000  0.4610370000000  0.5299690000000 1.0
C      1  0.4629100000000  0.4823520000000  0.4370730000000 1.0
C      1  0.5559810000000  0.4994760000000  0.4686330000000 1.0
C      1  0.4892180000000  0.5384600000000  0.5458340000000 1.0
C      1  0.5306760000000  0.4840390000000  0.4647900000000 1.0
C      1  0.5129340000000  0.4914980000000  0.4417930000000 1.0
C      1  0.5419010000000  0.5344700000000  0.5006520000000 1.0
C      1  0.4739520000000  0.4585430000000  0.5095730000000 1.0
C      1  0.5594220000000  0.5113830000000  0.4952730000000 1.0
C      1  0.5513350000000  0.4989960000000  0.5209730000000 1.0
END
