TITL C-4164232-771-185 4.69439555935249 125000 -8344.512505679 0 0 57 (C1) n - 1
REM
REM in /home/nfs/bkarasulu/CARBON/AIRSS/Generating-Clusters/ReaxFF-fromJPCA2015/Units_Real/with-SteepDescent/Only-C1/SD-CG/Try1-3A/FIRE-CG
REM
REM
REM
REM
REM
REM ./C.cell (11c1c37f851c82e70ff6c80c92926a4b)
REM
REM compiler GCC version 9.2.1 20190827 (Red Hat 9.2.1-1)
REM options -cpp -mtune=generic -march=x86-64 -g -O0 -fpre-include=/usr/include/finclude/math-vector-fortran.h
REM seed -1277476201 1072450378 -401440730 -276373635 621614664 -621168265 886311761 1442764074 -510453567 -2016459914 -1966872689 -1104849467 1338045113 -269608313 2095081446 2051501275 -1896022937 2093622723 -13905789 1388111955 -1863778046 691032205 -598336556 1845239124 1167291758 246044708 1934858971 1466866186 -2055711429 401814718 991842325 1003768279 782047906
REM
CELL 1.54180   50.00000   50.00000   50.00000   90.00000   90.00000   90.00000
LATT -1
SFAC C  
C      1  0.4437110000000  0.5493460000000  0.5124470000000 1.0
C      1  0.4779190000000  0.4817000000000  0.5637480000000 1.0
C      1  0.5179010000000  0.5060310000000  0.5156750000000 1.0
C      1  0.5541060000000  0.5064970000000  0.4448820000000 1.0
C      1  0.4997920000000  0.5491630000000  0.4971840000000 1.0
C      1  0.5428090000000  0.4869750000000  0.5000200000000 1.0
C      1  0.5020780000000  0.5210540000000  0.4977570000000 1.0
C      1  0.4595210000000  0.4490480000000  0.5060430000000 1.0
C      1  0.5221810000000  0.5634120000000  0.5098680000000 1.0
C      1  0.5539780000000  0.5360760000000  0.5070800000000 1.0
C      1  0.4965180000000  0.5467140000000  0.4570160000000 1.0
C      1  0.5598310000000  0.4948830000000  0.4708330000000 1.0
C      1  0.4833370000000  0.5105660000000  0.5659870000000 1.0
C      1  0.4493390000000  0.4733430000000  0.5193920000000 1.0
C      1  0.5139760000000  0.4679880000000  0.4503300000000 1.0
C      1  0.5395410000000  0.5111190000000  0.5701250000000 1.0
C      1  0.5390850000000  0.5507240000000  0.4884390000000 1.0
C      1  0.5015340000000  0.4136340000000  0.4879190000000 1.0
C      1  0.4748940000000  0.4313390000000  0.5241400000000 1.0
C      1  0.5126700000000  0.5176810000000  0.5664430000000 1.0
C      1  0.4555040000000  0.4831820000000  0.4382070000000 1.0
C      1  0.4691330000000  0.5284770000000  0.5470570000000 1.0
C      1  0.5109660000000  0.5536400000000  0.5353510000000 1.0
C      1  0.4831580000000  0.5631660000000  0.4773840000000 1.0
C      1  0.4765740000000  0.5264080000000  0.4473740000000 1.0
C      1  0.5070600000000  0.4888060000000  0.4327670000000 1.0
C      1  0.5244540000000  0.5434430000000  0.4625520000000 1.0
C      1  0.4815880000000  0.5539930000000  0.5401090000000 1.0
C      1  0.5238490000000  0.4435090000000  0.5185450000000 1.0
C      1  0.5348190000000  0.4587130000000  0.4964400000000 1.0
C      1  0.5155860000000  0.4626950000000  0.5385000000000 1.0
C      1  0.4742300000000  0.4533460000000  0.4793350000000 1.0
C      1  0.5239720000000  0.4506060000000  0.4690060000000 1.0
C      1  0.4710740000000  0.4843420000000  0.5354550000000 1.0
C      1  0.4360260000000  0.4902420000000  0.4583070000000 1.0
C      1  0.4989910000000  0.4340830000000  0.4692030000000 1.0
C      1  0.4816700000000  0.4420880000000  0.5495220000000 1.0
C      1  0.4483220000000  0.5236260000000  0.5260640000000 1.0
C      1  0.5857140000000  0.4936980000000  0.4845780000000 1.0
C      1  0.5193810000000  0.5257130000000  0.5387140000000 1.0
C      1  0.4362200000000  0.5066110000000  0.4812320000000 1.0
C      1  0.5697390000000  0.4936250000000  0.5112130000000 1.0
C      1  0.4613720000000  0.5194740000000  0.4718900000000 1.0
C      1  0.4574330000000  0.4570820000000  0.4516870000000 1.0
C      1  0.5381200000000  0.5294550000000  0.4424940000000 1.0
C      1  0.4797140000000  0.5013010000000  0.4338580000000 1.0
C      1  0.5682630000000  0.5198820000000  0.5258550000000 1.0
C      1  0.4991700000000  0.4818990000000  0.5200540000000 1.0
C      1  0.4840290000000  0.5045870000000  0.4845800000000 1.0
C      1  0.4877230000000  0.4772710000000  0.4920030000000 1.0
C      1  0.5306260000000  0.5067330000000  0.4287910000000 1.0
C      1  0.4588240000000  0.5663460000000  0.4932810000000 1.0
C      1  0.4399440000000  0.5000530000000  0.5108520000000 1.0
C      1  0.5575930000000  0.5140920000000  0.5526670000000 1.0
C      1  0.4988420000000  0.4597170000000  0.5628000000000 1.0
C      1  0.5026550000000  0.4221440000000  0.5145040000000 1.0
C      1  0.4629420000000  0.5686590000000  0.5224410000000 1.0
END
