TITL C-4164242-3624-491 -6.77503174184244 125000 -16161.026962954 0 0 110 (C1) n - 1
REM
REM in /home/nfs/bkarasulu/CARBON/AIRSS/Generating-Clusters/ReaxFF-fromJPCA2015/Units_Real/with-SteepDescent/Only-C1/SD-CG/Try1-3A/FIRE-CG
REM
REM
REM
REM
REM
REM ./C.cell (11c1c37f851c82e70ff6c80c92926a4b)
REM
REM compiler GCC version 9.2.1 20190827 (Red Hat 9.2.1-1)
REM options -cpp -mtune=generic -march=x86-64 -g -O0 -fpre-include=/usr/include/finclude/math-vector-fortran.h
REM seed -38418669 575668591 -1292938911 -869992112 1439270857 1902771938 -1947574261 236904164 -1508095278 -1146591363 527108464 -547045352 1483284474 -962807866 -1418426785 -1725575660 -867172428 -56988870 886979796 -1950879375 1688551806 1154620486 1117540838 1765490918 -1326351785 -1659286762 1524983327 -1999255925 1854318063 448854215 2125466849 981392510 658051201
REM
CELL 1.54180   50.00000   50.00000   50.00000   90.00000   90.00000   90.00000
LATT -1
SFAC C  
C      1  0.5477640000000  0.5413060000000  0.4286860000000 1.0
C      1  0.4506830000000  0.5600600000000  0.5045340000000 1.0
C      1  0.4178740000000  0.4997100000000  0.5424400000000 1.0
C      1  0.5323800000000  0.4655660000000  0.4793790000000 1.0
C      1  0.4714900000000  0.3997950000000  0.4617750000000 1.0
C      1  0.5467640000000  0.5196000000000  0.5234510000000 1.0
C      1  0.5081970000000  0.5156120000000  0.5896330000000 1.0
C      1  0.4878600000000  0.4685710000000  0.5300560000000 1.0
C      1  0.5001290000000  0.3992910000000  0.4642210000000 1.0
C      1  0.3961610000000  0.4983070000000  0.5568210000000 1.0
C      1  0.5141660000000  0.5122480000000  0.4644580000000 1.0
C      1  0.5233910000000  0.4987960000000  0.4341620000000 1.0
C      1  0.5656360000000  0.5354670000000  0.5048410000000 1.0
C      1  0.4273660000000  0.4808150000000  0.5208350000000 1.0
C      1  0.4779550000000  0.5539530000000  0.4317960000000 1.0
C      1  0.5067770000000  0.4365160000000  0.4312890000000 1.0
C      1  0.5429510000000  0.4607710000000  0.4544250000000 1.0
C      1  0.4155990000000  0.4941980000000  0.4673980000000 1.0
C      1  0.5080020000000  0.5877490000000  0.4709920000000 1.0
C      1  0.5934340000000  0.5238230000000  0.5076740000000 1.0
C      1  0.5900360000000  0.5170350000000  0.4576050000000 1.0
C      1  0.5067850000000  0.5517510000000  0.4998800000000 1.0
C      1  0.5685640000000  0.4683270000000  0.4547150000000 1.0
C      1  0.4691270000000  0.4742430000000  0.5536340000000 1.0
C      1  0.5693770000000  0.4458920000000  0.5049790000000 1.0
C      1  0.5138820000000  0.5562980000000  0.5606910000000 1.0
C      1  0.4821850000000  0.4123790000000  0.5310310000000 1.0
C      1  0.4223650000000  0.4674240000000  0.4742860000000 1.0
C      1  0.5042480000000  0.4451250000000  0.5659460000000 1.0
C      1  0.5111610000000  0.4469740000000  0.4816110000000 1.0
C      1  0.5347830000000  0.4019860000000  0.5179490000000 1.0
C      1  0.5478830000000  0.4812320000000  0.4377950000000 1.0
C      1  0.4067150000000  0.5257890000000  0.4922190000000 1.0
C      1  0.5372950000000  0.5625350000000  0.4427710000000 1.0
C      1  0.4605550000000  0.5814520000000  0.4576940000000 1.0
C      1  0.5905120000000  0.5090600000000  0.5321060000000 1.0
C      1  0.4598340000000  0.4484050000000  0.4428680000000 1.0
C      1  0.4579400000000  0.5210520000000  0.5691830000000 1.0
C      1  0.4834920000000  0.3932860000000  0.4873630000000 1.0
C      1  0.5480900000000  0.5750160000000  0.4710230000000 1.0
C      1  0.4644220000000  0.5137880000000  0.4502720000000 1.0
C      1  0.4798130000000  0.5088310000000  0.4255780000000 1.0
C      1  0.4647700000000  0.4976640000000  0.4736050000000 1.0
C      1  0.5126570000000  0.5646810000000  0.4547700000000 1.0
C      1  0.4560260000000  0.4245430000000  0.4605900000000 1.0
C      1  0.4710070000000  0.5833610000000  0.5369800000000 1.0
C      1  0.4948790000000  0.5336390000000  0.4198410000000 1.0
C      1  0.4792470000000  0.4331700000000  0.5525470000000 1.0
C      1  0.4965240000000  0.4852530000000  0.4254100000000 1.0
C      1  0.5119130000000  0.4246640000000  0.4575790000000 1.0
C      1  0.5347670000000  0.5654420000000  0.5415410000000 1.0
C      1  0.5235650000000  0.5277850000000  0.4243560000000 1.0
C      1  0.5230130000000  0.5715250000000  0.5130990000000 1.0
C      1  0.5380690000000  0.4890940000000  0.4961790000000 1.0
C      1  0.4323820000000  0.5508360000000  0.5285130000000 1.0
C      1  0.5594630000000  0.5516810000000  0.5468940000000 1.0
C      1  0.5419000000000  0.4785070000000  0.5706080000000 1.0
C      1  0.4340200000000  0.4532980000000  0.5269740000000 1.0
C      1  0.5111440000000  0.5054210000000  0.5391130000000 1.0
C      1  0.5210350000000  0.4387680000000  0.5071230000000 1.0
C      1  0.5914440000000  0.4815890000000  0.5237350000000 1.0
C      1  0.5294510000000  0.5884990000000  0.4905990000000 1.0
C      1  0.4688370000000  0.5814060000000  0.5072910000000 1.0
C      1  0.5472560000000  0.4264790000000  0.5043720000000 1.0
C      1  0.5618600000000  0.5162980000000  0.4611500000000 1.0
C      1  0.5789170000000  0.4621700000000  0.4818300000000 1.0
C      1  0.4705300000000  0.4948330000000  0.5747910000000 1.0
C      1  0.4959680000000  0.4911740000000  0.5884100000000 1.0
C      1  0.5585420000000  0.5553240000000  0.4874220000000 1.0
C      1  0.4154440000000  0.5202970000000  0.4522340000000 1.0
C      1  0.4906970000000  0.5342510000000  0.5121010000000 1.0
C      1  0.4500410000000  0.4264890000000  0.4895600000000 1.0
C      1  0.5058090000000  0.4007170000000  0.5207700000000 1.0
C      1  0.5714980000000  0.5290430000000  0.4382350000000 1.0
C      1  0.5040610000000  0.5416170000000  0.4690950000000 1.0
C      1  0.4042770000000  0.5412810000000  0.5151450000000 1.0
C      1  0.5284160000000  0.4438330000000  0.5496440000000 1.0
C      1  0.5390380000000  0.5108740000000  0.4767170000000 1.0
C      1  0.4929120000000  0.4938040000000  0.4741150000000 1.0
C      1  0.4873940000000  0.5151720000000  0.5264620000000 1.0
C      1  0.4788050000000  0.5887870000000  0.4787030000000 1.0
C      1  0.4518130000000  0.5470910000000  0.4799530000000 1.0
C      1  0.5155190000000  0.4586710000000  0.5275130000000 1.0
C      1  0.5330820000000  0.5257090000000  0.5816380000000 1.0
C      1  0.5538700000000  0.4582940000000  0.5532420000000 1.0
C      1  0.4871580000000  0.5671310000000  0.5587830000000 1.0
C      1  0.5134870000000  0.4697900000000  0.5785700000000 1.0
C      1  0.4322640000000  0.4464370000000  0.4988160000000 1.0
C      1  0.4899990000000  0.4672480000000  0.4834740000000 1.0
C      1  0.4861500000000  0.4588110000000  0.4299460000000 1.0
C      1  0.4290140000000  0.5312650000000  0.4770750000000 1.0
C      1  0.5514820000000  0.5055380000000  0.5716740000000 1.0
C      1  0.4684390000000  0.4090840000000  0.5055040000000 1.0
C      1  0.5960430000000  0.4815820000000  0.4941150000000 1.0
C      1  0.5088570000000  0.5255630000000  0.5631290000000 1.0
C      1  0.5728030000000  0.4598560000000  0.5305460000000 1.0
C      1  0.4301620000000  0.5414500000000  0.4375040000000 1.0
C      1  0.5660420000000  0.5204110000000  0.5484780000000 1.0
C      1  0.4596540000000  0.5118200000000  0.5241610000000 1.0
C      1  0.4396810000000  0.4629550000000  0.4540280000000 1.0
C      1  0.4419070000000  0.5226310000000  0.5435110000000 1.0
C      1  0.4428100000000  0.5769420000000  0.5421570000000 1.0
C      1  0.4706970000000  0.5473940000000  0.5733800000000 1.0
C      1  0.4519260000000  0.4919800000000  0.5053550000000 1.0
C      1  0.4550160000000  0.4489460000000  0.5492290000000 1.0
C      1  0.4737810000000  0.5412970000000  0.4606800000000 1.0
C      1  0.4499480000000  0.5627620000000  0.4354940000000 1.0
C      1  0.6003500000000  0.5086560000000  0.4836590000000 1.0
C      1  0.5326430000000  0.4954230000000  0.5239250000000 1.0
C      1  0.4741790000000  0.4719610000000  0.5062900000000 1.0
END
