TITL C-4164233-775-636 -5.12010313855555 125000 -11203.4569823327 0 0 76 (C1) n - 1
REM
REM in /home/nfs/bkarasulu/CARBON/AIRSS/Generating-Clusters/ReaxFF-fromJPCA2015/Units_Real/with-SteepDescent/Only-C1/SD-CG/Try1-3A/FIRE-CG
REM
REM
REM
REM
REM
REM ./C.cell (11c1c37f851c82e70ff6c80c92926a4b)
REM
REM compiler GCC version 9.2.1 20190827 (Red Hat 9.2.1-1)
REM options -cpp -mtune=generic -march=x86-64 -g -O0 -fpre-include=/usr/include/finclude/math-vector-fortran.h
REM seed -1047716695 137471377 -1881279926 278538776 -1917130070 885427117 -1370980945 -168242462 1481998910 -1785252650 1045304568 540098746 -1618250387 -1443838761 8879652 -673989557 2031911251 -876762835 1256294170 1263312354 -7668108 1998152734 -160672735 -1851097223 403575207 -919582755 722780974 1361101550 1819496472 729985049 59630301 1044552734 918188469
REM
CELL 1.54180   50.00000   50.00000   50.00000   90.00000   90.00000   90.00000
LATT -1
SFAC C  
C      1  0.5492330000000  0.5204670000000  0.4432170000000 1.0
C      1  0.4588820000000  0.5900180000000  0.4768770000000 1.0
C      1  0.5855940000000  0.5143060000000  0.4900650000000 1.0
C      1  0.4395010000000  0.4507450000000  0.5071100000000 1.0
C      1  0.5471810000000  0.4559950000000  0.4982200000000 1.0
C      1  0.4727240000000  0.4665680000000  0.5744440000000 1.0
C      1  0.4696840000000  0.5265360000000  0.5371220000000 1.0
C      1  0.4842500000000  0.5539080000000  0.5464050000000 1.0
C      1  0.4641970000000  0.4277850000000  0.4694250000000 1.0
C      1  0.4639170000000  0.5009000000000  0.4792570000000 1.0
C      1  0.5333230000000  0.5270950000000  0.4918520000000 1.0
C      1  0.5365710000000  0.4359450000000  0.4640680000000 1.0
C      1  0.4952170000000  0.5140410000000  0.5170000000000 1.0
C      1  0.5086270000000  0.5508610000000  0.5582930000000 1.0
C      1  0.4977420000000  0.4216990000000  0.5258320000000 1.0
C      1  0.5587730000000  0.5346080000000  0.5593670000000 1.0
C      1  0.4552900000000  0.4475810000000  0.5320860000000 1.0
C      1  0.5008630000000  0.4999890000000  0.4218560000000 1.0
C      1  0.4436930000000  0.4459990000000  0.4775810000000 1.0
C      1  0.5227480000000  0.5748450000000  0.4889640000000 1.0
C      1  0.5183720000000  0.4838930000000  0.4841740000000 1.0
C      1  0.4747750000000  0.5317700000000  0.4432190000000 1.0
C      1  0.4561920000000  0.4805910000000  0.4399400000000 1.0
C      1  0.5327180000000  0.5478650000000  0.5700490000000 1.0
C      1  0.4991320000000  0.4648210000000  0.5602090000000 1.0
C      1  0.5073470000000  0.4819490000000  0.5119940000000 1.0
C      1  0.5326070000000  0.4702620000000  0.5636210000000 1.0
C      1  0.4814330000000  0.5696540000000  0.5218070000000 1.0
C      1  0.5293310000000  0.5035280000000  0.4311380000000 1.0
C      1  0.4379270000000  0.4898070000000  0.5504450000000 1.0
C      1  0.4252970000000  0.5197910000000  0.5117160000000 1.0
C      1  0.4228250000000  0.4944070000000  0.5260880000000 1.0
C      1  0.4764680000000  0.4613720000000  0.4484550000000 1.0
C      1  0.4495330000000  0.4629900000000  0.5559970000000 1.0
C      1  0.5262350000000  0.4958000000000  0.5750960000000 1.0
C      1  0.5001520000000  0.4940390000000  0.5638910000000 1.0
C      1  0.4517890000000  0.5657650000000  0.4771390000000 1.0
C      1  0.5735900000000  0.5624060000000  0.4964520000000 1.0
C      1  0.4473010000000  0.5375030000000  0.5200190000000 1.0
C      1  0.5706130000000  0.5233640000000  0.5351990000000 1.0
C      1  0.5434950000000  0.5476620000000  0.4510530000000 1.0
C      1  0.5199870000000  0.5468470000000  0.4706710000000 1.0
C      1  0.4182200000000  0.4837970000000  0.4789480000000 1.0
C      1  0.5247460000000  0.4555040000000  0.4795860000000 1.0
C      1  0.5170930000000  0.5332480000000  0.5142900000000 1.0
C      1  0.4913070000000  0.4203710000000  0.4705170000000 1.0
C      1  0.4189700000000  0.5128210000000  0.4838350000000 1.0
C      1  0.5422550000000  0.5202190000000  0.5776260000000 1.0
C      1  0.4913820000000  0.5358670000000  0.4673950000000 1.0
C      1  0.5330530000000  0.4659280000000  0.5218620000000 1.0
C      1  0.4756750000000  0.4956400000000  0.5763220000000 1.0
C      1  0.5751850000000  0.5120120000000  0.4592420000000 1.0
C      1  0.4567930000000  0.5620730000000  0.5082280000000 1.0
C      1  0.5092950000000  0.5637310000000  0.5117830000000 1.0
C      1  0.5125620000000  0.4299710000000  0.4502570000000 1.0
C      1  0.4508950000000  0.5424040000000  0.4555740000000 1.0
C      1  0.5827200000000  0.4904320000000  0.5068200000000 1.0
C      1  0.4874200000000  0.4621330000000  0.4998870000000 1.0
C      1  0.5794050000000  0.5350510000000  0.5090050000000 1.0
C      1  0.5412190000000  0.5007350000000  0.4826020000000 1.0
C      1  0.4576200000000  0.5093760000000  0.5585670000000 1.0
C      1  0.5727090000000  0.4945090000000  0.5339080000000 1.0
C      1  0.4365610000000  0.4700840000000  0.4604250000000 1.0
C      1  0.5516880000000  0.4743520000000  0.5422290000000 1.0
C      1  0.4837440000000  0.4434450000000  0.5400490000000 1.0
C      1  0.5941730000000  0.4969630000000  0.4530800000000 1.0
C      1  0.4738570000000  0.5037630000000  0.4325620000000 1.0
C      1  0.4944450000000  0.4332210000000  0.4974010000000 1.0
C      1  0.5028170000000  0.4545860000000  0.4366450000000 1.0
C      1  0.4414480000000  0.5167500000000  0.4653910000000 1.0
C      1  0.4209700000000  0.4725460000000  0.5064520000000 1.0
C      1  0.5613900000000  0.4803770000000  0.4897610000000 1.0
C      1  0.4831000000000  0.5197960000000  0.4899380000000 1.0
C      1  0.5178260000000  0.4764230000000  0.4247440000000 1.0
C      1  0.5587690000000  0.5614980000000  0.4712490000000 1.0
C      1  0.4755590000000  0.4743940000000  0.4764070000000 1.0
END
