TITL C-4164239-2837-21 73.5568295181122 125000 -26579.2314561447 0 0 181 (C1) n - 1
REM
REM in /home/nfs/bkarasulu/CARBON/AIRSS/Generating-Clusters/ReaxFF-fromJPCA2015/Units_Real/with-SteepDescent/Only-C1/SD-CG/Try1-3A/FIRE-CG
REM
REM
REM
REM
REM
REM ./C.cell (11c1c37f851c82e70ff6c80c92926a4b)
REM
REM compiler GCC version 9.2.1 20190827 (Red Hat 9.2.1-1)
REM options -cpp -mtune=generic -march=x86-64 -g -O0 -fpre-include=/usr/include/finclude/math-vector-fortran.h
REM seed -774547551 -2110980488 463866258 20113741 -853191734 1571736207 506948835 -311189267 -933145716 -340786386 649545374 -722395347 67499458 -403793392 -110980159 -1770532933 550467435 -505061849 756108947 -276091610 -339899208 -548492566 1759693135 -546250128 462865788 338972534 326554333 453843384 -1472902702 1439755515 -1623967372 -1134372103 689124316
REM
CELL 1.54180   50.00000   50.00000   50.00000   90.00000   90.00000   90.00000
LATT -1
SFAC C  
C      1  0.5589790000000  0.5408600000000  0.5046570000000 1.0
C      1  0.5044770000000  0.4204150000000  0.4417930000000 1.0
C      1  0.5562720000000  0.4010960000000  0.4753540000000 1.0
C      1  0.5163390000000  0.4428370000000  0.5913690000000 1.0
C      1  0.4198750000000  0.4591470000000  0.4299050000000 1.0
C      1  0.5445900000000  0.5810660000000  0.4397450000000 1.0
C      1  0.5581090000000  0.4753150000000  0.5828710000000 1.0
C      1  0.4420920000000  0.4097300000000  0.4602620000000 1.0
C      1  0.4773480000000  0.3849860000000  0.4894260000000 1.0
C      1  0.4868040000000  0.4568890000000  0.5220150000000 1.0
C      1  0.5386640000000  0.5636900000000  0.5711820000000 1.0
C      1  0.4182280000000  0.4871980000000  0.5853630000000 1.0
C      1  0.5633390000000  0.5358520000000  0.4200210000000 1.0
C      1  0.4728930000000  0.5669010000000  0.4076990000000 1.0
C      1  0.5686650000000  0.5846140000000  0.5533720000000 1.0
C      1  0.5124460000000  0.6074720000000  0.5107300000000 1.0
C      1  0.5377880000000  0.4164500000000  0.5130590000000 1.0
C      1  0.5414000000000  0.4337510000000  0.5768450000000 1.0
C      1  0.4968760000000  0.4735750000000  0.5003370000000 1.0
C      1  0.5098810000000  0.5264000000000  0.5900300000000 1.0
C      1  0.5683490000000  0.4505580000000  0.4375660000000 1.0
C      1  0.4366810000000  0.5264090000000  0.4980350000000 1.0
C      1  0.6139110000000  0.4710370000000  0.5110460000000 1.0
C      1  0.6090580000000  0.4752690000000  0.4573380000000 1.0
C      1  0.4043880000000  0.5585600000000  0.5124920000000 1.0
C      1  0.4514670000000  0.4208090000000  0.4335770000000 1.0
C      1  0.4159810000000  0.4665010000000  0.4608710000000 1.0
C      1  0.5566150000000  0.5958940000000  0.4624040000000 1.0
C      1  0.4421210000000  0.4438770000000  0.4193560000000 1.0
C      1  0.5168250000000  0.4651990000000  0.4581100000000 1.0
C      1  0.5472760000000  0.5428020000000  0.5310400000000 1.0
C      1  0.4415310000000  0.4839760000000  0.6023570000000 1.0
C      1  0.6082640000000  0.4603280000000  0.4835370000000 1.0
C      1  0.4922030000000  0.4958190000000  0.5424050000000 1.0
C      1  0.4577400000000  0.5640360000000  0.4549930000000 1.0
C      1  0.5377390000000  0.4861870000000  0.3972350000000 1.0
C      1  0.4095550000000  0.5467340000000  0.4735450000000 1.0
C      1  0.4945380000000  0.4090730000000  0.5280550000000 1.0
C      1  0.5774690000000  0.4429830000000  0.5434770000000 1.0
C      1  0.5505990000000  0.4953760000000  0.4466570000000 1.0
C      1  0.5883200000000  0.5140780000000  0.5476730000000 1.0
C      1  0.4723180000000  0.5147620000000  0.5483010000000 1.0
C      1  0.5654210000000  0.4489970000000  0.5701170000000 1.0
C      1  0.4827270000000  0.4664160000000  0.4286240000000 1.0
C      1  0.4631660000000  0.5175980000000  0.4098450000000 1.0
C      1  0.4970480000000  0.5792080000000  0.4634130000000 1.0
C      1  0.4999620000000  0.4191360000000  0.5524700000000 1.0
C      1  0.4064800000000  0.5725790000000  0.4881350000000 1.0
C      1  0.4199370000000  0.5038350000000  0.5362380000000 1.0
C      1  0.4892750000000  0.6086760000000  0.4622130000000 1.0
C      1  0.5170600000000  0.3959150000000  0.5177550000000 1.0
C      1  0.5731590000000  0.5800010000000  0.5273480000000 1.0
C      1  0.4567510000000  0.4477770000000  0.5701370000000 1.0
C      1  0.5615870000000  0.4882360000000  0.4893710000000 1.0
C      1  0.4670690000000  0.3942390000000  0.4631800000000 1.0
C      1  0.4908420000000  0.5553020000000  0.4469150000000 1.0
C      1  0.3961850000000  0.4941210000000  0.4960430000000 1.0
C      1  0.5584310000000  0.5044720000000  0.5870470000000 1.0
C      1  0.4286080000000  0.4395830000000  0.5630710000000 1.0
C      1  0.5993960000000  0.5311680000000  0.4674850000000 1.0
C      1  0.5171080000000  0.6068310000000  0.5610540000000 1.0
C      1  0.4539430000000  0.4622930000000  0.5158880000000 1.0
C      1  0.4363400000000  0.5454520000000  0.4629430000000 1.0
C      1  0.5133200000000  0.4141310000000  0.4698720000000 1.0
C      1  0.5372250000000  0.4543480000000  0.4765500000000 1.0
C      1  0.5074560000000  0.3812740000000  0.4946070000000 1.0
C      1  0.3871580000000  0.4677120000000  0.5091660000000 1.0
C      1  0.4935150000000  0.4627520000000  0.4740460000000 1.0
C      1  0.5853370000000  0.5555900000000  0.4603670000000 1.0
C      1  0.5112120000000  0.6175130000000  0.4826970000000 1.0
C      1  0.4483030000000  0.4997920000000  0.5460870000000 1.0
C      1  0.5284520000000  0.3892570000000  0.4751560000000 1.0
C      1  0.5099060000000  0.4858170000000  0.3880190000000 1.0
C      1  0.4904620000000  0.4679330000000  0.5487920000000 1.0
C      1  0.4547180000000  0.5119140000000  0.4389660000000 1.0
C      1  0.5220350000000  0.5826530000000  0.5231920000000 1.0
C      1  0.5860960000000  0.4406660000000  0.4827920000000 1.0
C      1  0.5077650000000  0.4975800000000  0.4534460000000 1.0
C      1  0.4475110000000  0.5743770000000  0.5492740000000 1.0
C      1  0.4421680000000  0.4080630000000  0.5273830000000 1.0
C      1  0.4354150000000  0.4272160000000  0.4826860000000 1.0
C      1  0.5731760000000  0.4918440000000  0.4638410000000 1.0
C      1  0.4505780000000  0.5097170000000  0.6161220000000 1.0
C      1  0.5376050000000  0.4939660000000  0.5476180000000 1.0
C      1  0.5230650000000  0.5334950000000  0.5414780000000 1.0
C      1  0.5351990000000  0.4993240000000  0.4899740000000 1.0
C      1  0.5089280000000  0.4629830000000  0.5701360000000 1.0
C      1  0.5752470000000  0.4164690000000  0.4957210000000 1.0
C      1  0.5713330000000  0.4929280000000  0.5139660000000 1.0
C      1  0.5195360000000  0.5863980000000  0.4264330000000 1.0
C      1  0.5458690000000  0.6024130000000  0.5604800000000 1.0
C      1  0.6123140000000  0.4973060000000  0.5022930000000 1.0
C      1  0.4538360000000  0.5317520000000  0.5969290000000 1.0
C      1  0.4783960000000  0.4256920000000  0.5712200000000 1.0
C      1  0.5292310000000  0.5080540000000  0.5992590000000 1.0
C      1  0.4649570000000  0.5902250000000  0.5064020000000 1.0
C      1  0.4480460000000  0.4923550000000  0.4013510000000 1.0
C      1  0.5153000000000  0.5579420000000  0.5080230000000 1.0
C      1  0.4028240000000  0.5228680000000  0.5518460000000 1.0
C      1  0.5522770000000  0.4135560000000  0.4507270000000 1.0
C      1  0.4550390000000  0.5463230000000  0.4058670000000 1.0
C      1  0.4233860000000  0.4274080000000  0.5373810000000 1.0
C      1  0.5394730000000  0.5405460000000  0.4681290000000 1.0
C      1  0.4293700000000  0.5258450000000  0.4440420000000 1.0
C      1  0.4130810000000  0.4443940000000  0.4847770000000 1.0
C      1  0.5726630000000  0.5676160000000  0.5023410000000 1.0
C      1  0.5166300000000  0.5066570000000  0.5343990000000 1.0
C      1  0.5101410000000  0.4882920000000  0.6051380000000 1.0
C      1  0.5636760000000  0.4513490000000  0.4670660000000 1.0
C      1  0.4054580000000  0.5495930000000  0.5404270000000 1.0
C      1  0.4257490000000  0.4810730000000  0.4135380000000 1.0
C      1  0.4763630000000  0.5329060000000  0.5225100000000 1.0
C      1  0.6048910000000  0.5230220000000  0.4954100000000 1.0
C      1  0.4636320000000  0.4650690000000  0.4045350000000 1.0
C      1  0.5952740000000  0.4589930000000  0.4392120000000 1.0
C      1  0.4904870000000  0.6012500000000  0.5502240000000 1.0
C      1  0.4543190000000  0.5075300000000  0.4885010000000 1.0
C      1  0.4049470000000  0.5203530000000  0.4591580000000 1.0
C      1  0.4622440000000  0.4645530000000  0.5947180000000 1.0
C      1  0.5782500000000  0.5787770000000  0.4753490000000 1.0
C      1  0.4994040000000  0.5624050000000  0.4179770000000 1.0
C      1  0.5996160000000  0.4618180000000  0.5375210000000 1.0
C      1  0.5278630000000  0.5830270000000  0.5517210000000 1.0
C      1  0.5805910000000  0.5210280000000  0.5158920000000 1.0
C      1  0.5276480000000  0.4305700000000  0.4893890000000 1.0
C      1  0.5616780000000  0.5508630000000  0.5583720000000 1.0
C      1  0.4957410000000  0.4930390000000  0.4283270000000 1.0
C      1  0.4933840000000  0.4238300000000  0.5969820000000 1.0
C      1  0.4292520000000  0.5383330000000  0.5817900000000 1.0
C      1  0.4577950000000  0.5900340000000  0.4769050000000 1.0
C      1  0.4793720000000  0.5299070000000  0.5790920000000 1.0
C      1  0.4959330000000  0.5111350000000  0.4040540000000 1.0
C      1  0.5967940000000  0.4881000000000  0.5453790000000 1.0
C      1  0.5129280000000  0.4952570000000  0.5078690000000 1.0
C      1  0.4905830000000  0.4645160000000  0.3871300000000 1.0
C      1  0.5441480000000  0.4325810000000  0.4309180000000 1.0
C      1  0.5408580000000  0.5135750000000  0.4664980000000 1.0
C      1  0.5378320000000  0.5348950000000  0.4111760000000 1.0
C      1  0.5571790000000  0.5537660000000  0.4466390000000 1.0
C      1  0.5066370000000  0.5709560000000  0.4864940000000 1.0
C      1  0.5718950000000  0.5237650000000  0.5693330000000 1.0
C      1  0.5553510000000  0.4777870000000  0.5325710000000 1.0
C      1  0.5656360000000  0.4227350000000  0.5225200000000 1.0
C      1  0.4154410000000  0.5113370000000  0.5088290000000 1.0
C      1  0.4679660000000  0.5145010000000  0.4641810000000 1.0
C      1  0.4457870000000  0.4695760000000  0.4668180000000 1.0
C      1  0.4516690000000  0.5457070000000  0.5134980000000 1.0
C      1  0.4073900000000  0.4466940000000  0.5146580000000 1.0
C      1  0.5316590000000  0.4801080000000  0.5704470000000 1.0
C      1  0.5173800000000  0.4450580000000  0.4337450000000 1.0
C      1  0.4714600000000  0.4619910000000  0.4559980000000 1.0
C      1  0.5580660000000  0.4925190000000  0.4176650000000 1.0
C      1  0.5957610000000  0.5067350000000  0.4497280000000 1.0
C      1  0.4884770000000  0.4713880000000  0.6041880000000 1.0
C      1  0.4462290000000  0.4711540000000  0.5426030000000 1.0
C      1  0.4525170000000  0.5667450000000  0.4260990000000 1.0
C      1  0.5357100000000  0.6081760000000  0.4762620000000 1.0
C      1  0.4494390000000  0.5726900000000  0.5212510000000 1.0
C      1  0.4272240000000  0.5570460000000  0.5596640000000 1.0
C      1  0.5123200000000  0.5362570000000  0.4047070000000 1.0
C      1  0.5113220000000  0.5373510000000  0.4585990000000 1.0
C      1  0.4165240000000  0.4721360000000  0.5403920000000 1.0
C      1  0.4954350000000  0.5187280000000  0.4729670000000 1.0
C      1  0.5273330000000  0.4313310000000  0.5510590000000 1.0
C      1  0.4576840000000  0.3924710000000  0.5095520000000 1.0
C      1  0.4868280000000  0.5574430000000  0.5733060000000 1.0
C      1  0.4113310000000  0.5153970000000  0.5779200000000 1.0
C      1  0.5020670000000  0.6088240000000  0.4351290000000 1.0
C      1  0.5798390000000  0.5118440000000  0.4229940000000 1.0
C      1  0.4852870000000  0.6039480000000  0.5217370000000 1.0
C      1  0.5382380000000  0.4530830000000  0.5334730000000 1.0
C      1  0.5176200000000  0.5448190000000  0.5683010000000 1.0
C      1  0.4977580000000  0.5331600000000  0.5036660000000 1.0
C      1  0.4737320000000  0.5799710000000  0.5622730000000 1.0
C      1  0.4294540000000  0.5914650000000  0.4803790000000 1.0
C      1  0.4778070000000  0.4076300000000  0.4389240000000 1.0
C      1  0.4540380000000  0.4329090000000  0.5081240000000 1.0
C      1  0.4007790000000  0.4929950000000  0.4675530000000 1.0
C      1  0.4125170000000  0.4641720000000  0.5679220000000 1.0
C      1  0.4493180000000  0.4799200000000  0.4935210000000 1.0
C      1  0.4831320000000  0.4290320000000  0.5122810000000 1.0
END
