TITL C-4164244-2836-7 70.7519347218492 125000 -26338.3353144465 0 0 180 (C1) n - 1
REM
REM in /home/nfs/bkarasulu/CARBON/AIRSS/Generating-Clusters/ReaxFF-fromJPCA2015/Units_Real/with-SteepDescent/Only-C1/SD-CG/Try1-3A/FIRE-CG
REM
REM
REM
REM
REM
REM ./C.cell (11c1c37f851c82e70ff6c80c92926a4b)
REM
REM compiler GCC version 9.2.1 20190827 (Red Hat 9.2.1-1)
REM options -cpp -mtune=generic -march=x86-64 -g -O0 -fpre-include=/usr/include/finclude/math-vector-fortran.h
REM seed -262470627 -575836581 -306179436 1170693739 2086997139 1937774189 1590548531 -73840835 1530883592 1325368555 62161765 -1041852651 1637550784 66155499 -832832798 492047082 -1982730303 -233729218 -489056883 -1851373193 1740578905 -921385034 -79154058 528234327 600564236 1198805369 -45841317 1353201123 889572349 -1204180963 747011585 685870905 -215485818
REM
CELL 1.54180   50.00000   50.00000   50.00000   90.00000   90.00000   90.00000
LATT -1
SFAC C  
C      1  0.5118990000000  0.4297130000000  0.4281380000000 1.0
C      1  0.4281590000000  0.4556210000000  0.4728780000000 1.0
C      1  0.4971160000000  0.5446810000000  0.4560300000000 1.0
C      1  0.4130330000000  0.5563390000000  0.4862410000000 1.0
C      1  0.4607000000000  0.5250220000000  0.5944260000000 1.0
C      1  0.5587800000000  0.5175290000000  0.5022460000000 1.0
C      1  0.4767290000000  0.5009620000000  0.3890570000000 1.0
C      1  0.4340410000000  0.5135490000000  0.4896790000000 1.0
C      1  0.5632630000000  0.4461830000000  0.5815760000000 1.0
C      1  0.5516150000000  0.5554280000000  0.4241160000000 1.0
C      1  0.5589310000000  0.4347650000000  0.4370150000000 1.0
C      1  0.5240990000000  0.4656750000000  0.4821060000000 1.0
C      1  0.4398620000000  0.5809610000000  0.5290130000000 1.0
C      1  0.4691500000000  0.5003090000000  0.6071170000000 1.0
C      1  0.5539610000000  0.5425260000000  0.5895980000000 1.0
C      1  0.4557840000000  0.4420960000000  0.4226130000000 1.0
C      1  0.5217850000000  0.4749820000000  0.4208220000000 1.0
C      1  0.4693710000000  0.4095550000000  0.5576760000000 1.0
C      1  0.4787990000000  0.4493550000000  0.4978500000000 1.0
C      1  0.5343930000000  0.5942480000000  0.5202640000000 1.0
C      1  0.5131510000000  0.5486840000000  0.4995180000000 1.0
C      1  0.5440460000000  0.5167040000000  0.5970950000000 1.0
C      1  0.4703200000000  0.3920380000000  0.5102890000000 1.0
C      1  0.5132490000000  0.5191360000000  0.5974530000000 1.0
C      1  0.4644830000000  0.5861270000000  0.4428770000000 1.0
C      1  0.4943650000000  0.5034250000000  0.6202090000000 1.0
C      1  0.4780280000000  0.4754790000000  0.4880610000000 1.0
C      1  0.5636260000000  0.4667260000000  0.5091780000000 1.0
C      1  0.5263310000000  0.6026430000000  0.5487790000000 1.0
C      1  0.4981340000000  0.4041240000000  0.4753390000000 1.0
C      1  0.4579390000000  0.5115050000000  0.4312700000000 1.0
C      1  0.4913440000000  0.4685230000000  0.4124960000000 1.0
C      1  0.4926400000000  0.5763530000000  0.5633100000000 1.0
C      1  0.3864620000000  0.4826860000000  0.4701860000000 1.0
C      1  0.4307490000000  0.4681390000000  0.5871740000000 1.0
C      1  0.4911610000000  0.5844080000000  0.4300820000000 1.0
C      1  0.4288730000000  0.4326650000000  0.4919340000000 1.0
C      1  0.4313560000000  0.5039820000000  0.4004190000000 1.0
C      1  0.5257900000000  0.3934500000000  0.5206060000000 1.0
C      1  0.4315230000000  0.5906350000000  0.4775190000000 1.0
C      1  0.5121320000000  0.4826450000000  0.5155000000000 1.0
C      1  0.5520580000000  0.4792690000000  0.5598920000000 1.0
C      1  0.4682870000000  0.4916030000000  0.5100010000000 1.0
C      1  0.5073680000000  0.4494830000000  0.5581480000000 1.0
C      1  0.4251070000000  0.5560690000000  0.4578820000000 1.0
C      1  0.5464720000000  0.5979520000000  0.4776680000000 1.0
C      1  0.5923600000000  0.5552530000000  0.5537620000000 1.0
C      1  0.4787650000000  0.5580170000000  0.5247950000000 1.0
C      1  0.4972560000000  0.3827270000000  0.5161830000000 1.0
C      1  0.5995440000000  0.5588960000000  0.5266660000000 1.0
C      1  0.5144910000000  0.5928690000000  0.4458180000000 1.0
C      1  0.4964430000000  0.5255390000000  0.5055670000000 1.0
C      1  0.4166740000000  0.5401710000000  0.5320750000000 1.0
C      1  0.5443630000000  0.5258830000000  0.4321400000000 1.0
C      1  0.4689410000000  0.5294570000000  0.5230220000000 1.0
C      1  0.5059220000000  0.4947340000000  0.5805900000000 1.0
C      1  0.5334040000000  0.5761720000000  0.4320610000000 1.0
C      1  0.6003050000000  0.5055400000000  0.4279780000000 1.0
C      1  0.5498220000000  0.4892230000000  0.5894570000000 1.0
C      1  0.4752550000000  0.4403500000000  0.5957770000000 1.0
C      1  0.3976130000000  0.4567580000000  0.4777870000000 1.0
C      1  0.5769690000000  0.4903690000000  0.4129040000000 1.0
C      1  0.4829970000000  0.4603230000000  0.5474730000000 1.0
C      1  0.4650250000000  0.4722180000000  0.5657830000000 1.0
C      1  0.5023960000000  0.4897470000000  0.3775420000000 1.0
C      1  0.4696480000000  0.3963250000000  0.4808880000000 1.0
C      1  0.5672450000000  0.4185770000000  0.5344350000000 1.0
C      1  0.5352700000000  0.4494110000000  0.5905820000000 1.0
C      1  0.5429920000000  0.5253190000000  0.5434540000000 1.0
C      1  0.4999170000000  0.5560800000000  0.5444530000000 1.0
C      1  0.5347350000000  0.4497210000000  0.5487540000000 1.0
C      1  0.4350560000000  0.5256730000000  0.4187930000000 1.0
C      1  0.4972470000000  0.6013300000000  0.5486220000000 1.0
C      1  0.5203710000000  0.4585130000000  0.5068820000000 1.0
C      1  0.5659810000000  0.4941530000000  0.5179310000000 1.0
C      1  0.4931700000000  0.4638240000000  0.3846520000000 1.0
C      1  0.5120220000000  0.4843710000000  0.4474030000000 1.0
C      1  0.5295000000000  0.5225560000000  0.4047070000000 1.0
C      1  0.4850000000000  0.4400440000000  0.4164030000000 1.0
C      1  0.4497350000000  0.6043260000000  0.4611390000000 1.0
C      1  0.4264660000000  0.5461440000000  0.5587270000000 1.0
C      1  0.4253260000000  0.4915740000000  0.5714790000000 1.0
C      1  0.5428180000000  0.4469850000000  0.5185520000000 1.0
C      1  0.5058900000000  0.5484010000000  0.5891640000000 1.0
C      1  0.5244910000000  0.4760650000000  0.5948290000000 1.0
C      1  0.5843380000000  0.4973900000000  0.5406480000000 1.0
C      1  0.5390940000000  0.5799940000000  0.5619370000000 1.0
C      1  0.4174750000000  0.5328070000000  0.4412600000000 1.0
C      1  0.5236510000000  0.4956290000000  0.3971350000000 1.0
C      1  0.4427650000000  0.5699720000000  0.5563350000000 1.0
C      1  0.5824800000000  0.4389310000000  0.4812450000000 1.0
C      1  0.4197260000000  0.5126220000000  0.5211430000000 1.0
C      1  0.5705300000000  0.5211260000000  0.5521610000000 1.0
C      1  0.4604540000000  0.4701930000000  0.5949650000000 1.0
C      1  0.4497090000000  0.4375670000000  0.4517380000000 1.0
C      1  0.4845520000000  0.4777670000000  0.4588590000000 1.0
C      1  0.5630940000000  0.5447580000000  0.5094730000000 1.0
C      1  0.4930000000000  0.5353660000000  0.4285210000000 1.0
C      1  0.4476580000000  0.4760780000000  0.5224340000000 1.0
C      1  0.5218260000000  0.4040630000000  0.5492300000000 1.0
C      1  0.5514130000000  0.5707720000000  0.4692360000000 1.0
C      1  0.5257200000000  0.5479360000000  0.5330300000000 1.0
C      1  0.3948430000000  0.4855360000000  0.4414430000000 1.0
C      1  0.4894870000000  0.4328560000000  0.4777060000000 1.0
C      1  0.4944610000000  0.5598810000000  0.4123950000000 1.0
C      1  0.4860470000000  0.6057890000000  0.5222770000000 1.0
C      1  0.5350500000000  0.4448470000000  0.4227330000000 1.0
C      1  0.5236910000000  0.5511590000000  0.4695230000000 1.0
C      1  0.4391170000000  0.5203840000000  0.5724790000000 1.0
C      1  0.5596270000000  0.5938590000000  0.5038830000000 1.0
C      1  0.4985530000000  0.4091950000000  0.5648600000000 1.0
C      1  0.4460190000000  0.6100780000000  0.4914650000000 1.0
C      1  0.5918410000000  0.4779690000000  0.4766080000000 1.0
C      1  0.5048230000000  0.4335700000000  0.5824340000000 1.0
C      1  0.5074970000000  0.4975640000000  0.5516020000000 1.0
C      1  0.4619890000000  0.4497820000000  0.5223440000000 1.0
C      1  0.6063340000000  0.5050410000000  0.5218340000000 1.0
C      1  0.5451770000000  0.4212060000000  0.5538500000000 1.0
C      1  0.4830340000000  0.5089480000000  0.4168690000000 1.0
C      1  0.4225870000000  0.5626770000000  0.5139080000000 1.0
C      1  0.4149880000000  0.5049510000000  0.4507750000000 1.0
C      1  0.4591720000000  0.5234260000000  0.4778860000000 1.0
C      1  0.4547540000000  0.4268670000000  0.5760320000000 1.0
C      1  0.5935620000000  0.5321450000000  0.4267860000000 1.0
C      1  0.5345450000000  0.4861640000000  0.4650210000000 1.0
C      1  0.5318540000000  0.5611260000000  0.5835440000000 1.0
C      1  0.6116290000000  0.5279070000000  0.4868620000000 1.0
C      1  0.5123970000000  0.3897510000000  0.4957600000000 1.0
C      1  0.5175340000000  0.6022220000000  0.4745930000000 1.0
C      1  0.4492690000000  0.4071330000000  0.4634190000000 1.0
C      1  0.4305940000000  0.4429400000000  0.5705840000000 1.0
C      1  0.4890600000000  0.5667780000000  0.4986270000000 1.0
C      1  0.4193970000000  0.4432890000000  0.5438850000000 1.0
C      1  0.5808880000000  0.5563710000000  0.4294870000000 1.0
C      1  0.4775350000000  0.4477570000000  0.4566680000000 1.0
C      1  0.6116270000000  0.5332580000000  0.5159170000000 1.0
C      1  0.4727790000000  0.5484120000000  0.4723370000000 1.0
C      1  0.3989640000000  0.4928170000000  0.5191970000000 1.0
C      1  0.5644840000000  0.4152980000000  0.4823920000000 1.0
C      1  0.3952580000000  0.4536310000000  0.5064550000000 1.0
C      1  0.5240280000000  0.4219620000000  0.4553730000000 1.0
C      1  0.5952100000000  0.5451290000000  0.4733310000000 1.0
C      1  0.5523860000000  0.4118340000000  0.4553630000000 1.0
C      1  0.5888490000000  0.4522590000000  0.5078020000000 1.0
C      1  0.4903720000000  0.4843790000000  0.5331840000000 1.0
C      1  0.4154110000000  0.4737250000000  0.4246360000000 1.0
C      1  0.4537060000000  0.5624110000000  0.4549690000000 1.0
C      1  0.5786710000000  0.5624670000000  0.4597070000000 1.0
C      1  0.4566830000000  0.4062070000000  0.5315440000000 1.0
C      1  0.5150830000000  0.5473810000000  0.3944980000000 1.0
C      1  0.4004620000000  0.4627860000000  0.5318370000000 1.0
C      1  0.4507300000000  0.4861950000000  0.3906190000000 1.0
C      1  0.4231430000000  0.4061350000000  0.4774310000000 1.0
C      1  0.5050000000000  0.5952450000000  0.5006190000000 1.0
C      1  0.4377060000000  0.4286590000000  0.5242810000000 1.0
C      1  0.5338160000000  0.5287570000000  0.4587500000000 1.0
C      1  0.5864150000000  0.4949620000000  0.4540890000000 1.0
C      1  0.5607390000000  0.4965920000000  0.4371690000000 1.0
C      1  0.4668250000000  0.5710430000000  0.5731190000000 1.0
C      1  0.5763560000000  0.5699020000000  0.5089960000000 1.0
C      1  0.4766100000000  0.5491070000000  0.5893460000000 1.0
C      1  0.4579910000000  0.5208810000000  0.5476290000000 1.0
C      1  0.4067950000000  0.5272100000000  0.4845990000000 1.0
C      1  0.4594040000000  0.5015970000000  0.4588040000000 1.0
C      1  0.6056900000000  0.4967890000000  0.4931560000000 1.0
C      1  0.5364910000000  0.5105070000000  0.4800740000000 1.0
C      1  0.4574480000000  0.6018980000000  0.5174950000000 1.0
C      1  0.5119610000000  0.5051060000000  0.4979210000000 1.0
C      1  0.3908140000000  0.5028320000000  0.4917770000000 1.0
C      1  0.5650620000000  0.4517730000000  0.4607710000000 1.0
C      1  0.5795380000000  0.5406290000000  0.5734650000000 1.0
C      1  0.5439230000000  0.5690830000000  0.5350030000000 1.0
C      1  0.5843680000000  0.4423700000000  0.5358280000000 1.0
C      1  0.4390520000000  0.4646210000000  0.4108660000000 1.0
C      1  0.4435540000000  0.4824840000000  0.5509300000000 1.0
C      1  0.5366470000000  0.4462280000000  0.4680720000000 1.0
C      1  0.5353880000000  0.4992940000000  0.5463280000000 1.0
C      1  0.4334540000000  0.4900020000000  0.4689910000000 1.0
C      1  0.5765650000000  0.4616250000000  0.5578750000000 1.0
C      1  0.5518180000000  0.4147920000000  0.5093850000000 1.0
END
