TITL C-4164234-2335-477 70.667718440369 125000 -28438.0094717966 0 0 194 (C1) n - 1
REM
REM in /home/nfs/bkarasulu/CARBON/AIRSS/Generating-Clusters/ReaxFF-fromJPCA2015/Units_Real/with-SteepDescent/Only-C1/SD-CG/Try1-3A/FIRE-CG
REM
REM
REM
REM
REM
REM ./C.cell (11c1c37f851c82e70ff6c80c92926a4b)
REM
REM compiler GCC version 9.2.1 20190827 (Red Hat 9.2.1-1)
REM options -cpp -mtune=generic -march=x86-64 -g -O0 -fpre-include=/usr/include/finclude/math-vector-fortran.h
REM seed 50105100 -2081082245 1112193582 -753664688 -1028857027 -281157861 561304986 1861298488 69693732 -2007482769 600994762 -1665942967 -1596888752 1951560690 -332471602 162057150 1052706332 -208623495 -1498086449 -864109795 597616281 -960985076 -1704246555 -1653360144 -865462187 982688021 1219538448 1288999856 -126430603 222280762 644785196 -1118708296 2001878132
REM
CELL 1.54180   50.00000   50.00000   50.00000   90.00000   90.00000   90.00000
LATT -1
SFAC C  
C      1  0.4974950000000  0.4642070000000  0.6073440000000 1.0
C      1  0.5768050000000  0.4453840000000  0.5364040000000 1.0
C      1  0.5594740000000  0.5239960000000  0.4511020000000 1.0
C      1  0.4407280000000  0.5320340000000  0.4173440000000 1.0
C      1  0.4814290000000  0.4672110000000  0.4537640000000 1.0
C      1  0.5312600000000  0.6269140000000  0.4649730000000 1.0
C      1  0.5146270000000  0.5505270000000  0.4576450000000 1.0
C      1  0.5922410000000  0.5052900000000  0.5711870000000 1.0
C      1  0.4853700000000  0.3816680000000  0.5399480000000 1.0
C      1  0.3859340000000  0.4509230000000  0.5246130000000 1.0
C      1  0.5051570000000  0.4618530000000  0.5486630000000 1.0
C      1  0.5087650000000  0.5603530000000  0.4838880000000 1.0
C      1  0.4205440000000  0.4993630000000  0.4030900000000 1.0
C      1  0.5055220000000  0.4481540000000  0.3965750000000 1.0
C      1  0.4252930000000  0.4711830000000  0.5133180000000 1.0
C      1  0.4844880000000  0.4507350000000  0.5678310000000 1.0
C      1  0.5549070000000  0.5434780000000  0.5936110000000 1.0
C      1  0.4946380000000  0.5414560000000  0.4155220000000 1.0
C      1  0.4031790000000  0.5007000000000  0.4255970000000 1.0
C      1  0.5261710000000  0.3964250000000  0.5201910000000 1.0
C      1  0.4826010000000  0.4222820000000  0.4876050000000 1.0
C      1  0.4884840000000  0.4273520000000  0.5902130000000 1.0
C      1  0.6297300000000  0.5043160000000  0.5012770000000 1.0
C      1  0.4257160000000  0.4593070000000  0.5768230000000 1.0
C      1  0.3947360000000  0.4727060000000  0.4338080000000 1.0
C      1  0.5709340000000  0.5664080000000  0.4674240000000 1.0
C      1  0.5910310000000  0.4418950000000  0.4664000000000 1.0
C      1  0.5026180000000  0.5068880000000  0.4758460000000 1.0
C      1  0.5313980000000  0.4448350000000  0.5087800000000 1.0
C      1  0.5144060000000  0.5021910000000  0.3985570000000 1.0
C      1  0.4944470000000  0.5147810000000  0.6094600000000 1.0
C      1  0.5217370000000  0.5388120000000  0.5689380000000 1.0
C      1  0.5420370000000  0.4948140000000  0.5553330000000 1.0
C      1  0.5413390000000  0.6119680000000  0.5118740000000 1.0
C      1  0.4902880000000  0.5417120000000  0.4451470000000 1.0
C      1  0.4246400000000  0.4676710000000  0.4859850000000 1.0
C      1  0.5416730000000  0.5869210000000  0.4948960000000 1.0
C      1  0.5202790000000  0.4708250000000  0.5031630000000 1.0
C      1  0.4679250000000  0.5804240000000  0.4203130000000 1.0
C      1  0.4658720000000  0.5362880000000  0.4616550000000 1.0
C      1  0.4976480000000  0.6233580000000  0.5365270000000 1.0
C      1  0.5280300000000  0.3976080000000  0.4539210000000 1.0
C      1  0.4983970000000  0.5068300000000  0.5457710000000 1.0
C      1  0.5562330000000  0.5452290000000  0.5302340000000 1.0
C      1  0.4808450000000  0.6066480000000  0.4816950000000 1.0
C      1  0.4423430000000  0.5297990000000  0.5871260000000 1.0
C      1  0.4052630000000  0.4282390000000  0.5154140000000 1.0
C      1  0.5825520000000  0.4758740000000  0.5756460000000 1.0
C      1  0.4123560000000  0.4195040000000  0.4884970000000 1.0
C      1  0.5797890000000  0.4497240000000  0.5639670000000 1.0
C      1  0.5835630000000  0.5628500000000  0.4948160000000 1.0
C      1  0.4510950000000  0.4032710000000  0.4572650000000 1.0
C      1  0.4922750000000  0.3918190000000  0.5676900000000 1.0
C      1  0.4755610000000  0.4491830000000  0.5191650000000 1.0
C      1  0.3859650000000  0.4577470000000  0.4574340000000 1.0
C      1  0.5832960000000  0.5716130000000  0.5573620000000 1.0
C      1  0.6108890000000  0.5039750000000  0.4417320000000 1.0
C      1  0.4592780000000  0.5718600000000  0.5767600000000 1.0
C      1  0.5153170000000  0.4215720000000  0.5141620000000 1.0
C      1  0.5706160000000  0.5932060000000  0.4550390000000 1.0
C      1  0.4653440000000  0.4571570000000  0.4084480000000 1.0
C      1  0.5435430000000  0.5595630000000  0.5072390000000 1.0
C      1  0.4631970000000  0.5568660000000  0.4974660000000 1.0
C      1  0.5458230000000  0.5499810000000  0.4494280000000 1.0
C      1  0.5569270000000  0.4863230000000  0.5841560000000 1.0
C      1  0.5902450000000  0.5326420000000  0.5020240000000 1.0
C      1  0.4577050000000  0.3889520000000  0.4964590000000 1.0
C      1  0.4919880000000  0.5196590000000  0.3946940000000 1.0
C      1  0.4208950000000  0.5293800000000  0.4673930000000 1.0
C      1  0.5441120000000  0.5091290000000  0.3919080000000 1.0
C      1  0.5418120000000  0.5049920000000  0.4631970000000 1.0
C      1  0.6153850000000  0.4973450000000  0.4750320000000 1.0
C      1  0.5435530000000  0.4747830000000  0.6080750000000 1.0
C      1  0.5558280000000  0.3981550000000  0.5175150000000 1.0
C      1  0.4007160000000  0.5671510000000  0.4917600000000 1.0
C      1  0.4874800000000  0.5103510000000  0.4978030000000 1.0
C      1  0.4656570000000  0.3948800000000  0.5232970000000 1.0
C      1  0.4466750000000  0.4148040000000  0.4300000000000 1.0
C      1  0.5419050000000  0.5972430000000  0.4666740000000 1.0
C      1  0.4698370000000  0.4795080000000  0.4300720000000 1.0
C      1  0.5080210000000  0.3884410000000  0.4727260000000 1.0
C      1  0.4460390000000  0.5095350000000  0.3969660000000 1.0
C      1  0.5269450000000  0.5833540000000  0.5395980000000 1.0
C      1  0.4074270000000  0.4461220000000  0.4758120000000 1.0
C      1  0.4404940000000  0.5485880000000  0.4654690000000 1.0
C      1  0.4024740000000  0.5339770000000  0.5180370000000 1.0
C      1  0.5903520000000  0.5229210000000  0.4494130000000 1.0
C      1  0.4560450000000  0.5907280000000  0.4423150000000 1.0
C      1  0.4355970000000  0.4015450000000  0.4815940000000 1.0
C      1  0.5119180000000  0.4127220000000  0.5809070000000 1.0
C      1  0.6010350000000  0.5233210000000  0.4770430000000 1.0
C      1  0.4856640000000  0.4219840000000  0.5149910000000 1.0
C      1  0.4242230000000  0.5419910000000  0.5657380000000 1.0
C      1  0.5245380000000  0.4733490000000  0.4269470000000 1.0
C      1  0.4750800000000  0.4187330000000  0.4649920000000 1.0
C      1  0.4313360000000  0.4377080000000  0.4299000000000 1.0
C      1  0.5600410000000  0.5107150000000  0.5346940000000 1.0
C      1  0.5164660000000  0.4365860000000  0.4523770000000 1.0
C      1  0.5201240000000  0.5109970000000  0.5612700000000 1.0
C      1  0.4522450000000  0.6039880000000  0.4663920000000 1.0
C      1  0.4077910000000  0.5275450000000  0.5461910000000 1.0
C      1  0.5210350000000  0.5421680000000  0.5971930000000 1.0
C      1  0.4653230000000  0.5479030000000  0.5917020000000 1.0
C      1  0.5647190000000  0.5084040000000  0.5070890000000 1.0
C      1  0.4641030000000  0.4450230000000  0.5451500000000 1.0
C      1  0.3815240000000  0.5567210000000  0.5103020000000 1.0
C      1  0.5786570000000  0.5838430000000  0.5306720000000 1.0
C      1  0.5540770000000  0.4094490000000  0.4637470000000 1.0
C      1  0.3993470000000  0.4764550000000  0.5258940000000 1.0
C      1  0.4612190000000  0.4874890000000  0.5510000000000 1.0
C      1  0.4883130000000  0.4397680000000  0.4520320000000 1.0
C      1  0.5239690000000  0.4527670000000  0.6014110000000 1.0
C      1  0.5033450000000  0.3767960000000  0.5175320000000 1.0
C      1  0.4884790000000  0.4836310000000  0.5409640000000 1.0
C      1  0.5157800000000  0.5609500000000  0.4107430000000 1.0
C      1  0.5688130000000  0.4329680000000  0.4478590000000 1.0
C      1  0.4404010000000  0.5081160000000  0.5080100000000 1.0
C      1  0.4312030000000  0.5960470000000  0.4858480000000 1.0
C      1  0.5004880000000  0.5835180000000  0.4206570000000 1.0
C      1  0.4224270000000  0.5704540000000  0.4740210000000 1.0
C      1  0.4430620000000  0.4857080000000  0.4437840000000 1.0
C      1  0.5448600000000  0.4910610000000  0.4899900000000 1.0
C      1  0.4319270000000  0.5046250000000  0.5910860000000 1.0
C      1  0.4909400000000  0.4685620000000  0.5030090000000 1.0
C      1  0.4108960000000  0.4972010000000  0.5480580000000 1.0
C      1  0.5663470000000  0.4945680000000  0.4017140000000 1.0
C      1  0.5401510000000  0.5582980000000  0.5540390000000 1.0
C      1  0.5176170000000  0.4157430000000  0.4321470000000 1.0
C      1  0.5532880000000  0.5315550000000  0.4047020000000 1.0
C      1  0.4167780000000  0.4866720000000  0.5749690000000 1.0
C      1  0.4466410000000  0.4790690000000  0.4723810000000 1.0
C      1  0.4887680000000  0.5773050000000  0.4975350000000 1.0
C      1  0.4665800000000  0.6207880000000  0.5019780000000 1.0
C      1  0.4828720000000  0.5633020000000  0.5402280000000 1.0
C      1  0.4363490000000  0.4437410000000  0.5536100000000 1.0
C      1  0.5943450000000  0.4431240000000  0.5149730000000 1.0
C      1  0.5647730000000  0.4743170000000  0.4768940000000 1.0
C      1  0.5935160000000  0.4701350000000  0.4786500000000 1.0
C      1  0.4334350000000  0.5688660000000  0.5609900000000 1.0
C      1  0.5709790000000  0.4699090000000  0.4101200000000 1.0
C      1  0.4658550000000  0.4731270000000  0.5759270000000 1.0
C      1  0.5538770000000  0.4568220000000  0.4602340000000 1.0
C      1  0.4521950000000  0.5569140000000  0.4193500000000 1.0
C      1  0.4785770000000  0.5869900000000  0.5606040000000 1.0
C      1  0.4327310000000  0.6006410000000  0.5152260000000 1.0
C      1  0.5599030000000  0.4463890000000  0.4180850000000 1.0
C      1  0.4173020000000  0.5208650000000  0.4959800000000 1.0
C      1  0.4231270000000  0.4632810000000  0.4312390000000 1.0
C      1  0.4980130000000  0.4237160000000  0.4112990000000 1.0
C      1  0.5007590000000  0.5823210000000  0.5260020000000 1.0
C      1  0.4251910000000  0.5145680000000  0.4416060000000 1.0
C      1  0.4543530000000  0.5593470000000  0.5245780000000 1.0
C      1  0.4733580000000  0.4974290000000  0.3909530000000 1.0
C      1  0.5741800000000  0.5253870000000  0.5835960000000 1.0
C      1  0.5175760000000  0.6232330000000  0.5250720000000 1.0
C      1  0.5339500000000  0.4303630000000  0.5824890000000 1.0
C      1  0.5659430000000  0.4080360000000  0.4894710000000 1.0
C      1  0.6140320000000  0.5204040000000  0.5202070000000 1.0
C      1  0.4407730000000  0.5016440000000  0.5363120000000 1.0
C      1  0.5030870000000  0.6183250000000  0.4604870000000 1.0
C      1  0.5595010000000  0.4278780000000  0.5673500000000 1.0
C      1  0.5036830000000  0.4928720000000  0.4248370000000 1.0
C      1  0.5275720000000  0.4623970000000  0.4523360000000 1.0
C      1  0.6084670000000  0.5132330000000  0.5479620000000 1.0
C      1  0.5522690000000  0.5974420000000  0.5345250000000 1.0
C      1  0.4921480000000  0.5194780000000  0.5251990000000 1.0
C      1  0.5885320000000  0.4269540000000  0.4907120000000 1.0
C      1  0.4739390000000  0.6133430000000  0.5486270000000 1.0
C      1  0.5192060000000  0.5457900000000  0.5071290000000 1.0
C      1  0.5935010000000  0.4704300000000  0.5082940000000 1.0
C      1  0.4532340000000  0.6192950000000  0.5264060000000 1.0
C      1  0.4703800000000  0.4030830000000  0.5851590000000 1.0
C      1  0.4280740000000  0.4440880000000  0.5255370000000 1.0
C      1  0.5586520000000  0.4105030000000  0.5430600000000 1.0
C      1  0.5806370000000  0.4910850000000  0.5226030000000 1.0
C      1  0.4742140000000  0.4759440000000  0.4794330000000 1.0
C      1  0.5036050000000  0.5424840000000  0.5311190000000 1.0
C      1  0.4688950000000  0.4282160000000  0.4141570000000 1.0
C      1  0.4837310000000  0.4684790000000  0.3899540000000 1.0
C      1  0.5440850000000  0.5537960000000  0.4183440000000 1.0
C      1  0.4642330000000  0.5264820000000  0.4899810000000 1.0
C      1  0.4514480000000  0.4942050000000  0.6074090000000 1.0
C      1  0.5104710000000  0.6009800000000  0.4397820000000 1.0
C      1  0.4827270000000  0.4904960000000  0.6118310000000 1.0
C      1  0.5334190000000  0.4545490000000  0.4059900000000 1.0
C      1  0.4322560000000  0.5762100000000  0.5321960000000 1.0
C      1  0.4893600000000  0.3801030000000  0.4913860000000 1.0
C      1  0.5508070000000  0.4525930000000  0.5289250000000 1.0
C      1  0.5615140000000  0.5650330000000  0.5753330000000 1.0
C      1  0.5324390000000  0.4698190000000  0.5422730000000 1.0
C      1  0.5144860000000  0.5036520000000  0.4526950000000 1.0
C      1  0.4923180000000  0.5415690000000  0.6051680000000 1.0
C      1  0.4460640000000  0.4667770000000  0.5963690000000 1.0
C      1  0.5822940000000  0.5560430000000  0.5341810000000 1.0
END
