TITL C-4164241-3639-362 0.0845282771806322 125000 -8808.90841931918 0 0 61 (C1) n - 1
REM
REM in /home/nfs/bkarasulu/CARBON/AIRSS/Generating-Clusters/ReaxFF-fromJPCA2015/Units_Real/with-SteepDescent/Only-C1/SD-CG/Try1-3A/FIRE-CG
REM
REM
REM
REM
REM
REM ./C.cell (11c1c37f851c82e70ff6c80c92926a4b)
REM
REM compiler GCC version 9.2.1 20190827 (Red Hat 9.2.1-1)
REM options -cpp -mtune=generic -march=x86-64 -g -O0 -fpre-include=/usr/include/finclude/math-vector-fortran.h
REM seed 2068603488 503420498 1716792011 1945463973 -1867684901 2090014355 -1906823171 506771753 1621167230 1662601919 -1572054561 -893961610 108391581 -2068967738 -635581821 1953129153 -1963436052 -759693494 -985823712 412973305 1828377828 -140605217 485423534 1150349538 -521044315 1298658820 -348839987 -94461965 -405969077 1591350910 -1469329411 1356654753 741193603
REM
CELL 1.54180   50.00000   50.00000   50.00000   90.00000   90.00000   90.00000
LATT -1
SFAC C  
C      1  0.4746070000000  0.4893430000000  0.4929280000000 1.0
C      1  0.5082390000000  0.5379590000000  0.5320530000000 1.0
C      1  0.4992040000000  0.5184000000000  0.4134980000000 1.0
C      1  0.5116370000000  0.5093240000000  0.5270510000000 1.0
C      1  0.4960460000000  0.4783160000000  0.5704460000000 1.0
C      1  0.5114520000000  0.5198870000000  0.5823870000000 1.0
C      1  0.5280210000000  0.5281920000000  0.4577610000000 1.0
C      1  0.5801230000000  0.4904840000000  0.5281590000000 1.0
C      1  0.5051490000000  0.4541310000000  0.5333740000000 1.0
C      1  0.4437800000000  0.4640990000000  0.5179150000000 1.0
C      1  0.5347120000000  0.5591870000000  0.4858480000000 1.0
C      1  0.5549340000000  0.5108370000000  0.5013780000000 1.0
C      1  0.4662020000000  0.4847700000000  0.5732380000000 1.0
C      1  0.4778000000000  0.4708070000000  0.4339740000000 1.0
C      1  0.5594550000000  0.5018680000000  0.5454050000000 1.0
C      1  0.5313660000000  0.4462320000000  0.5306860000000 1.0
C      1  0.5102640000000  0.5082580000000  0.4708560000000 1.0
C      1  0.5021760000000  0.4818290000000  0.5424580000000 1.0
C      1  0.4587790000000  0.4452420000000  0.5350140000000 1.0
C      1  0.4562750000000  0.4675160000000  0.4883980000000 1.0
C      1  0.4768350000000  0.5622930000000  0.5229860000000 1.0
C      1  0.5211650000000  0.4916910000000  0.5784210000000 1.0
C      1  0.5050950000000  0.5653260000000  0.5240680000000 1.0
C      1  0.5383190000000  0.4398390000000  0.5022020000000 1.0
C      1  0.5728740000000  0.5265030000000  0.4874510000000 1.0
C      1  0.4641670000000  0.5258260000000  0.5114860000000 1.0
C      1  0.4843190000000  0.5276080000000  0.5727770000000 1.0
C      1  0.5161230000000  0.5527970000000  0.4477160000000 1.0
C      1  0.4920380000000  0.5100970000000  0.4972360000000 1.0
C      1  0.4917200000000  0.5759390000000  0.4733310000000 1.0
C      1  0.5032140000000  0.5787310000000  0.4442740000000 1.0
C      1  0.5379360000000  0.4883220000000  0.4464800000000 1.0
C      1  0.5125440000000  0.5734590000000  0.4943640000000 1.0
C      1  0.4814620000000  0.4966410000000  0.4165000000000 1.0
C      1  0.4772000000000  0.5241110000000  0.4272190000000 1.0
C      1  0.5455590000000  0.4833400000000  0.5631110000000 1.0
C      1  0.4288020000000  0.4807300000000  0.4749740000000 1.0
C      1  0.4903880000000  0.4310420000000  0.4956990000000 1.0
C      1  0.4618910000000  0.5120070000000  0.5614920000000 1.0
C      1  0.5567840000000  0.4848000000000  0.4314010000000 1.0
C      1  0.4312110000000  0.4957940000000  0.4491380000000 1.0
C      1  0.4608310000000  0.5414680000000  0.4526070000000 1.0
C      1  0.4954220000000  0.4587300000000  0.4554200000000 1.0
C      1  0.4775950000000  0.4464530000000  0.4744080000000 1.0
C      1  0.5153110000000  0.4817710000000  0.4619040000000 1.0
C      1  0.4519030000000  0.4781630000000  0.4405860000000 1.0
C      1  0.5155930000000  0.4389760000000  0.4850280000000 1.0
C      1  0.4173500000000  0.4938310000000  0.4985870000000 1.0
C      1  0.5507140000000  0.4596160000000  0.5467560000000 1.0
C      1  0.4440780000000  0.5212320000000  0.4525450000000 1.0
C      1  0.5816050000000  0.5031350000000  0.5020560000000 1.0
C      1  0.5514730000000  0.5412110000000  0.4735410000000 1.0
C      1  0.5733320000000  0.4617560000000  0.5271380000000 1.0
C      1  0.5678850000000  0.4479840000000  0.5014240000000 1.0
C      1  0.4678620000000  0.5597190000000  0.4742020000000 1.0
C      1  0.5417440000000  0.5149280000000  0.5262980000000 1.0
C      1  0.4850120000000  0.4377520000000  0.5240160000000 1.0
C      1  0.4509320000000  0.5128800000000  0.5342130000000 1.0
C      1  0.4590980000000  0.5532880000000  0.5025270000000 1.0
C      1  0.4334820000000  0.4902940000000  0.5245310000000 1.0
C      1  0.4589110000000  0.4632320000000  0.5570620000000 1.0
END
