TITL C-4164235-1454-260 17.7656194691335 125000 -19603.0990344414 0 0 133 (C1) n - 1
REM
REM in /home/nfs/bkarasulu/CARBON/AIRSS/Generating-Clusters/ReaxFF-fromJPCA2015/Units_Real/with-SteepDescent/Only-C1/SD-CG/Try1-3A/FIRE-CG
REM
REM
REM
REM
REM
REM ./C.cell (11c1c37f851c82e70ff6c80c92926a4b)
REM
REM compiler GCC version 9.2.1 20190827 (Red Hat 9.2.1-1)
REM options -cpp -mtune=generic -march=x86-64 -g -O0 -fpre-include=/usr/include/finclude/math-vector-fortran.h
REM seed -1231644271 -727036088 -1219870362 -487120265 1126918010 -96540792 -845181648 -636886725 -2005498763 -742221151 -287294242 -162914307 -903352639 -2124671400 936818293 1062117261 -1843716124 1366199668 -2046992473 -1839003406 1596466599 -1276088539 1179860866 -29459922 -1097050584 294627551 1026334342 1095347715 -236142628 19498700 -895220203 1937266746 1522852852
REM
CELL 1.54180   50.00000   50.00000   50.00000   90.00000   90.00000   90.00000
LATT -1
SFAC C  
C      1  0.5306360000000  0.5801680000000  0.5414870000000 1.0
C      1  0.3988100000000  0.4832250000000  0.5177910000000 1.0
C      1  0.4885630000000  0.5203720000000  0.5919090000000 1.0
C      1  0.4098890000000  0.4667430000000  0.4652240000000 1.0
C      1  0.4980650000000  0.4043330000000  0.5323140000000 1.0
C      1  0.5142530000000  0.4907570000000  0.4888430000000 1.0
C      1  0.4402740000000  0.4861360000000  0.4312060000000 1.0
C      1  0.5308680000000  0.5016450000000  0.4089670000000 1.0
C      1  0.5445840000000  0.4294300000000  0.5352340000000 1.0
C      1  0.5375870000000  0.5847910000000  0.5134530000000 1.0
C      1  0.5685230000000  0.5582510000000  0.4521910000000 1.0
C      1  0.4290840000000  0.4462810000000  0.4606200000000 1.0
C      1  0.5208080000000  0.5653310000000  0.4322220000000 1.0
C      1  0.4538550000000  0.5119370000000  0.5613860000000 1.0
C      1  0.4895750000000  0.5335350000000  0.4135330000000 1.0
C      1  0.4657410000000  0.4961120000000  0.5382610000000 1.0
C      1  0.5343730000000  0.4906090000000  0.4678580000000 1.0
C      1  0.5413010000000  0.5044700000000  0.5177920000000 1.0
C      1  0.4222910000000  0.4833580000000  0.5666740000000 1.0
C      1  0.5538050000000  0.5185390000000  0.5713720000000 1.0
C      1  0.4223700000000  0.5297820000000  0.5302780000000 1.0
C      1  0.4428790000000  0.4879390000000  0.4846890000000 1.0
C      1  0.4772230000000  0.4196660000000  0.4558860000000 1.0
C      1  0.4961650000000  0.5333360000000  0.5210810000000 1.0
C      1  0.4712460000000  0.4428600000000  0.4381370000000 1.0
C      1  0.4403460000000  0.5588010000000  0.4629810000000 1.0
C      1  0.5736070000000  0.4635420000000  0.4603490000000 1.0
C      1  0.5231750000000  0.4582770000000  0.4581490000000 1.0
C      1  0.5070820000000  0.5867580000000  0.5603690000000 1.0
C      1  0.5107680000000  0.5356010000000  0.5922140000000 1.0
C      1  0.4584330000000  0.4563120000000  0.4609110000000 1.0
C      1  0.6001710000000  0.4807310000000  0.4981020000000 1.0
C      1  0.5222230000000  0.4305340000000  0.4781760000000 1.0
C      1  0.5388080000000  0.4260890000000  0.5066310000000 1.0
C      1  0.4999440000000  0.5345180000000  0.4813590000000 1.0
C      1  0.5284390000000  0.5115650000000  0.5842460000000 1.0
C      1  0.5316680000000  0.4395140000000  0.5609810000000 1.0
C      1  0.5462900000000  0.5504760000000  0.4316170000000 1.0
C      1  0.4794860000000  0.5179410000000  0.4354220000000 1.0
C      1  0.5276280000000  0.5385150000000  0.4745370000000 1.0
C      1  0.4385650000000  0.4667380000000  0.5030690000000 1.0
C      1  0.4692420000000  0.5661800000000  0.4548970000000 1.0
C      1  0.4901100000000  0.5073840000000  0.4792490000000 1.0
C      1  0.4964810000000  0.4657700000000  0.5801260000000 1.0
C      1  0.5488460000000  0.5245130000000  0.4957200000000 1.0
C      1  0.4606550000000  0.5965640000000  0.5283240000000 1.0
C      1  0.5461740000000  0.4792850000000  0.4206780000000 1.0
C      1  0.4562540000000  0.5301530000000  0.5021420000000 1.0
C      1  0.4990790000000  0.5011250000000  0.4485650000000 1.0
C      1  0.4705010000000  0.5496560000000  0.5542480000000 1.0
C      1  0.5733760000000  0.4999700000000  0.5601500000000 1.0
C      1  0.4430640000000  0.4753440000000  0.5300120000000 1.0
C      1  0.4667400000000  0.5565930000000  0.4932490000000 1.0
C      1  0.4169950000000  0.4893470000000  0.4486690000000 1.0
C      1  0.5046740000000  0.4384450000000  0.5714770000000 1.0
C      1  0.6056880000000  0.5014140000000  0.4808400000000 1.0
C      1  0.4389460000000  0.4272640000000  0.5206300000000 1.0
C      1  0.4929210000000  0.6040560000000  0.4867210000000 1.0
C      1  0.4776390000000  0.5929080000000  0.4636130000000 1.0
C      1  0.4896430000000  0.4166530000000  0.5052680000000 1.0
C      1  0.6013580000000  0.5215690000000  0.4620870000000 1.0
C      1  0.5710530000000  0.4744590000000  0.4885920000000 1.0
C      1  0.4878090000000  0.4185650000000  0.5556690000000 1.0
C      1  0.4936590000000  0.5539140000000  0.5008240000000 1.0
C      1  0.4178590000000  0.4313160000000  0.5019820000000 1.0
C      1  0.5208730000000  0.4827590000000  0.5815930000000 1.0
C      1  0.5485610000000  0.4756660000000  0.5141580000000 1.0
C      1  0.4129010000000  0.5453280000000  0.5068690000000 1.0
C      1  0.4147130000000  0.4860510000000  0.5904380000000 1.0
C      1  0.5848030000000  0.5444370000000  0.4713660000000 1.0
C      1  0.4957560000000  0.4512950000000  0.5047580000000 1.0
C      1  0.4335710000000  0.5129030000000  0.4950740000000 1.0
C      1  0.5585350000000  0.5808340000000  0.4679720000000 1.0
C      1  0.5405790000000  0.4652850000000  0.5692060000000 1.0
C      1  0.5322230000000  0.5823940000000  0.4532250000000 1.0
C      1  0.4987600000000  0.4147560000000  0.4752020000000 1.0
C      1  0.5283990000000  0.5520360000000  0.5472500000000 1.0
C      1  0.4437650000000  0.4637950000000  0.5727360000000 1.0
C      1  0.5123420000000  0.5807690000000  0.4951470000000 1.0
C      1  0.4427500000000  0.5357310000000  0.5500800000000 1.0
C      1  0.4307270000000  0.5356180000000  0.4497650000000 1.0
C      1  0.4157820000000  0.4977180000000  0.5353670000000 1.0
C      1  0.5661170000000  0.4243520000000  0.4995150000000 1.0
C      1  0.4926480000000  0.5558920000000  0.4318650000000 1.0
C      1  0.5340270000000  0.4543330000000  0.4307550000000 1.0
C      1  0.4616910000000  0.4677010000000  0.4215760000000 1.0
C      1  0.4897850000000  0.4594540000000  0.5320930000000 1.0
C      1  0.4624810000000  0.5007470000000  0.4700630000000 1.0
C      1  0.4933960000000  0.4857090000000  0.5421820000000 1.0
C      1  0.4566480000000  0.4116270000000  0.4756220000000 1.0
C      1  0.5587630000000  0.5744190000000  0.4971460000000 1.0
C      1  0.4498430000000  0.5774510000000  0.5056970000000 1.0
C      1  0.5711770000000  0.5459360000000  0.5009510000000 1.0
C      1  0.4591310000000  0.4135620000000  0.5049210000000 1.0
C      1  0.4093320000000  0.4621870000000  0.4966710000000 1.0
C      1  0.5979920000000  0.4826190000000  0.5276130000000 1.0
C      1  0.4518000000000  0.5117460000000  0.4436480000000 1.0
C      1  0.4828400000000  0.4838510000000  0.4084000000000 1.0
C      1  0.5015080000000  0.5053820000000  0.4039070000000 1.0
C      1  0.5659330000000  0.4148980000000  0.4715380000000 1.0
C      1  0.4106830000000  0.5176400000000  0.4588710000000 1.0
C      1  0.5168380000000  0.5006980000000  0.5341000000000 1.0
C      1  0.4774830000000  0.5640610000000  0.5773500000000 1.0
C      1  0.5733750000000  0.4335290000000  0.5283380000000 1.0
C      1  0.4280910000000  0.5660460000000  0.4903200000000 1.0
C      1  0.5547440000000  0.5378090000000  0.5487510000000 1.0
C      1  0.4823090000000  0.5927820000000  0.5472000000000 1.0
C      1  0.5377740000000  0.4141850000000  0.4608260000000 1.0
C      1  0.4773440000000  0.6087090000000  0.5094950000000 1.0
C      1  0.5220520000000  0.5673050000000  0.4730370000000 1.0
C      1  0.5206570000000  0.4691030000000  0.5055900000000 1.0
C      1  0.4686000000000  0.4744460000000  0.5837600000000 1.0
C      1  0.4453480000000  0.4491490000000  0.5441470000000 1.0
C      1  0.5841910000000  0.4588740000000  0.5382290000000 1.0
C      1  0.4736510000000  0.5164810000000  0.5184300000000 1.0
C      1  0.5899400000000  0.5098040000000  0.5381430000000 1.0
C      1  0.4807680000000  0.4616470000000  0.4791990000000 1.0
C      1  0.5605520000000  0.4745360000000  0.5482430000000 1.0
C      1  0.5603570000000  0.5007920000000  0.4775370000000 1.0
C      1  0.4285410000000  0.4216120000000  0.4759470000000 1.0
C      1  0.5261710000000  0.5140450000000  0.4510750000000 1.0
C      1  0.5763180000000  0.5341810000000  0.5294020000000 1.0
C      1  0.4966360000000  0.4708340000000  0.4568180000000 1.0
C      1  0.5705090000000  0.4826120000000  0.4386000000000 1.0
C      1  0.4723270000000  0.4418380000000  0.5465250000000 1.0
C      1  0.5766460000000  0.5077940000000  0.4519540000000 1.0
C      1  0.4070640000000  0.5236360000000  0.4875370000000 1.0
C      1  0.4658650000000  0.5044940000000  0.5869160000000 1.0
C      1  0.5425370000000  0.5217190000000  0.4265710000000 1.0
C      1  0.4990680000000  0.5423020000000  0.5483200000000 1.0
C      1  0.5727290000000  0.4354050000000  0.4518090000000 1.0
C      1  0.5478050000000  0.4293860000000  0.4368240000000 1.0
C      1  0.5047110000000  0.5653410000000  0.5845110000000 1.0
END
