TITL C-4164241-3639-481 23.6820581079637 125000 -19502.2477801276 0 0 132 (C1) n - 1
REM
REM in /home/nfs/bkarasulu/CARBON/AIRSS/Generating-Clusters/ReaxFF-fromJPCA2015/Units_Real/with-SteepDescent/Only-C1/SD-CG/Try1-3A/FIRE-CG
REM
REM
REM
REM
REM
REM ./C.cell (11c1c37f851c82e70ff6c80c92926a4b)
REM
REM compiler GCC version 9.2.1 20190827 (Red Hat 9.2.1-1)
REM options -cpp -mtune=generic -march=x86-64 -g -O0 -fpre-include=/usr/include/finclude/math-vector-fortran.h
REM seed -1900942745 -676097654 1579556968 1156714069 1049222397 896924141 -704146707 1224014394 -796142055 1971937345 1185476400 424846895 -1022248550 -801600215 -190156614 -323209410 -1726062489 1452520923 -579790756 1044288964 1289497790 -305225402 1103488240 1947917000 2146555190 1853667033 680264233 -676649329 1123549653 1146007328 -1135535746 -801303675 716130625
REM
CELL 1.54180   50.00000   50.00000   50.00000   90.00000   90.00000   90.00000
LATT -1
SFAC C  
C      1  0.5428050000000  0.4540360000000  0.5785070000000 1.0
C      1  0.4537230000000  0.4330330000000  0.4483890000000 1.0
C      1  0.5092980000000  0.5452000000000  0.4086660000000 1.0
C      1  0.5770170000000  0.5203140000000  0.5462190000000 1.0
C      1  0.4930830000000  0.5109350000000  0.5390520000000 1.0
C      1  0.5087400000000  0.5820840000000  0.5788470000000 1.0
C      1  0.5507350000000  0.4172250000000  0.4887440000000 1.0
C      1  0.4423770000000  0.4198560000000  0.5327210000000 1.0
C      1  0.5257860000000  0.5723490000000  0.4364710000000 1.0
C      1  0.5705760000000  0.5780010000000  0.4886080000000 1.0
C      1  0.5503470000000  0.4292550000000  0.4624590000000 1.0
C      1  0.6038880000000  0.5015290000000  0.5205970000000 1.0
C      1  0.5288660000000  0.5188940000000  0.4608020000000 1.0
C      1  0.5372120000000  0.5107500000000  0.5374100000000 1.0
C      1  0.4678930000000  0.4852370000000  0.4482400000000 1.0
C      1  0.4724870000000  0.5806270000000  0.5410570000000 1.0
C      1  0.5486480000000  0.5600550000000  0.5449980000000 1.0
C      1  0.4065070000000  0.4925350000000  0.4743170000000 1.0
C      1  0.5226120000000  0.4684370000000  0.4822200000000 1.0
C      1  0.5403080000000  0.4216130000000  0.5360380000000 1.0
C      1  0.5309730000000  0.4327600000000  0.5611100000000 1.0
C      1  0.5700330000000  0.4496600000000  0.4572690000000 1.0
C      1  0.5945840000000  0.5350300000000  0.4968720000000 1.0
C      1  0.4442940000000  0.5443090000000  0.4383650000000 1.0
C      1  0.5776180000000  0.4505510000000  0.5074640000000 1.0
C      1  0.4566240000000  0.5359080000000  0.5053800000000 1.0
C      1  0.4487270000000  0.5021290000000  0.5813140000000 1.0
C      1  0.4932160000000  0.4731940000000  0.5742650000000 1.0
C      1  0.5145290000000  0.4605740000000  0.4563210000000 1.0
C      1  0.4341270000000  0.4627790000000  0.5569190000000 1.0
C      1  0.4735320000000  0.4388050000000  0.4928970000000 1.0
C      1  0.5242150000000  0.4352610000000  0.4474510000000 1.0
C      1  0.4874680000000  0.4646790000000  0.4529900000000 1.0
C      1  0.5675820000000  0.4924350000000  0.4269340000000 1.0
C      1  0.5325220000000  0.5440430000000  0.4752950000000 1.0
C      1  0.5921770000000  0.4895620000000  0.4734850000000 1.0
C      1  0.5363780000000  0.4549600000000  0.4228240000000 1.0
C      1  0.5850710000000  0.4926850000000  0.5398630000000 1.0
C      1  0.4731230000000  0.5599520000000  0.4480080000000 1.0
C      1  0.4496360000000  0.4771190000000  0.5979090000000 1.0
C      1  0.5000380000000  0.5823250000000  0.5513820000000 1.0
C      1  0.4501430000000  0.4764500000000  0.4992830000000 1.0
C      1  0.4625090000000  0.5418140000000  0.5689700000000 1.0
C      1  0.5613470000000  0.5859940000000  0.5411610000000 1.0
C      1  0.5628010000000  0.4640910000000  0.4323370000000 1.0
C      1  0.4042480000000  0.4820070000000  0.4992000000000 1.0
C      1  0.5278010000000  0.5988350000000  0.5072370000000 1.0
C      1  0.4695740000000  0.4502220000000  0.4679110000000 1.0
C      1  0.5043190000000  0.4874230000000  0.5503110000000 1.0
C      1  0.4980880000000  0.5624100000000  0.4300380000000 1.0
C      1  0.4392240000000  0.5727080000000  0.4889410000000 1.0
C      1  0.4822190000000  0.5442560000000  0.4987270000000 1.0
C      1  0.4883270000000  0.5493320000000  0.4710320000000 1.0
C      1  0.4960760000000  0.5240290000000  0.5130140000000 1.0
C      1  0.4299450000000  0.4915120000000  0.5598040000000 1.0
C      1  0.5012060000000  0.4332230000000  0.5625930000000 1.0
C      1  0.4454740000000  0.5011140000000  0.4116700000000 1.0
C      1  0.4178150000000  0.5290610000000  0.4976230000000 1.0
C      1  0.5584190000000  0.5524820000000  0.5183520000000 1.0
C      1  0.4908100000000  0.3839390000000  0.4929300000000 1.0
C      1  0.5272980000000  0.4513370000000  0.5031100000000 1.0
C      1  0.5091060000000  0.4708670000000  0.5971830000000 1.0
C      1  0.4423610000000  0.5213880000000  0.4842990000000 1.0
C      1  0.4297730000000  0.4460620000000  0.5331740000000 1.0
C      1  0.4519620000000  0.4539500000000  0.5789440000000 1.0
C      1  0.5707930000000  0.5401630000000  0.4525540000000 1.0
C      1  0.5412140000000  0.4634710000000  0.5261370000000 1.0
C      1  0.5780040000000  0.5080410000000  0.4513970000000 1.0
C      1  0.4812610000000  0.4467660000000  0.5793190000000 1.0
C      1  0.4131130000000  0.4965000000000  0.4478510000000 1.0
C      1  0.5602650000000  0.4270820000000  0.5145370000000 1.0
C      1  0.4796630000000  0.5970110000000  0.5171610000000 1.0
C      1  0.5843360000000  0.5384720000000  0.5240490000000 1.0
C      1  0.5497530000000  0.5304220000000  0.5567070000000 1.0
C      1  0.5073640000000  0.5110760000000  0.4455950000000 1.0
C      1  0.4322130000000  0.5170800000000  0.4319400000000 1.0
C      1  0.4656530000000  0.4745760000000  0.5233760000000 1.0
C      1  0.4261850000000  0.4424040000000  0.4554450000000 1.0
C      1  0.5267080000000  0.5956210000000  0.4531760000000 1.0
C      1  0.4134980000000  0.5081250000000  0.5428580000000 1.0
C      1  0.4715400000000  0.4117570000000  0.4567180000000 1.0
C      1  0.4898120000000  0.5045190000000  0.4920820000000 1.0
C      1  0.4223670000000  0.5575330000000  0.5077440000000 1.0
C      1  0.4219810000000  0.5558860000000  0.4355200000000 1.0
C      1  0.4950900000000  0.4327980000000  0.5353260000000 1.0
C      1  0.5497030000000  0.5487200000000  0.4355480000000 1.0
C      1  0.5066860000000  0.4006330000000  0.4761660000000 1.0
C      1  0.4545790000000  0.4173010000000  0.4866850000000 1.0
C      1  0.4209100000000  0.4686860000000  0.4414410000000 1.0
C      1  0.5420680000000  0.5363020000000  0.5008040000000 1.0
C      1  0.4060490000000  0.5068660000000  0.5142180000000 1.0
C      1  0.4604910000000  0.4969660000000  0.4803000000000 1.0
C      1  0.4805780000000  0.5942070000000  0.4881970000000 1.0
C      1  0.5812680000000  0.5532150000000  0.4766100000000 1.0
C      1  0.4510500000000  0.5636860000000  0.5523400000000 1.0
C      1  0.4800390000000  0.4499110000000  0.5188110000000 1.0
C      1  0.5127240000000  0.5639580000000  0.4749560000000 1.0
C      1  0.4454090000000  0.4767240000000  0.4278650000000 1.0
C      1  0.5832290000000  0.4626860000000  0.4801880000000 1.0
C      1  0.4729600000000  0.5072680000000  0.4019980000000 1.0
C      1  0.6056470000000  0.5075900000000  0.4926590000000 1.0
C      1  0.5270950000000  0.5333340000000  0.5822550000000 1.0
C      1  0.4864010000000  0.3936000000000  0.5181560000000 1.0
C      1  0.5176160000000  0.5595090000000  0.5825040000000 1.0
C      1  0.5522950000000  0.4997080000000  0.4664100000000 1.0
C      1  0.4612300000000  0.5806750000000  0.4719300000000 1.0
C      1  0.5481510000000  0.4779400000000  0.5935300000000 1.0
C      1  0.5041940000000  0.5175500000000  0.5890430000000 1.0
C      1  0.5451710000000  0.5043750000000  0.4126250000000 1.0
C      1  0.5694950000000  0.4685610000000  0.5282000000000 1.0
C      1  0.4997280000000  0.4137260000000  0.4520550000000 1.0
C      1  0.4724860000000  0.5218980000000  0.5832770000000 1.0
C      1  0.5563650000000  0.5922780000000  0.5098860000000 1.0
C      1  0.4894750000000  0.5278820000000  0.3985520000000 1.0
C      1  0.5280430000000  0.4793560000000  0.4086010000000 1.0
C      1  0.5129960000000  0.4127930000000  0.5245720000000 1.0
C      1  0.4296830000000  0.4356590000000  0.4827550000000 1.0
C      1  0.5113960000000  0.5936630000000  0.4818310000000 1.0
C      1  0.5072520000000  0.6003280000000  0.5273220000000 1.0
C      1  0.4590590000000  0.4032840000000  0.5140770000000 1.0
C      1  0.4257020000000  0.4579710000000  0.5035150000000 1.0
C      1  0.5348980000000  0.5114100000000  0.5097250000000 1.0
C      1  0.4267740000000  0.5578040000000  0.5365140000000 1.0
C      1  0.5317540000000  0.4836680000000  0.5440370000000 1.0
C      1  0.4862630000000  0.5030060000000  0.4312130000000 1.0
C      1  0.5221600000000  0.4215000000000  0.4975140000000 1.0
C      1  0.4667110000000  0.5000830000000  0.5394680000000 1.0
C      1  0.5372100000000  0.5328260000000  0.4161200000000 1.0
C      1  0.4280760000000  0.5317000000000  0.5451780000000 1.0
C      1  0.4517520000000  0.5231120000000  0.5311650000000 1.0
C      1  0.5201170000000  0.4964610000000  0.6005110000000 1.0
C      1  0.5160270000000  0.4951330000000  0.4926620000000 1.0
END
