TITL C-4164238-4211-348 30.1931123886766 125000 -18273.4596795351 0 0 125 (C1) n - 1
REM
REM in /home/nfs/bkarasulu/CARBON/AIRSS/Generating-Clusters/ReaxFF-fromJPCA2015/Units_Real/with-SteepDescent/Only-C1/SD-CG/Try1-3A/FIRE-CG
REM
REM
REM
REM
REM
REM ./C.cell (11c1c37f851c82e70ff6c80c92926a4b)
REM
REM compiler GCC version 9.2.1 20190827 (Red Hat 9.2.1-1)
REM options -cpp -mtune=generic -march=x86-64 -g -O0 -fpre-include=/usr/include/finclude/math-vector-fortran.h
REM seed -684004820 -1145270760 -724791879 -370160389 -1650274427 -1624701942 -1837161012 -862084871 1781452874 -591898806 -1088483398 -2037761103 -180365417 376969790 1298935372 100394727 -32735947 1995764614 57341624 -49156096 470135551 1848525850 337398912 1579000379 -1137626937 -1563651644 -761832199 1227597307 1458784045 -2108191153 -1639148887 1459380491 -754575537
REM
CELL 1.54180   50.00000   50.00000   50.00000   90.00000   90.00000   90.00000
LATT -1
SFAC C  
C      1  0.5405180000000  0.4744960000000  0.4508240000000 1.0
C      1  0.5545420000000  0.5309110000000  0.4483070000000 1.0
C      1  0.4369800000000  0.5222600000000  0.5743740000000 1.0
C      1  0.5235310000000  0.4332240000000  0.5668960000000 1.0
C      1  0.5693010000000  0.5308930000000  0.5824610000000 1.0
C      1  0.5761710000000  0.4378880000000  0.4733580000000 1.0
C      1  0.4025090000000  0.4959920000000  0.4970120000000 1.0
C      1  0.4835230000000  0.5519650000000  0.5788370000000 1.0
C      1  0.4097220000000  0.5471810000000  0.4843240000000 1.0
C      1  0.5500190000000  0.4391120000000  0.4311990000000 1.0
C      1  0.4698030000000  0.4589250000000  0.4841890000000 1.0
C      1  0.5888620000000  0.5335760000000  0.5115580000000 1.0
C      1  0.4323700000000  0.4746430000000  0.5649100000000 1.0
C      1  0.4474200000000  0.4564300000000  0.4312220000000 1.0
C      1  0.4908770000000  0.4155590000000  0.4565360000000 1.0
C      1  0.5507450000000  0.5293930000000  0.5393870000000 1.0
C      1  0.5416140000000  0.5260380000000  0.4221420000000 1.0
C      1  0.4678730000000  0.4263870000000  0.4766750000000 1.0
C      1  0.5076700000000  0.4740740000000  0.5238320000000 1.0
C      1  0.5108390000000  0.5020960000000  0.5321040000000 1.0
C      1  0.5624660000000  0.4382720000000  0.5403800000000 1.0
C      1  0.5186100000000  0.4823150000000  0.4107410000000 1.0
C      1  0.5163000000000  0.4317100000000  0.4691600000000 1.0
C      1  0.4812340000000  0.5415160000000  0.4758040000000 1.0
C      1  0.4177180000000  0.5839470000000  0.5073790000000 1.0
C      1  0.4467710000000  0.5252310000000  0.4935130000000 1.0
C      1  0.4753070000000  0.4234860000000  0.5527410000000 1.0
C      1  0.4161560000000  0.5189540000000  0.5534160000000 1.0
C      1  0.5257160000000  0.4725040000000  0.5017730000000 1.0
C      1  0.4297820000000  0.4568530000000  0.5154140000000 1.0
C      1  0.4583260000000  0.4813790000000  0.5587630000000 1.0
C      1  0.4429640000000  0.4693110000000  0.4917550000000 1.0
C      1  0.5399480000000  0.5774370000000  0.4708710000000 1.0
C      1  0.5394660000000  0.5155460000000  0.4697740000000 1.0
C      1  0.4513720000000  0.4971260000000  0.4986430000000 1.0
C      1  0.5820890000000  0.4535910000000  0.5248450000000 1.0
C      1  0.5614370000000  0.5613990000000  0.4769750000000 1.0
C      1  0.4461530000000  0.5901260000000  0.5041610000000 1.0
C      1  0.5829190000000  0.5451690000000  0.4829690000000 1.0
C      1  0.5287310000000  0.4192050000000  0.4935550000000 1.0
C      1  0.4979030000000  0.4671450000000  0.4240910000000 1.0
C      1  0.5039810000000  0.5306610000000  0.5724790000000 1.0
C      1  0.4641600000000  0.4189300000000  0.5059230000000 1.0
C      1  0.5582310000000  0.4913400000000  0.4337210000000 1.0
C      1  0.4858630000000  0.4189470000000  0.5249860000000 1.0
C      1  0.4729960000000  0.4477010000000  0.4197440000000 1.0
C      1  0.4982340000000  0.5301430000000  0.4965450000000 1.0
C      1  0.5891550000000  0.5080010000000  0.5217840000000 1.0
C      1  0.4293800000000  0.4414870000000  0.4502550000000 1.0
C      1  0.5147210000000  0.4429720000000  0.4219670000000 1.0
C      1  0.4056290000000  0.4825920000000  0.4727490000000 1.0
C      1  0.4577080000000  0.5422560000000  0.5163410000000 1.0
C      1  0.5003250000000  0.5889570000000  0.4896110000000 1.0
C      1  0.4244800000000  0.5638660000000  0.4649340000000 1.0
C      1  0.4867620000000  0.5711170000000  0.4700350000000 1.0
C      1  0.5158960000000  0.4196470000000  0.5197020000000 1.0
C      1  0.4093250000000  0.4798110000000  0.5206010000000 1.0
C      1  0.5337270000000  0.5952350000000  0.5224400000000 1.0
C      1  0.4906070000000  0.5269700000000  0.4524200000000 1.0
C      1  0.4701940000000  0.5564560000000  0.4305030000000 1.0
C      1  0.4976150000000  0.5694590000000  0.5585280000000 1.0
C      1  0.5858790000000  0.5456250000000  0.5633980000000 1.0
C      1  0.5330780000000  0.5559350000000  0.4232050000000 1.0
C      1  0.5325300000000  0.5190840000000  0.5215480000000 1.0
C      1  0.4579970000000  0.4627460000000  0.5359700000000 1.0
C      1  0.5550020000000  0.4179630000000  0.4787530000000 1.0
C      1  0.5168650000000  0.5094630000000  0.4213980000000 1.0
C      1  0.5431290000000  0.4712380000000  0.4205660000000 1.0
C      1  0.5109990000000  0.5077780000000  0.4502990000000 1.0
C      1  0.4917580000000  0.4266540000000  0.4264530000000 1.0
C      1  0.4151610000000  0.4640020000000  0.4571320000000 1.0
C      1  0.5215380000000  0.5719210000000  0.4447080000000 1.0
C      1  0.5737140000000  0.4498460000000  0.4463720000000 1.0
C      1  0.5843280000000  0.4547960000000  0.4958320000000 1.0
C      1  0.5498210000000  0.5134130000000  0.5635730000000 1.0
C      1  0.5851070000000  0.4830100000000  0.5353400000000 1.0
C      1  0.4393110000000  0.4267870000000  0.4735420000000 1.0
C      1  0.4564670000000  0.5086250000000  0.4248700000000 1.0
C      1  0.4359760000000  0.4298680000000  0.5024210000000 1.0
C      1  0.5829600000000  0.4776700000000  0.4415130000000 1.0
C      1  0.5619290000000  0.4587380000000  0.5615810000000 1.0
C      1  0.4186740000000  0.5193030000000  0.4859370000000 1.0
C      1  0.4799860000000  0.5287460000000  0.4253110000000 1.0
C      1  0.4139160000000  0.4903000000000  0.5465810000000 1.0
C      1  0.4163740000000  0.5434110000000  0.5371360000000 1.0
C      1  0.4661230000000  0.5703400000000  0.5124960000000 1.0
C      1  0.4548430000000  0.4835370000000  0.4408240000000 1.0
C      1  0.5409200000000  0.4225950000000  0.4534310000000 1.0
C      1  0.4734330000000  0.4787630000000  0.4624290000000 1.0
C      1  0.4950370000000  0.5740940000000  0.5139910000000 1.0
C      1  0.4073820000000  0.5569730000000  0.5121250000000 1.0
C      1  0.5826260000000  0.5310380000000  0.4571190000000 1.0
C      1  0.4413330000000  0.5549880000000  0.4411950000000 1.0
C      1  0.4911990000000  0.5738430000000  0.4418180000000 1.0
C      1  0.5166680000000  0.5558670000000  0.5237300000000 1.0
C      1  0.5881890000000  0.5010380000000  0.4590050000000 1.0
C      1  0.4541970000000  0.4422950000000  0.5560880000000 1.0
C      1  0.4952190000000  0.4307830000000  0.5742150000000 1.0
C      1  0.4805560000000  0.4679800000000  0.5159220000000 1.0
C      1  0.4393300000000  0.5289900000000  0.4326470000000 1.0
C      1  0.5648210000000  0.4988710000000  0.4762940000000 1.0
C      1  0.5266560000000  0.5279420000000  0.4941870000000 1.0
C      1  0.4727930000000  0.4942590000000  0.5138310000000 1.0
C      1  0.5472010000000  0.4800100000000  0.5155340000000 1.0
C      1  0.5741680000000  0.5463400000000  0.5347960000000 1.0
C      1  0.5395050000000  0.4534970000000  0.5803250000000 1.0
C      1  0.5207840000000  0.5864420000000  0.5487500000000 1.0
C      1  0.5052220000000  0.5438390000000  0.5456750000000 1.0
C      1  0.4453570000000  0.4948310000000  0.5803500000000 1.0
C      1  0.5184460000000  0.5009180000000  0.5979280000000 1.0
C      1  0.4975610000000  0.4790350000000  0.5962970000000 1.0
C      1  0.5211490000000  0.4659500000000  0.4710050000000 1.0
C      1  0.4879570000000  0.5162240000000  0.5210650000000 1.0
C      1  0.5411420000000  0.5697200000000  0.5344710000000 1.0
C      1  0.4870030000000  0.4514510000000  0.5941230000000 1.0
C      1  0.5295660000000  0.5214220000000  0.5818200000000 1.0
C      1  0.5348350000000  0.4268730000000  0.5406830000000 1.0
C      1  0.4447100000000  0.5487100000000  0.5426440000000 1.0
C      1  0.5288040000000  0.5935480000000  0.4930970000000 1.0
C      1  0.4564740000000  0.5440450000000  0.5694310000000 1.0
C      1  0.5000110000000  0.4808360000000  0.4552640000000 1.0
C      1  0.5575310000000  0.4845380000000  0.5464250000000 1.0
C      1  0.5268800000000  0.4732680000000  0.5977860000000 1.0
C      1  0.4288770000000  0.5879280000000  0.4802260000000 1.0
C      1  0.5677450000000  0.4796420000000  0.4953810000000 1.0
END
