TITL C-4164234-2335-20 20.9434031603681 125000 -26704.3091938918 0 0 180 (C1) n - 1
REM
REM in /home/nfs/bkarasulu/CARBON/AIRSS/Generating-Clusters/ReaxFF-fromJPCA2015/Units_Real/with-SteepDescent/Only-C1/SD-CG/Try1-3A/FIRE-CG
REM
REM
REM
REM
REM
REM ./C.cell (11c1c37f851c82e70ff6c80c92926a4b)
REM
REM compiler GCC version 9.2.1 20190827 (Red Hat 9.2.1-1)
REM options -cpp -mtune=generic -march=x86-64 -g -O0 -fpre-include=/usr/include/finclude/math-vector-fortran.h
REM seed -1898954919 423814376 116056452 -518265 269341839 1059424651 -690708386 -1056709892 -2147099139 -617639955 1027560190 1718170172 1191912466 1637052807 -1457361963 -1500185838 263143310 489610747 617308171 981370517 106536236 -757396041 -1459372273 -1677651569 -1165050088 -1284425500 71916788 1177269019 215781712 -1541754696 1783775516 -1003590859 1904993112
REM
CELL 1.54180   50.00000   50.00000   50.00000   90.00000   90.00000   90.00000
LATT -1
SFAC C  
C      1  0.4341290000000  0.6060580000000  0.5113680000000 1.0
C      1  0.4674660000000  0.5229380000000  0.4268340000000 1.0
C      1  0.5145730000000  0.5674690000000  0.5626040000000 1.0
C      1  0.4027260000000  0.5144810000000  0.5214570000000 1.0
C      1  0.4679260000000  0.4020920000000  0.5437520000000 1.0
C      1  0.5320850000000  0.4493140000000  0.4744550000000 1.0
C      1  0.4905310000000  0.5115280000000  0.4470630000000 1.0
C      1  0.4679090000000  0.5728040000000  0.4328250000000 1.0
C      1  0.4141760000000  0.4339570000000  0.4431310000000 1.0
C      1  0.5985220000000  0.5465550000000  0.4813900000000 1.0
C      1  0.4722650000000  0.6200770000000  0.5007990000000 1.0
C      1  0.5551330000000  0.4205880000000  0.5772670000000 1.0
C      1  0.4446860000000  0.5150100000000  0.5256290000000 1.0
C      1  0.4196770000000  0.5541600000000  0.4491400000000 1.0
C      1  0.5065480000000  0.5698210000000  0.4917190000000 1.0
C      1  0.5415260000000  0.5976240000000  0.4875040000000 1.0
C      1  0.4914530000000  0.4955980000000  0.5774100000000 1.0
C      1  0.5278920000000  0.4032830000000  0.4417910000000 1.0
C      1  0.5625310000000  0.5809460000000  0.4760380000000 1.0
C      1  0.5445280000000  0.4720820000000  0.4177870000000 1.0
C      1  0.4305460000000  0.4235620000000  0.4690060000000 1.0
C      1  0.5429940000000  0.5060160000000  0.4204630000000 1.0
C      1  0.4920400000000  0.4320100000000  0.4993480000000 1.0
C      1  0.5862600000000  0.5711750000000  0.4905620000000 1.0
C      1  0.5232880000000  0.5232790000000  0.4084460000000 1.0
C      1  0.5534720000000  0.5872360000000  0.5382050000000 1.0
C      1  0.3776230000000  0.5272840000000  0.4755450000000 1.0
C      1  0.5102710000000  0.5955940000000  0.5589940000000 1.0
C      1  0.4591100000000  0.4711300000000  0.4981210000000 1.0
C      1  0.4862060000000  0.4642860000000  0.4320200000000 1.0
C      1  0.5014790000000  0.5086260000000  0.3968610000000 1.0
C      1  0.4532740000000  0.5606190000000  0.5442960000000 1.0
C      1  0.5831450000000  0.4846660000000  0.4626950000000 1.0
C      1  0.5186910000000  0.6051550000000  0.4705790000000 1.0
C      1  0.4620430000000  0.4284330000000  0.5546830000000 1.0
C      1  0.4343440000000  0.5406490000000  0.5352140000000 1.0
C      1  0.5953880000000  0.4597170000000  0.4706070000000 1.0
C      1  0.4720830000000  0.5116410000000  0.4013760000000 1.0
C      1  0.4673980000000  0.5494210000000  0.4151350000000 1.0
C      1  0.4462070000000  0.5250370000000  0.5927970000000 1.0
C      1  0.5028540000000  0.4461870000000  0.5881500000000 1.0
C      1  0.5731090000000  0.4590410000000  0.5336730000000 1.0
C      1  0.5384050000000  0.4272380000000  0.4261300000000 1.0
C      1  0.3819840000000  0.5001980000000  0.4680200000000 1.0
C      1  0.6109880000000  0.4805860000000  0.5175230000000 1.0
C      1  0.4157280000000  0.4281590000000  0.4960510000000 1.0
C      1  0.4706880000000  0.5414140000000  0.5874330000000 1.0
C      1  0.4744640000000  0.4538420000000  0.5912810000000 1.0
C      1  0.4064230000000  0.5447540000000  0.4756610000000 1.0
C      1  0.4921710000000  0.4132070000000  0.4204540000000 1.0
C      1  0.4264540000000  0.4407580000000  0.5381040000000 1.0
C      1  0.5400620000000  0.5617870000000  0.5518320000000 1.0
C      1  0.5737090000000  0.4624810000000  0.5627840000000 1.0
C      1  0.4557300000000  0.4871190000000  0.4022730000000 1.0
C      1  0.5945060000000  0.5683550000000  0.5186860000000 1.0
C      1  0.5650040000000  0.5183200000000  0.4078900000000 1.0
C      1  0.4737920000000  0.5076370000000  0.4697060000000 1.0
C      1  0.4926080000000  0.5528720000000  0.4736550000000 1.0
C      1  0.4760910000000  0.5550140000000  0.5235960000000 1.0
C      1  0.5501540000000  0.3976300000000  0.4609320000000 1.0
C      1  0.4687380000000  0.6048100000000  0.4746520000000 1.0
C      1  0.4697770000000  0.3966400000000  0.4926460000000 1.0
C      1  0.4709770000000  0.5071200000000  0.5328100000000 1.0
C      1  0.3960670000000  0.5083500000000  0.4432350000000 1.0
C      1  0.4168870000000  0.5363180000000  0.5814780000000 1.0
C      1  0.5322730000000  0.5727850000000  0.4352230000000 1.0
C      1  0.5748380000000  0.4905120000000  0.4905200000000 1.0
C      1  0.5147980000000  0.5494690000000  0.4251740000000 1.0
C      1  0.4335920000000  0.4992570000000  0.5908750000000 1.0
C      1  0.4897500000000  0.5300090000000  0.5305750000000 1.0
C      1  0.6059360000000  0.4953200000000  0.5429710000000 1.0
C      1  0.4791080000000  0.4699070000000  0.4040550000000 1.0
C      1  0.5156160000000  0.4315410000000  0.4115330000000 1.0
C      1  0.5615890000000  0.4788100000000  0.5145670000000 1.0
C      1  0.4261590000000  0.5044900000000  0.5047770000000 1.0
C      1  0.4252700000000  0.4477530000000  0.4204740000000 1.0
C      1  0.5210550000000  0.3933320000000  0.5160900000000 1.0
C      1  0.5546120000000  0.4312360000000  0.4823560000000 1.0
C      1  0.4182680000000  0.5281380000000  0.4364730000000 1.0
C      1  0.5063180000000  0.4255720000000  0.5675360000000 1.0
C      1  0.5784270000000  0.5582990000000  0.5667470000000 1.0
C      1  0.5181770000000  0.5217840000000  0.5618130000000 1.0
C      1  0.5043880000000  0.4846490000000  0.5550810000000 1.0
C      1  0.5912740000000  0.5323830000000  0.5681320000000 1.0
C      1  0.5251780000000  0.5505860000000  0.5009880000000 1.0
C      1  0.4400640000000  0.4754550000000  0.4766650000000 1.0
C      1  0.4894940000000  0.6062140000000  0.5209640000000 1.0
C      1  0.4361820000000  0.4763970000000  0.4216160000000 1.0
C      1  0.5929740000000  0.5270410000000  0.5029840000000 1.0
C      1  0.5538070000000  0.4487450000000  0.5820790000000 1.0
C      1  0.4439760000000  0.5893730000000  0.4718960000000 1.0
C      1  0.5413230000000  0.4097800000000  0.5487320000000 1.0
C      1  0.5562590000000  0.5679510000000  0.4498010000000 1.0
C      1  0.5927350000000  0.5349970000000  0.4554780000000 1.0
C      1  0.6019340000000  0.4987390000000  0.4975730000000 1.0
C      1  0.5214430000000  0.4561670000000  0.5302810000000 1.0
C      1  0.5208780000000  0.4958590000000  0.4802690000000 1.0
C      1  0.5160680000000  0.3925390000000  0.5448130000000 1.0
C      1  0.4077200000000  0.5624300000000  0.5002360000000 1.0
C      1  0.4710220000000  0.5505530000000  0.4910820000000 1.0
C      1  0.5105390000000  0.5350560000000  0.6000960000000 1.0
C      1  0.3996220000000  0.5193430000000  0.5630840000000 1.0
C      1  0.4785940000000  0.4151500000000  0.4477650000000 1.0
C      1  0.5795670000000  0.5760930000000  0.5425220000000 1.0
C      1  0.5476900000000  0.4039040000000  0.5210360000000 1.0
C      1  0.4550050000000  0.4018960000000  0.5174680000000 1.0
C      1  0.4674970000000  0.4166120000000  0.4081090000000 1.0
C      1  0.4932740000000  0.4985380000000  0.4884440000000 1.0
C      1  0.5434860000000  0.5336420000000  0.5328580000000 1.0
C      1  0.5791910000000  0.4444360000000  0.4509350000000 1.0
C      1  0.4565370000000  0.5624320000000  0.5731160000000 1.0
C      1  0.4295600000000  0.4514850000000  0.5650220000000 1.0
C      1  0.4394470000000  0.4872760000000  0.4482690000000 1.0
C      1  0.4240170000000  0.5862350000000  0.4946100000000 1.0
C      1  0.5574830000000  0.4509110000000  0.4310070000000 1.0
C      1  0.5781150000000  0.5094490000000  0.5810300000000 1.0
C      1  0.4030350000000  0.4960840000000  0.5453030000000 1.0
C      1  0.5320960000000  0.5205650000000  0.4669530000000 1.0
C      1  0.5216810000000  0.3959970000000  0.4695650000000 1.0
C      1  0.4279950000000  0.5231840000000  0.4829520000000 1.0
C      1  0.5678330000000  0.5417540000000  0.4417640000000 1.0
C      1  0.4897540000000  0.5626540000000  0.4172280000000 1.0
C      1  0.4912100000000  0.5951750000000  0.4593200000000 1.0
C      1  0.5887350000000  0.4868480000000  0.5656430000000 1.0
C      1  0.5522020000000  0.5561830000000  0.5776470000000 1.0
C      1  0.4429680000000  0.5714930000000  0.4490460000000 1.0
C      1  0.4548790000000  0.4468050000000  0.5334340000000 1.0
C      1  0.4507260000000  0.6208060000000  0.5189730000000 1.0
C      1  0.5314230000000  0.4894730000000  0.6001170000000 1.0
C      1  0.5407110000000  0.6023230000000  0.5172450000000 1.0
C      1  0.4810390000000  0.4850850000000  0.5118350000000 1.0
C      1  0.4563190000000  0.5289400000000  0.4800220000000 1.0
C      1  0.4913960000000  0.5777450000000  0.5147040000000 1.0
C      1  0.3955700000000  0.4494430000000  0.5005540000000 1.0
C      1  0.4078800000000  0.5443370000000  0.5227730000000 1.0
C      1  0.5030630000000  0.4828820000000  0.4455380000000 1.0
C      1  0.4571930000000  0.4911250000000  0.5568130000000 1.0
C      1  0.4510150000000  0.4326430000000  0.4185200000000 1.0
C      1  0.4593950000000  0.4062820000000  0.4676880000000 1.0
C      1  0.5964930000000  0.5073110000000  0.4464290000000 1.0
C      1  0.4685410000000  0.4804630000000  0.5806970000000 1.0
C      1  0.5350600000000  0.4817890000000  0.5259660000000 1.0
C      1  0.5636070000000  0.4226130000000  0.5065500000000 1.0
C      1  0.3860100000000  0.4758760000000  0.4907430000000 1.0
C      1  0.5076410000000  0.5059320000000  0.5996210000000 1.0
C      1  0.5166580000000  0.5311190000000  0.5209850000000 1.0
C      1  0.5002640000000  0.5428540000000  0.5722850000000 1.0
C      1  0.4928460000000  0.4022530000000  0.5569010000000 1.0
C      1  0.6015860000000  0.4574280000000  0.5006120000000 1.0
C      1  0.5028170000000  0.3997170000000  0.4936140000000 1.0
C      1  0.4455060000000  0.4491270000000  0.4655280000000 1.0
C      1  0.5229770000000  0.4604510000000  0.4033290000000 1.0
C      1  0.5458040000000  0.5383620000000  0.4857910000000 1.0
C      1  0.4960600000000  0.4690740000000  0.5325840000000 1.0
C      1  0.5869960000000  0.5109410000000  0.4198320000000 1.0
C      1  0.5092370000000  0.4455760000000  0.4854080000000 1.0
C      1  0.4667170000000  0.4454060000000  0.5073570000000 1.0
C      1  0.4254140000000  0.5641670000000  0.5771840000000 1.0
C      1  0.4438710000000  0.5153090000000  0.4429000000000 1.0
C      1  0.5166800000000  0.6101500000000  0.5325790000000 1.0
C      1  0.5401030000000  0.5364000000000  0.5951880000000 1.0
C      1  0.5508610000000  0.5182490000000  0.4457850000000 1.0
C      1  0.5280540000000  0.4985700000000  0.5497340000000 1.0
C      1  0.3935180000000  0.4742260000000  0.5164610000000 1.0
C      1  0.5036550000000  0.4800000000000  0.3920580000000 1.0
C      1  0.5859540000000  0.4387300000000  0.5166420000000 1.0
C      1  0.6076320000000  0.5425480000000  0.5217810000000 1.0
C      1  0.4674970000000  0.4438810000000  0.4450050000000 1.0
C      1  0.4516260000000  0.4393860000000  0.5800670000000 1.0
C      1  0.5695780000000  0.4197780000000  0.4634500000000 1.0
C      1  0.6071100000000  0.5243170000000  0.5449610000000 1.0
C      1  0.5278410000000  0.4615150000000  0.5925510000000 1.0
C      1  0.5596130000000  0.5316130000000  0.5093520000000 1.0
C      1  0.5277110000000  0.4361450000000  0.5504210000000 1.0
C      1  0.5167310000000  0.5963150000000  0.4434600000000 1.0
C      1  0.4294100000000  0.4831370000000  0.5632210000000 1.0
C      1  0.5060860000000  0.5355830000000  0.4534530000000 1.0
C      1  0.4294370000000  0.4177990000000  0.5187130000000 1.0
C      1  0.5525300000000  0.5103690000000  0.5950240000000 1.0
C      1  0.5245160000000  0.4754100000000  0.4627750000000 1.0
END
