TITL C-4164247-2821-771 -6.47745266973652 125000 -19231.2319868212 0 0 128 (C1) n - 1
REM
REM in /home/nfs/bkarasulu/CARBON/AIRSS/Generating-Clusters/ReaxFF-fromJPCA2015/Units_Real/with-SteepDescent/Only-C1/SD-CG/Try1-3A/FIRE-CG
REM
REM
REM
REM
REM
REM ./C.cell (11c1c37f851c82e70ff6c80c92926a4b)
REM
REM compiler GCC version 9.2.1 20190827 (Red Hat 9.2.1-1)
REM options -cpp -mtune=generic -march=x86-64 -g -O0 -fpre-include=/usr/include/finclude/math-vector-fortran.h
REM seed 118243415 -954733198 -1826468663 1436752009 201633092 -2023437474 723770695 1183825029 794128256 156292129 186185450 303283741 -1250175829 -659425240 -1872637597 646648059 1510078342 639128141 2097344602 -1933563190 -1595033389 1819288599 -1808101523 -331324650 -1277719655 40808454 -1374290198 -1428559902 1253639484 -800077322 -1320372354 713146608 -2040160509
REM
CELL 1.54180   50.00000   50.00000   50.00000   90.00000   90.00000   90.00000
LATT -1
SFAC C  
C      1  0.4189460000000  0.4588150000000  0.4453440000000 1.0
C      1  0.4364620000000  0.4223230000000  0.4828130000000 1.0
C      1  0.4667850000000  0.4683580000000  0.4417440000000 1.0
C      1  0.4401200000000  0.5151110000000  0.4450500000000 1.0
C      1  0.4974280000000  0.5554960000000  0.5348320000000 1.0
C      1  0.5332010000000  0.4861420000000  0.5213060000000 1.0
C      1  0.5189110000000  0.4464730000000  0.5706160000000 1.0
C      1  0.4093120000000  0.4654380000000  0.4726780000000 1.0
C      1  0.4898690000000  0.4832130000000  0.4097870000000 1.0
C      1  0.5514240000000  0.5598190000000  0.4418250000000 1.0
C      1  0.5075400000000  0.5395270000000  0.4404030000000 1.0
C      1  0.4971310000000  0.4469870000000  0.4842950000000 1.0
C      1  0.5402490000000  0.4866560000000  0.5855840000000 1.0
C      1  0.5050820000000  0.4280140000000  0.4627400000000 1.0
C      1  0.5668480000000  0.4604130000000  0.5518150000000 1.0
C      1  0.5753020000000  0.5390040000000  0.5462040000000 1.0
C      1  0.4234200000000  0.5341770000000  0.5423860000000 1.0
C      1  0.5932620000000  0.4920580000000  0.5114860000000 1.0
C      1  0.5677100000000  0.4348210000000  0.5392600000000 1.0
C      1  0.5521650000000  0.5811210000000  0.5004490000000 1.0
C      1  0.4700440000000  0.4649920000000  0.5855240000000 1.0
C      1  0.5112150000000  0.5492750000000  0.5769250000000 1.0
C      1  0.4939960000000  0.5079760000000  0.6012440000000 1.0
C      1  0.4993470000000  0.4999860000000  0.4616760000000 1.0
C      1  0.5559690000000  0.5015570000000  0.5268140000000 1.0
C      1  0.4990580000000  0.5928730000000  0.4874680000000 1.0
C      1  0.5112050000000  0.5517210000000  0.5096400000000 1.0
C      1  0.5204940000000  0.5239660000000  0.4193700000000 1.0
C      1  0.4528680000000  0.4237000000000  0.4585370000000 1.0
C      1  0.5963700000000  0.4958080000000  0.4621070000000 1.0
C      1  0.4167320000000  0.5098170000000  0.4455480000000 1.0
C      1  0.4593420000000  0.5147220000000  0.4933640000000 1.0
C      1  0.5351730000000  0.5371930000000  0.5073090000000 1.0
C      1  0.4466440000000  0.5281150000000  0.4710140000000 1.0
C      1  0.5012010000000  0.5742920000000  0.5589440000000 1.0
C      1  0.4320530000000  0.5590640000000  0.5299750000000 1.0
C      1  0.4515470000000  0.5801470000000  0.5413830000000 1.0
C      1  0.5807890000000  0.5378040000000  0.4832900000000 1.0
C      1  0.5357550000000  0.5235580000000  0.4804020000000 1.0
C      1  0.4528750000000  0.5796110000000  0.4940010000000 1.0
C      1  0.4641800000000  0.5923760000000  0.5166900000000 1.0
C      1  0.5623540000000  0.4619350000000  0.4303160000000 1.0
C      1  0.5245280000000  0.4891080000000  0.4538910000000 1.0
C      1  0.4759310000000  0.5378640000000  0.5355770000000 1.0
C      1  0.4583060000000  0.4754070000000  0.5217620000000 1.0
C      1  0.5442220000000  0.4621600000000  0.5703710000000 1.0
C      1  0.5066170000000  0.5687490000000  0.4370050000000 1.0
C      1  0.4104930000000  0.4668400000000  0.5333820000000 1.0
C      1  0.5074140000000  0.4557040000000  0.5089320000000 1.0
C      1  0.5397890000000  0.4736410000000  0.4158510000000 1.0
C      1  0.5795150000000  0.4896180000000  0.5410400000000 1.0
C      1  0.5352720000000  0.4717400000000  0.4964790000000 1.0
C      1  0.5128380000000  0.4856890000000  0.5960710000000 1.0
C      1  0.5381330000000  0.4940720000000  0.4782570000000 1.0
C      1  0.5054330000000  0.5282620000000  0.4667490000000 1.0
C      1  0.5044170000000  0.5077850000000  0.5552680000000 1.0
C      1  0.5469140000000  0.4400450000000  0.4420920000000 1.0
C      1  0.5456900000000  0.4259950000000  0.5185850000000 1.0
C      1  0.4026420000000  0.4898200000000  0.5150940000000 1.0
C      1  0.5829880000000  0.4465370000000  0.4875250000000 1.0
C      1  0.4615390000000  0.4790360000000  0.4180960000000 1.0
C      1  0.4994670000000  0.4619950000000  0.5860250000000 1.0
C      1  0.5363250000000  0.4998480000000  0.4296430000000 1.0
C      1  0.4935370000000  0.5990810000000  0.5144640000000 1.0
C      1  0.4230800000000  0.5405230000000  0.4808660000000 1.0
C      1  0.4782260000000  0.5717750000000  0.4445190000000 1.0
C      1  0.5191060000000  0.4435780000000  0.4357290000000 1.0
C      1  0.4462310000000  0.4478480000000  0.4397090000000 1.0
C      1  0.4771810000000  0.5047550000000  0.5644200000000 1.0
C      1  0.5920130000000  0.4677420000000  0.4990450000000 1.0
C      1  0.5142870000000  0.5930610000000  0.5356490000000 1.0
C      1  0.4067250000000  0.5167630000000  0.4710120000000 1.0
C      1  0.5479360000000  0.5404330000000  0.4210020000000 1.0
C      1  0.4373040000000  0.5221450000000  0.5646040000000 1.0
C      1  0.4308730000000  0.5611530000000  0.5009300000000 1.0
C      1  0.4207580000000  0.5122510000000  0.5221270000000 1.0
C      1  0.4522960000000  0.4616430000000  0.4979790000000 1.0
C      1  0.4759750000000  0.5311800000000  0.5082420000000 1.0
C      1  0.5385110000000  0.6162080000000  0.4638200000000 1.0
C      1  0.5767050000000  0.5629400000000  0.4989320000000 1.0
C      1  0.4090830000000  0.4831120000000  0.5557610000000 1.0
C      1  0.4770810000000  0.4039160000000  0.4942190000000 1.0
C      1  0.4697940000000  0.5502350000000  0.4284090000000 1.0
C      1  0.5539570000000  0.4265340000000  0.4679070000000 1.0
C      1  0.5078100000000  0.4910290000000  0.5328750000000 1.0
C      1  0.5759470000000  0.5129290000000  0.5606450000000 1.0
C      1  0.5316110000000  0.5803370000000  0.4474890000000 1.0
C      1  0.4725960000000  0.4187940000000  0.5428210000000 1.0
C      1  0.5599990000000  0.5374910000000  0.4615090000000 1.0
C      1  0.5507780000000  0.5120480000000  0.5752360000000 1.0
C      1  0.5509540000000  0.5294190000000  0.5309110000000 1.0
C      1  0.4383170000000  0.4560290000000  0.5419660000000 1.0
C      1  0.5550750000000  0.4446660000000  0.4922960000000 1.0
C      1  0.5361020000000  0.5863130000000  0.5205290000000 1.0
C      1  0.4780780000000  0.4126970000000  0.4662950000000 1.0
C      1  0.5124330000000  0.4633620000000  0.4162140000000 1.0
C      1  0.4761140000000  0.4647500000000  0.4841880000000 1.0
C      1  0.4695920000000  0.5253450000000  0.4135450000000 1.0
C      1  0.4944870000000  0.5109510000000  0.4074910000000 1.0
C      1  0.4273540000000  0.4492230000000  0.4899600000000 1.0
C      1  0.4704230000000  0.4937340000000  0.5909600000000 1.0
C      1  0.5853760000000  0.5502990000000  0.5224910000000 1.0
C      1  0.5010060000000  0.3989060000000  0.5111250000000 1.0
C      1  0.4761480000000  0.4829820000000  0.4631970000000 1.0
C      1  0.4484620000000  0.5053430000000  0.4203750000000 1.0
C      1  0.4918830000000  0.5457230000000  0.4882940000000 1.0
C      1  0.4462220000000  0.4687160000000  0.5687090000000 1.0
C      1  0.4898780000000  0.5342030000000  0.5885360000000 1.0
C      1  0.5276500000000  0.4046790000000  0.5020620000000 1.0
C      1  0.5910260000000  0.5098600000000  0.4879570000000 1.0
C      1  0.4486960000000  0.4267640000000  0.5329630000000 1.0
C      1  0.4516490000000  0.4130300000000  0.5062820000000 1.0
C      1  0.5297720000000  0.5921090000000  0.4772790000000 1.0
C      1  0.4657880000000  0.5298410000000  0.5629840000000 1.0
C      1  0.5632180000000  0.5188480000000  0.4335620000000 1.0
C      1  0.4707500000000  0.5802010000000  0.5626040000000 1.0
C      1  0.5115210000000  0.4271950000000  0.5509190000000 1.0
C      1  0.5293370000000  0.4124220000000  0.4747620000000 1.0
C      1  0.5252020000000  0.5258760000000  0.5661800000000 1.0
C      1  0.4464430000000  0.5014520000000  0.5148070000000 1.0
C      1  0.4021580000000  0.4911100000000  0.4858790000000 1.0
C      1  0.4962780000000  0.4047100000000  0.5402330000000 1.0
C      1  0.5225920000000  0.4409070000000  0.5299010000000 1.0
C      1  0.5896130000000  0.5037910000000  0.4353340000000 1.0
C      1  0.5859700000000  0.4758520000000  0.4414130000000 1.0
C      1  0.4779530000000  0.5752250000000  0.4763840000000 1.0
C      1  0.4299640000000  0.4945890000000  0.5713430000000 1.0
C      1  0.4882680000000  0.4750060000000  0.5202910000000 1.0
END
