TITL C-4164234-2335-274 -38.0690291000082 125000 -22599.2384936024 0 0 151 (C1) n - 1
REM
REM in /home/nfs/bkarasulu/CARBON/AIRSS/Generating-Clusters/ReaxFF-fromJPCA2015/Units_Real/with-SteepDescent/Only-C1/SD-CG/Try1-3A/FIRE-CG
REM
REM
REM
REM
REM
REM ./C.cell (11c1c37f851c82e70ff6c80c92926a4b)
REM
REM compiler GCC version 9.2.1 20190827 (Red Hat 9.2.1-1)
REM options -cpp -mtune=generic -march=x86-64 -g -O0 -fpre-include=/usr/include/finclude/math-vector-fortran.h
REM seed 1324948123 -1207268525 1673670211 -1674644011 -882185631 -199644740 -1262088866 -1531260402 -765266877 1214030108 -2067264817 -1684789753 -474088767 -460745828 -435743268 -1068960053 -1283738839 -1590323160 -1448227183 1897596333 347301337 -1213542845 -486911640 1330264146 -204564041 -412889253 346740456 -1877665653 -1827457080 1685969789 1888620737 -877444476 232671005
REM
CELL 1.54180   50.00000   50.00000   50.00000   90.00000   90.00000   90.00000
LATT -1
SFAC C  
C      1  0.5275540000000  0.5265680000000  0.5405780000000 1.0
C      1  0.4404220000000  0.4964730000000  0.4257750000000 1.0
C      1  0.5192000000000  0.4165070000000  0.5466670000000 1.0
C      1  0.4750390000000  0.4336290000000  0.5678500000000 1.0
C      1  0.4777170000000  0.4128060000000  0.4422060000000 1.0
C      1  0.4429180000000  0.4038130000000  0.4733620000000 1.0
C      1  0.4511850000000  0.5220920000000  0.5880810000000 1.0
C      1  0.4816430000000  0.4718380000000  0.4412430000000 1.0
C      1  0.4636100000000  0.6017020000000  0.4934850000000 1.0
C      1  0.5609500000000  0.4756660000000  0.5729360000000 1.0
C      1  0.5049550000000  0.4166180000000  0.4515790000000 1.0
C      1  0.5716630000000  0.5672560000000  0.4580960000000 1.0
C      1  0.5441860000000  0.5712020000000  0.4500400000000 1.0
C      1  0.4416520000000  0.5386610000000  0.4607510000000 1.0
C      1  0.4737390000000  0.4166270000000  0.5233310000000 1.0
C      1  0.5098410000000  0.5229560000000  0.4740890000000 1.0
C      1  0.4880980000000  0.5224380000000  0.4409510000000 1.0
C      1  0.4466470000000  0.5450180000000  0.5729910000000 1.0
C      1  0.3997130000000  0.4894970000000  0.4902870000000 1.0
C      1  0.4284930000000  0.5553980000000  0.4824650000000 1.0
C      1  0.4087910000000  0.4374550000000  0.4916290000000 1.0
C      1  0.4740430000000  0.4317740000000  0.4195300000000 1.0
C      1  0.4216490000000  0.4241020000000  0.4688000000000 1.0
C      1  0.4978710000000  0.5086250000000  0.4045240000000 1.0
C      1  0.5828610000000  0.5230590000000  0.5676920000000 1.0
C      1  0.4921360000000  0.4833090000000  0.4844780000000 1.0
C      1  0.5321050000000  0.4936190000000  0.5181260000000 1.0
C      1  0.4347470000000  0.5667000000000  0.4275860000000 1.0
C      1  0.5112480000000  0.5146600000000  0.5202210000000 1.0
C      1  0.4479100000000  0.5825650000000  0.5280020000000 1.0
C      1  0.4719490000000  0.5740420000000  0.4657290000000 1.0
C      1  0.5844980000000  0.4890650000000  0.5334370000000 1.0
C      1  0.5328050000000  0.4350610000000  0.5645890000000 1.0
C      1  0.5028340000000  0.5582370000000  0.4217060000000 1.0
C      1  0.5013510000000  0.4449730000000  0.4534240000000 1.0
C      1  0.5785970000000  0.5392460000000  0.5433990000000 1.0
C      1  0.4772030000000  0.5212260000000  0.5985290000000 1.0
C      1  0.5006450000000  0.4412140000000  0.4117910000000 1.0
C      1  0.4696150000000  0.4784300000000  0.4684240000000 1.0
C      1  0.5313240000000  0.5545750000000  0.4288100000000 1.0
C      1  0.5395010000000  0.4888960000000  0.4580090000000 1.0
C      1  0.4990990000000  0.5955400000000  0.5304690000000 1.0
C      1  0.5602440000000  0.4154490000000  0.5189440000000 1.0
C      1  0.4911400000000  0.4970360000000  0.5959390000000 1.0
C      1  0.5500260000000  0.3989450000000  0.4744760000000 1.0
C      1  0.4888910000000  0.4685170000000  0.5062670000000 1.0
C      1  0.5430180000000  0.5575450000000  0.5873260000000 1.0
C      1  0.5575120000000  0.4518290000000  0.4892010000000 1.0
C      1  0.4493390000000  0.4998330000000  0.5712320000000 1.0
C      1  0.4299820000000  0.5371360000000  0.4311180000000 1.0
C      1  0.4530960000000  0.5069910000000  0.4999920000000 1.0
C      1  0.5489680000000  0.5164020000000  0.6014890000000 1.0
C      1  0.4401860000000  0.4903990000000  0.5209930000000 1.0
C      1  0.5776080000000  0.5190720000000  0.4478370000000 1.0
C      1  0.4578910000000  0.5076320000000  0.4722460000000 1.0
C      1  0.5901340000000  0.4307390000000  0.4789310000000 1.0
C      1  0.4437110000000  0.5815800000000  0.4994670000000 1.0
C      1  0.5633610000000  0.5042870000000  0.4659790000000 1.0
C      1  0.4828590000000  0.5278610000000  0.4688380000000 1.0
C      1  0.4535940000000  0.5626290000000  0.4513680000000 1.0
C      1  0.5288630000000  0.4512520000000  0.4167950000000 1.0
C      1  0.5678590000000  0.5146090000000  0.4224690000000 1.0
C      1  0.4679410000000  0.6026030000000  0.4648130000000 1.0
C      1  0.4300390000000  0.5621320000000  0.5394040000000 1.0
C      1  0.5906630000000  0.5336860000000  0.4877200000000 1.0
C      1  0.4288930000000  0.5456110000000  0.5143140000000 1.0
C      1  0.4582130000000  0.4632380000000  0.5317460000000 1.0
C      1  0.5785460000000  0.5056710000000  0.4911320000000 1.0
C      1  0.5742940000000  0.5633550000000  0.5283730000000 1.0
C      1  0.5312140000000  0.5418530000000  0.6095890000000 1.0
C      1  0.5228100000000  0.5303510000000  0.4960840000000 1.0
C      1  0.5278400000000  0.4654800000000  0.5234400000000 1.0
C      1  0.5382710000000  0.4857380000000  0.4241460000000 1.0
C      1  0.4257340000000  0.4411130000000  0.4454820000000 1.0
C      1  0.4061590000000  0.5083820000000  0.4680560000000 1.0
C      1  0.5570060000000  0.4496690000000  0.5597920000000 1.0
C      1  0.5710940000000  0.4106520000000  0.4928040000000 1.0
C      1  0.5661400000000  0.5351780000000  0.5877040000000 1.0
C      1  0.5078690000000  0.4724110000000  0.5518010000000 1.0
C      1  0.4570470000000  0.4713740000000  0.4231190000000 1.0
C      1  0.5188500000000  0.4484560000000  0.4763850000000 1.0
C      1  0.4173500000000  0.4934080000000  0.4455000000000 1.0
C      1  0.4817630000000  0.5450640000000  0.5875590000000 1.0
C      1  0.4982110000000  0.5803260000000  0.4354250000000 1.0
C      1  0.4472590000000  0.4447270000000  0.4250400000000 1.0
C      1  0.4938950000000  0.4967080000000  0.4307640000000 1.0
C      1  0.5342350000000  0.5890940000000  0.4720370000000 1.0
C      1  0.4503520000000  0.4500890000000  0.5600820000000 1.0
C      1  0.4616590000000  0.4411840000000  0.5112260000000 1.0
C      1  0.4816980000000  0.5325990000000  0.4141410000000 1.0
C      1  0.5518310000000  0.5903020000000  0.4952680000000 1.0
C      1  0.5762010000000  0.5790740000000  0.4844060000000 1.0
C      1  0.4589510000000  0.5342330000000  0.5086370000000 1.0
C      1  0.4846990000000  0.3940600000000  0.5072840000000 1.0
C      1  0.5925060000000  0.4763060000000  0.4935160000000 1.0
C      1  0.5140740000000  0.3975910000000  0.5010140000000 1.0
C      1  0.5246630000000  0.5849450000000  0.5429890000000 1.0
C      1  0.4527110000000  0.4729470000000  0.5796610000000 1.0
C      1  0.4852170000000  0.4748620000000  0.5336890000000 1.0
C      1  0.5815130000000  0.4940390000000  0.5618760000000 1.0
C      1  0.5085670000000  0.6016060000000  0.4777130000000 1.0
C      1  0.5209640000000  0.3997620000000  0.4728710000000 1.0
C      1  0.4065870000000  0.5343040000000  0.4823220000000 1.0
C      1  0.5246990000000  0.5584580000000  0.5039920000000 1.0
C      1  0.5526040000000  0.4480760000000  0.4372520000000 1.0
C      1  0.5539210000000  0.5282220000000  0.5315910000000 1.0
C      1  0.5599340000000  0.5033260000000  0.5180250000000 1.0
C      1  0.4067810000000  0.5257370000000  0.5101420000000 1.0
C      1  0.4156620000000  0.4368100000000  0.5197330000000 1.0
C      1  0.4497330000000  0.5089890000000  0.5432500000000 1.0
C      1  0.5014800000000  0.5474300000000  0.5692710000000 1.0
C      1  0.4008540000000  0.4626900000000  0.4791960000000 1.0
C      1  0.4649760000000  0.4483780000000  0.4836290000000 1.0
C      1  0.5442180000000  0.4570790000000  0.4662060000000 1.0
C      1  0.5109440000000  0.4518810000000  0.5715680000000 1.0
C      1  0.5326520000000  0.4070430000000  0.5225760000000 1.0
C      1  0.4764300000000  0.4722700000000  0.5959930000000 1.0
C      1  0.5867870000000  0.5419050000000  0.4606440000000 1.0
C      1  0.5676170000000  0.4846190000000  0.4221330000000 1.0
C      1  0.4938850000000  0.6039450000000  0.4514870000000 1.0
C      1  0.4755260000000  0.5809090000000  0.5388630000000 1.0
C      1  0.4106020000000  0.4976330000000  0.5162110000000 1.0
C      1  0.5703570000000  0.4422440000000  0.5334830000000 1.0
C      1  0.4200620000000  0.5205580000000  0.5506090000000 1.0
C      1  0.4783680000000  0.5538710000000  0.4873340000000 1.0
C      1  0.5105480000000  0.4537450000000  0.5035140000000 1.0
C      1  0.4510560000000  0.5222000000000  0.4180670000000 1.0
C      1  0.5133830000000  0.4964410000000  0.5761010000000 1.0
C      1  0.4929030000000  0.6027020000000  0.5023680000000 1.0
C      1  0.4857190000000  0.5523050000000  0.5383340000000 1.0
C      1  0.5451970000000  0.5757280000000  0.5217600000000 1.0
C      1  0.4112090000000  0.4656610000000  0.4520600000000 1.0
C      1  0.4896390000000  0.4477780000000  0.5881940000000 1.0
C      1  0.5243630000000  0.5700270000000  0.5675870000000 1.0
C      1  0.5519380000000  0.4542450000000  0.5155230000000 1.0
C      1  0.4898610000000  0.4189230000000  0.5479670000000 1.0
C      1  0.5162410000000  0.5231950000000  0.5649620000000 1.0
C      1  0.5436910000000  0.5301220000000  0.4167620000000 1.0
C      1  0.4606200000000  0.3921790000000  0.4921660000000 1.0
C      1  0.4967520000000  0.5593450000000  0.5092600000000 1.0
C      1  0.4232670000000  0.4375230000000  0.5451280000000 1.0
C      1  0.5764990000000  0.4629170000000  0.4400020000000 1.0
C      1  0.5904920000000  0.4649430000000  0.5196790000000 1.0
C      1  0.5914890000000  0.4585230000000  0.4689250000000 1.0
C      1  0.4219190000000  0.5478070000000  0.5617030000000 1.0
C      1  0.5270230000000  0.5081680000000  0.4080860000000 1.0
C      1  0.5870960000000  0.5583800000000  0.5025460000000 1.0
C      1  0.4754030000000  0.5251410000000  0.5311840000000 1.0
C      1  0.5417580000000  0.4915740000000  0.5882960000000 1.0
C      1  0.5155540000000  0.4970230000000  0.4743320000000 1.0
C      1  0.4644700000000  0.4242670000000  0.4668080000000 1.0
END
