TITL C-4164236-1577-29 0.141620820975547 125000 -5881.29317200687 0 0 41 (C1) n - 1
REM
REM in /home/nfs/bkarasulu/CARBON/AIRSS/Generating-Clusters/ReaxFF-fromJPCA2015/Units_Real/with-SteepDescent/Only-C1/SD-CG/Try1-3A/FIRE-CG
REM
REM
REM
REM
REM
REM ./C.cell (11c1c37f851c82e70ff6c80c92926a4b)
REM
REM compiler GCC version 9.2.1 20190827 (Red Hat 9.2.1-1)
REM options -cpp -mtune=generic -march=x86-64 -g -O0 -fpre-include=/usr/include/finclude/math-vector-fortran.h
REM seed 1196200863 -1562082789 1744434285 1007342173 -1743171997 280443107 -642810387 1904071679 2064280433 -1730721648 -1295501536 119976460 1568405102 -802024349 -1765062129 -1113223883 -599997959 -594893587 982889435 554379667 1937890282 -1454120684 1447491274 736175665 1572276776 1136305090 1878175183 -174640515 -1267532023 -1999915759 706926580 1366207609 1477108026
REM
CELL 1.54180   50.00000   50.00000   50.00000   90.00000   90.00000   90.00000
LATT -1
SFAC C  
C      1  0.5305160000000  0.5210820000000  0.5450830000000 1.0
C      1  0.5016800000000  0.5546760000000  0.5125610000000 1.0
C      1  0.4858480000000  0.5266420000000  0.5588700000000 1.0
C      1  0.4541850000000  0.4966460000000  0.5361470000000 1.0
C      1  0.5186220000000  0.5026070000000  0.5057310000000 1.0
C      1  0.4491730000000  0.5150850000000  0.4961580000000 1.0
C      1  0.5072640000000  0.4315400000000  0.4908330000000 1.0
C      1  0.4749030000000  0.5543180000000  0.4987670000000 1.0
C      1  0.5447970000000  0.4618150000000  0.4681070000000 1.0
C      1  0.5150520000000  0.5417880000000  0.4622480000000 1.0
C      1  0.4935940000000  0.4909930000000  0.4883680000000 1.0
C      1  0.5202650000000  0.4629660000000  0.5352000000000 1.0
C      1  0.5260340000000  0.4939660000000  0.4495960000000 1.0
C      1  0.5357750000000  0.4826720000000  0.5192290000000 1.0
C      1  0.4818730000000  0.5394030000000  0.4724110000000 1.0
C      1  0.4681530000000  0.4061740000000  0.4708890000000 1.0
C      1  0.5192960000000  0.4509260000000  0.4704740000000 1.0
C      1  0.4615350000000  0.4514200000000  0.4963960000000 1.0
C      1  0.5530740000000  0.4870900000000  0.4606370000000 1.0
C      1  0.5002320000000  0.4797990000000  0.5486170000000 1.0
C      1  0.5710640000000  0.5053170000000  0.4798410000000 1.0
C      1  0.4728850000000  0.5120740000000  0.4804180000000 1.0
C      1  0.5006120000000  0.5798360000000  0.5165600000000 1.0
C      1  0.5326230000000  0.5592490000000  0.4683160000000 1.0
C      1  0.4801310000000  0.4708190000000  0.5080190000000 1.0
C      1  0.4775790000000  0.4244020000000  0.4856140000000 1.0
C      1  0.5655760000000  0.5081550000000  0.5069560000000 1.0
C      1  0.4901940000000  0.5267470000000  0.4286690000000 1.0
C      1  0.4409040000000  0.4663270000000  0.5005980000000 1.0
C      1  0.5070690000000  0.4767170000000  0.4640240000000 1.0
C      1  0.5526240000000  0.5038290000000  0.5322120000000 1.0
C      1  0.5047290000000  0.5464300000000  0.5631600000000 1.0
C      1  0.4700130000000  0.5426160000000  0.4432040000000 1.0
C      1  0.4614380000000  0.5240760000000  0.5397850000000 1.0
C      1  0.5204140000000  0.5276740000000  0.5183390000000 1.0
C      1  0.5171750000000  0.5206080000000  0.4411170000000 1.0
C      1  0.4376600000000  0.4922280000000  0.5117300000000 1.0
C      1  0.5086110000000  0.5059350000000  0.5583220000000 1.0
C      1  0.5140400000000  0.4393460000000  0.5179520000000 1.0
C      1  0.4760130000000  0.4786090000000  0.5344980000000 1.0
C      1  0.4567740000000  0.5373990000000  0.5143430000000 1.0
END
