TITL C-4164237-1827-325 61.5675636268565 125000 -15412.9513654991 0 0 105 (C1) n - 1
REM
REM in /home/nfs/bkarasulu/CARBON/AIRSS/Generating-Clusters/ReaxFF-fromJPCA2015/Units_Real/with-SteepDescent/Only-C1/SD-CG/Try1-3A/FIRE-CG
REM
REM
REM
REM
REM
REM ./C.cell (11c1c37f851c82e70ff6c80c92926a4b)
REM
REM compiler GCC version 9.2.1 20190827 (Red Hat 9.2.1-1)
REM options -cpp -mtune=generic -march=x86-64 -g -O0 -fpre-include=/usr/include/finclude/math-vector-fortran.h
REM seed -954113525 1549418564 -254565769 -1645546753 -752075589 -338135505 -1533321641 -570405900 -151190583 1919074568 2020156290 1419683637 -1899969338 -2041523256 -91564543 -1674058415 1657093040 -186445871 652923786 86573485 -204805416 -63190030 1964120504 1135563514 -866426417 -1507016854 1936603239 -465457898 778253894 1049329628 -1665860039 -1273433379 -1207820085
REM
CELL 1.54180   50.00000   50.00000   50.00000   90.00000   90.00000   90.00000
LATT -1
SFAC C  
C      1  0.5634260000000  0.4294410000000  0.4788600000000 1.0
C      1  0.4815900000000  0.5775540000000  0.5426980000000 1.0
C      1  0.5682770000000  0.4436190000000  0.5027530000000 1.0
C      1  0.5364130000000  0.5831760000000  0.4713310000000 1.0
C      1  0.4848710000000  0.5081680000000  0.5811600000000 1.0
C      1  0.4281750000000  0.5385110000000  0.5357300000000 1.0
C      1  0.5387580000000  0.4894140000000  0.4832360000000 1.0
C      1  0.4240510000000  0.4743840000000  0.4896340000000 1.0
C      1  0.5112770000000  0.5285190000000  0.4552640000000 1.0
C      1  0.5374440000000  0.5933610000000  0.4980770000000 1.0
C      1  0.4767420000000  0.4821460000000  0.5722080000000 1.0
C      1  0.5121780000000  0.5740170000000  0.4535810000000 1.0
C      1  0.4594610000000  0.4746610000000  0.4133630000000 1.0
C      1  0.5837150000000  0.5216190000000  0.4761770000000 1.0
C      1  0.4293690000000  0.4540390000000  0.5681650000000 1.0
C      1  0.5520390000000  0.5192570000000  0.5588180000000 1.0
C      1  0.4975740000000  0.5796050000000  0.5166570000000 1.0
C      1  0.5857440000000  0.4970270000000  0.4916000000000 1.0
C      1  0.5793640000000  0.4808120000000  0.4675720000000 1.0
C      1  0.4461100000000  0.4995140000000  0.4192240000000 1.0
C      1  0.5419080000000  0.5681670000000  0.5202400000000 1.0
C      1  0.4530600000000  0.4829690000000  0.4964820000000 1.0
C      1  0.5545570000000  0.5152050000000  0.4331690000000 1.0
C      1  0.5288940000000  0.5094630000000  0.5421330000000 1.0
C      1  0.4829640000000  0.5713140000000  0.4565200000000 1.0
C      1  0.5262630000000  0.4600170000000  0.5603660000000 1.0
C      1  0.4668420000000  0.4697570000000  0.5200050000000 1.0
C      1  0.5156300000000  0.4157790000000  0.4756010000000 1.0
C      1  0.5046460000000  0.4424100000000  0.4783660000000 1.0
C      1  0.5154710000000  0.5589020000000  0.5068700000000 1.0
C      1  0.4121160000000  0.4952810000000  0.5388560000000 1.0
C      1  0.4599620000000  0.4877820000000  0.5463170000000 1.0
C      1  0.5142260000000  0.4178130000000  0.4461060000000 1.0
C      1  0.5216490000000  0.5506630000000  0.4394230000000 1.0
C      1  0.4882650000000  0.5167460000000  0.4960790000000 1.0
C      1  0.4298230000000  0.4767100000000  0.4606440000000 1.0
C      1  0.5362990000000  0.5752190000000  0.5493140000000 1.0
C      1  0.5497140000000  0.5432110000000  0.4274420000000 1.0
C      1  0.5443950000000  0.4676340000000  0.5050710000000 1.0
C      1  0.5657090000000  0.5462170000000  0.5159630000000 1.0
C      1  0.5600800000000  0.4321210000000  0.5283030000000 1.0
C      1  0.4061020000000  0.5016570000000  0.4988800000000 1.0
C      1  0.4393830000000  0.4253450000000  0.5131820000000 1.0
C      1  0.4892470000000  0.5115760000000  0.4040980000000 1.0
C      1  0.5182380000000  0.4883930000000  0.5598070000000 1.0
C      1  0.4634050000000  0.5119070000000  0.4866760000000 1.0
C      1  0.5050680000000  0.4402330000000  0.5573490000000 1.0
C      1  0.4732900000000  0.5130440000000  0.5405320000000 1.0
C      1  0.5270430000000  0.4932590000000  0.5876890000000 1.0
C      1  0.5265820000000  0.4403590000000  0.4343380000000 1.0
C      1  0.5460100000000  0.4580180000000  0.4435890000000 1.0
C      1  0.5233850000000  0.5149780000000  0.5147990000000 1.0
C      1  0.5062900000000  0.4934670000000  0.4159080000000 1.0
C      1  0.4275450000000  0.4989390000000  0.4431330000000 1.0
C      1  0.5690110000000  0.5238610000000  0.5328040000000 1.0
C      1  0.5399910000000  0.4146890000000  0.4916660000000 1.0
C      1  0.4289570000000  0.4811330000000  0.5550070000000 1.0
C      1  0.4427700000000  0.5555390000000  0.5165420000000 1.0
C      1  0.5128820000000  0.4595610000000  0.5005080000000 1.0
C      1  0.5188160000000  0.5587120000000  0.5663490000000 1.0
C      1  0.5679710000000  0.4539530000000  0.4621410000000 1.0
C      1  0.5735150000000  0.5465460000000  0.4884680000000 1.0
C      1  0.5542320000000  0.4626510000000  0.5688090000000 1.0
C      1  0.4691190000000  0.5701870000000  0.4817570000000 1.0
C      1  0.4396870000000  0.5470360000000  0.4613310000000 1.0
C      1  0.5075560000000  0.4240450000000  0.5326310000000 1.0
C      1  0.4299690000000  0.4422110000000  0.4912360000000 1.0
C      1  0.4894490000000  0.5577630000000  0.5614790000000 1.0
C      1  0.4632900000000  0.4171490000000  0.4971010000000 1.0
C      1  0.4516620000000  0.5457300000000  0.4891060000000 1.0
C      1  0.4665190000000  0.5224010000000  0.4160440000000 1.0
C      1  0.4065330000000  0.5173100000000  0.5234530000000 1.0
C      1  0.4877420000000  0.4722180000000  0.4269650000000 1.0
C      1  0.5759160000000  0.4989490000000  0.5195180000000 1.0
C      1  0.4810880000000  0.4214950000000  0.5206000000000 1.0
C      1  0.5666660000000  0.4565380000000  0.5437620000000 1.0
C      1  0.5126620000000  0.5323330000000  0.4915370000000 1.0
C      1  0.4727210000000  0.5891430000000  0.5033320000000 1.0
C      1  0.4940820000000  0.4741360000000  0.5149240000000 1.0
C      1  0.5252050000000  0.5063500000000  0.4379970000000 1.0
C      1  0.5749580000000  0.5057950000000  0.4518230000000 1.0
C      1  0.5345260000000  0.4199040000000  0.5202570000000 1.0
C      1  0.5333320000000  0.4818820000000  0.4558390000000 1.0
C      1  0.4719590000000  0.5320390000000  0.5631840000000 1.0
C      1  0.4638550000000  0.5516660000000  0.4448090000000 1.0
C      1  0.4202390000000  0.5257700000000  0.4561270000000 1.0
C      1  0.4776990000000  0.4806830000000  0.4537130000000 1.0
C      1  0.5647550000000  0.5693010000000  0.4709410000000 1.0
C      1  0.5023490000000  0.4448520000000  0.4470190000000 1.0
C      1  0.5310470000000  0.5337960000000  0.5765140000000 1.0
C      1  0.4394720000000  0.5365530000000  0.5613690000000 1.0
C      1  0.4816590000000  0.4527230000000  0.5705120000000 1.0
C      1  0.4579370000000  0.4651060000000  0.4682980000000 1.0
C      1  0.5614960000000  0.5615690000000  0.4446330000000 1.0
C      1  0.4595480000000  0.4399920000000  0.5320000000000 1.0
C      1  0.5601340000000  0.4774010000000  0.5263170000000 1.0
C      1  0.4137340000000  0.5225480000000  0.4828230000000 1.0
C      1  0.4716640000000  0.5064050000000  0.4608680000000 1.0
C      1  0.4960450000000  0.5038720000000  0.5190260000000 1.0
C      1  0.4799720000000  0.5275410000000  0.4444810000000 1.0
C      1  0.5582290000000  0.4921860000000  0.5798310000000 1.0
C      1  0.5113640000000  0.5174570000000  0.5910570000000 1.0
C      1  0.4559120000000  0.4414380000000  0.5625280000000 1.0
C      1  0.4530650000000  0.4351940000000  0.4754650000000 1.0
C      1  0.4563980000000  0.5792860000000  0.5261390000000 1.0
END
