TITL C-4164239-2837-76 20.255622398709 125000 -23968.1463263695 0 0 161 (C1) n - 1
REM
REM in /home/nfs/bkarasulu/CARBON/AIRSS/Generating-Clusters/ReaxFF-fromJPCA2015/Units_Real/with-SteepDescent/Only-C1/SD-CG/Try1-3A/FIRE-CG
REM
REM
REM
REM
REM
REM ./C.cell (11c1c37f851c82e70ff6c80c92926a4b)
REM
REM compiler GCC version 9.2.1 20190827 (Red Hat 9.2.1-1)
REM options -cpp -mtune=generic -march=x86-64 -g -O0 -fpre-include=/usr/include/finclude/math-vector-fortran.h
REM seed -1577976757 2069147945 -1518626080 1249937516 -767353757 1819694881 1728245943 -1280414660 -1080461571 -495644187 1887030771 -333676154 1355535420 861875479 567230691 -573548013 620003691 1127361250 938462734 -1259740049 1127288904 1329712700 350815416 -478105049 787939699 -856795957 -1440369664 -1437119737 2054989075 84079153 1901265075 1474168625 854506940
REM
CELL 1.54180   50.00000   50.00000   50.00000   90.00000   90.00000   90.00000
LATT -1
SFAC C  
C      1  0.4877490000000  0.5459000000000  0.4799660000000 1.0
C      1  0.5978970000000  0.4647590000000  0.4938250000000 1.0
C      1  0.4431740000000  0.4436630000000  0.5089190000000 1.0
C      1  0.4653590000000  0.4840160000000  0.4121530000000 1.0
C      1  0.5062100000000  0.4953920000000  0.5664690000000 1.0
C      1  0.5360070000000  0.5070670000000  0.4025610000000 1.0
C      1  0.5789020000000  0.4927400000000  0.5826030000000 1.0
C      1  0.5005500000000  0.5146670000000  0.5450130000000 1.0
C      1  0.4916160000000  0.4389000000000  0.4963000000000 1.0
C      1  0.4304000000000  0.4446000000000  0.5644740000000 1.0
C      1  0.5590770000000  0.5395590000000  0.4872860000000 1.0
C      1  0.5498670000000  0.5816010000000  0.4714720000000 1.0
C      1  0.4978980000000  0.3982880000000  0.4724720000000 1.0
C      1  0.3985780000000  0.4885960000000  0.5308240000000 1.0
C      1  0.4612810000000  0.5908600000000  0.4654590000000 1.0
C      1  0.5509240000000  0.4850040000000  0.5476170000000 1.0
C      1  0.5644840000000  0.5673740000000  0.4486840000000 1.0
C      1  0.5018540000000  0.4563180000000  0.4484400000000 1.0
C      1  0.5431020000000  0.5176740000000  0.5703260000000 1.0
C      1  0.4470000000000  0.4627060000000  0.4189060000000 1.0
C      1  0.5532670000000  0.4733540000000  0.5753700000000 1.0
C      1  0.5842310000000  0.5422480000000  0.5565640000000 1.0
C      1  0.5194210000000  0.4325070000000  0.5700960000000 1.0
C      1  0.4358440000000  0.5567070000000  0.5547740000000 1.0
C      1  0.4446820000000  0.5103770000000  0.5068470000000 1.0
C      1  0.3928430000000  0.5309530000000  0.4495880000000 1.0
C      1  0.5102050000000  0.3984300000000  0.5235570000000 1.0
C      1  0.4489420000000  0.5946320000000  0.4916610000000 1.0
C      1  0.5586230000000  0.4352070000000  0.4851480000000 1.0
C      1  0.4587580000000  0.4911120000000  0.5807550000000 1.0
C      1  0.5226140000000  0.4756220000000  0.5054660000000 1.0
C      1  0.4129430000000  0.5437200000000  0.5424910000000 1.0
C      1  0.4219020000000  0.4347290000000  0.5254500000000 1.0
C      1  0.5450350000000  0.4089870000000  0.4856100000000 1.0
C      1  0.4598970000000  0.4565650000000  0.4635490000000 1.0
C      1  0.5304160000000  0.6011690000000  0.5448010000000 1.0
C      1  0.4035240000000  0.4693760000000  0.4563280000000 1.0
C      1  0.4822260000000  0.4681380000000  0.5362830000000 1.0
C      1  0.6065800000000  0.4959480000000  0.4915710000000 1.0
C      1  0.5165050000000  0.5602760000000  0.5185300000000 1.0
C      1  0.5292080000000  0.4187970000000  0.4382200000000 1.0
C      1  0.4031720000000  0.5373580000000  0.5144590000000 1.0
C      1  0.5500940000000  0.4378300000000  0.4306250000000 1.0
C      1  0.5376640000000  0.5642340000000  0.5672070000000 1.0
C      1  0.6037610000000  0.5233600000000  0.5044980000000 1.0
C      1  0.5372900000000  0.4003400000000  0.5128540000000 1.0
C      1  0.4405060000000  0.4255790000000  0.5467780000000 1.0
C      1  0.5646920000000  0.5654740000000  0.5568950000000 1.0
C      1  0.4907870000000  0.5115570000000  0.6279250000000 1.0
C      1  0.4604100000000  0.4474790000000  0.5999630000000 1.0
C      1  0.3887150000000  0.4956850000000  0.4860180000000 1.0
C      1  0.4849060000000  0.5749720000000  0.5554550000000 1.0
C      1  0.5083470000000  0.4563960000000  0.4186610000000 1.0
C      1  0.5037290000000  0.5947580000000  0.4664440000000 1.0
C      1  0.6082420000000  0.4331680000000  0.5160040000000 1.0
C      1  0.5404960000000  0.4993190000000  0.4658870000000 1.0
C      1  0.4814470000000  0.4715610000000  0.4559960000000 1.0
C      1  0.5976840000000  0.5052590000000  0.4678950000000 1.0
C      1  0.5385120000000  0.4550540000000  0.4111560000000 1.0
C      1  0.5434320000000  0.5278430000000  0.5430190000000 1.0
C      1  0.4763490000000  0.4075560000000  0.4548390000000 1.0
C      1  0.5169580000000  0.5218160000000  0.4992480000000 1.0
C      1  0.4395220000000  0.5411870000000  0.4585210000000 1.0
C      1  0.4587470000000  0.5580330000000  0.5165970000000 1.0
C      1  0.5194910000000  0.5325860000000  0.5287860000000 1.0
C      1  0.4969010000000  0.5930660000000  0.4937610000000 1.0
C      1  0.5510940000000  0.4808390000000  0.4044170000000 1.0
C      1  0.4412000000000  0.4713350000000  0.5935440000000 1.0
C      1  0.4789000000000  0.5521480000000  0.4021150000000 1.0
C      1  0.3931070000000  0.5100320000000  0.5114420000000 1.0
C      1  0.4924650000000  0.4803760000000  0.4046060000000 1.0
C      1  0.4805760000000  0.5177760000000  0.4810340000000 1.0
C      1  0.4518040000000  0.5390870000000  0.4321360000000 1.0
C      1  0.5114750000000  0.6188630000000  0.5314170000000 1.0
C      1  0.4847430000000  0.4996430000000  0.4591700000000 1.0
C      1  0.4404190000000  0.5204610000000  0.4793050000000 1.0
C      1  0.5469680000000  0.4730000000000  0.4612980000000 1.0
C      1  0.5665000000000  0.4272170000000  0.5510550000000 1.0
C      1  0.5201930000000  0.5594580000000  0.4322050000000 1.0
C      1  0.5145070000000  0.5386200000000  0.4748950000000 1.0
C      1  0.5854350000000  0.4666410000000  0.5206450000000 1.0
C      1  0.5476930000000  0.4396290000000  0.5693060000000 1.0
C      1  0.4200420000000  0.4693890000000  0.5731990000000 1.0
C      1  0.4645570000000  0.4266930000000  0.4969390000000 1.0
C      1  0.4982240000000  0.4424050000000  0.5269030000000 1.0
C      1  0.5614830000000  0.5845270000000  0.5116110000000 1.0
C      1  0.4100150000000  0.4931820000000  0.5568470000000 1.0
C      1  0.5620160000000  0.6035160000000  0.4871550000000 1.0
C      1  0.4903290000000  0.5641820000000  0.5032910000000 1.0
C      1  0.4566640000000  0.5296980000000  0.5254520000000 1.0
C      1  0.5250890000000  0.4050480000000  0.4644000000000 1.0
C      1  0.5133170000000  0.4539360000000  0.5886790000000 1.0
C      1  0.3971390000000  0.4685090000000  0.4852830000000 1.0
C      1  0.4621890000000  0.5638670000000  0.4211940000000 1.0
C      1  0.4614710000000  0.6003020000000  0.5183890000000 1.0
C      1  0.4805380000000  0.4810860000000  0.5620650000000 1.0
C      1  0.5886700000000  0.5431030000000  0.4868510000000 1.0
C      1  0.4914450000000  0.4802430000000  0.5114760000000 1.0
C      1  0.4017900000000  0.5006980000000  0.4581180000000 1.0
C      1  0.4332560000000  0.4294540000000  0.4405890000000 1.0
C      1  0.5759380000000  0.5100000000000  0.4227980000000 1.0
C      1  0.5807010000000  0.4507020000000  0.4747630000000 1.0
C      1  0.4372750000000  0.5361650000000  0.5763330000000 1.0
C      1  0.5291100000000  0.5416520000000  0.5832150000000 1.0
C      1  0.4821970000000  0.5257850000000  0.6072440000000 1.0
C      1  0.4979730000000  0.4166090000000  0.5466340000000 1.0
C      1  0.5349510000000  0.4557090000000  0.4822240000000 1.0
C      1  0.5622090000000  0.5043600000000  0.5069120000000 1.0
C      1  0.5802330000000  0.5184930000000  0.4506970000000 1.0
C      1  0.5335750000000  0.4697590000000  0.5309680000000 1.0
C      1  0.5008060000000  0.5428430000000  0.5892060000000 1.0
C      1  0.5693390000000  0.4868540000000  0.5269980000000 1.0
C      1  0.5679640000000  0.4598100000000  0.4452050000000 1.0
C      1  0.4745990000000  0.5268660000000  0.5478950000000 1.0
C      1  0.4352590000000  0.5703260000000  0.5014370000000 1.0
C      1  0.5270370000000  0.4436010000000  0.5318840000000 1.0
C      1  0.4543050000000  0.4854470000000  0.4995260000000 1.0
C      1  0.4702950000000  0.5158240000000  0.4206030000000 1.0
C      1  0.5906080000000  0.4399780000000  0.5362270000000 1.0
C      1  0.4781020000000  0.4180340000000  0.4278600000000 1.0
C      1  0.5582710000000  0.5893340000000  0.5403160000000 1.0
C      1  0.4096800000000  0.5491130000000  0.4632570000000 1.0
C      1  0.5080530000000  0.4442880000000  0.4742110000000 1.0
C      1  0.4441800000000  0.4777800000000  0.4742660000000 1.0
C      1  0.5054570000000  0.4254990000000  0.4216720000000 1.0
C      1  0.4325220000000  0.5003690000000  0.4610700000000 1.0
C      1  0.5730770000000  0.4810930000000  0.4227990000000 1.0
C      1  0.5653260000000  0.5264100000000  0.5252690000000 1.0
C      1  0.4565920000000  0.5184660000000  0.5900250000000 1.0
C      1  0.5452300000000  0.4209280000000  0.5322110000000 1.0
C      1  0.4924310000000  0.3923780000000  0.5016100000000 1.0
C      1  0.5936040000000  0.5285240000000  0.5323680000000 1.0
C      1  0.5071260000000  0.5046650000000  0.3983140000000 1.0
C      1  0.4819760000000  0.5492640000000  0.5677160000000 1.0
C      1  0.4076200000000  0.4649690000000  0.5144050000000 1.0
C      1  0.5258790000000  0.4820640000000  0.5830400000000 1.0
C      1  0.4146210000000  0.5215100000000  0.5625750000000 1.0
C      1  0.4691280000000  0.4116510000000  0.5427460000000 1.0
C      1  0.5480660000000  0.5537250000000  0.4272040000000 1.0
C      1  0.4874510000000  0.6129800000000  0.5140710000000 1.0
C      1  0.5900250000000  0.5586990000000  0.4607750000000 1.0
C      1  0.4907920000000  0.5088750000000  0.5057630000000 1.0
C      1  0.4116900000000  0.5551450000000  0.4934120000000 1.0
C      1  0.5438280000000  0.5642900000000  0.4977430000000 1.0
C      1  0.5355310000000  0.4998430000000  0.4947710000000 1.0
C      1  0.4593220000000  0.5783330000000  0.5412210000000 1.0
C      1  0.4863240000000  0.5262260000000  0.3960160000000 1.0
C      1  0.4878200000000  0.4460530000000  0.5928730000000 1.0
C      1  0.4219930000000  0.4561210000000  0.4377860000000 1.0
C      1  0.4534370000000  0.4338270000000  0.4198490000000 1.0
C      1  0.4945780000000  0.5153130000000  0.4377410000000 1.0
C      1  0.4732350000000  0.5860550000000  0.4405710000000 1.0
C      1  0.5532020000000  0.5248940000000  0.4621500000000 1.0
C      1  0.5145410000000  0.5752220000000  0.5465040000000 1.0
C      1  0.5735170000000  0.5192640000000  0.5752170000000 1.0
C      1  0.4542030000000  0.4262210000000  0.4629920000000 1.0
C      1  0.5531690000000  0.5272390000000  0.4141930000000 1.0
C      1  0.4685790000000  0.4017180000000  0.5156370000000 1.0
C      1  0.5159610000000  0.5332000000000  0.4461860000000 1.0
C      1  0.4383470000000  0.4712470000000  0.5169100000000 1.0
C      1  0.5043790000000  0.5834170000000  0.4409630000000 1.0
END
