TITL C-4164233-775-137 105.449908862238 125000 -16670.7562598341 0 0 112 (C1) n - 1
REM
REM in /home/nfs/bkarasulu/CARBON/AIRSS/Generating-Clusters/ReaxFF-fromJPCA2015/Units_Real/with-SteepDescent/Only-C1/SD-CG/Try1-3A/FIRE-CG
REM
REM
REM
REM
REM
REM ./C.cell (11c1c37f851c82e70ff6c80c92926a4b)
REM
REM compiler GCC version 9.2.1 20190827 (Red Hat 9.2.1-1)
REM options -cpp -mtune=generic -march=x86-64 -g -O0 -fpre-include=/usr/include/finclude/math-vector-fortran.h
REM seed -597518899 1087036089 703619387 -633328391 1894740383 -102342037 -2037546501 -766312115 362858938 -857871144 760076412 -518523082 -1426312727 -363596424 196315699 -385055209 1194361471 -1603662048 -279984068 -611410241 145816544 1461114938 -1436236557 1675224711 1548310812 702640282 1561089739 -506745212 -371090665 -514293730 -913845471 -1387761173 1882468578
REM
CELL 1.54180   50.00000   50.00000   50.00000   90.00000   90.00000   90.00000
LATT -1
SFAC C  
C      1  0.4482740000000  0.5815560000000  0.4941650000000 1.0
C      1  0.4511910000000  0.4229230000000  0.5145950000000 1.0
C      1  0.5652500000000  0.4536560000000  0.4858050000000 1.0
C      1  0.4290940000000  0.4420690000000  0.5149630000000 1.0
C      1  0.5793120000000  0.5011540000000  0.5377920000000 1.0
C      1  0.5533290000000  0.5470660000000  0.4885030000000 1.0
C      1  0.5407760000000  0.4309500000000  0.4488870000000 1.0
C      1  0.4161940000000  0.5433410000000  0.4804780000000 1.0
C      1  0.4784380000000  0.4218310000000  0.4516820000000 1.0
C      1  0.4613720000000  0.4922890000000  0.5156860000000 1.0
C      1  0.4895030000000  0.4360880000000  0.4292830000000 1.0
C      1  0.5007310000000  0.4652140000000  0.4271670000000 1.0
C      1  0.4951760000000  0.5468880000000  0.4950270000000 1.0
C      1  0.4625320000000  0.4601180000000  0.4821050000000 1.0
C      1  0.5665310000000  0.4684220000000  0.5734890000000 1.0
C      1  0.4622700000000  0.5114770000000  0.5700290000000 1.0
C      1  0.4241200000000  0.5000860000000  0.4590880000000 1.0
C      1  0.5035280000000  0.5179240000000  0.4192370000000 1.0
C      1  0.5461730000000  0.4130260000000  0.4991320000000 1.0
C      1  0.5936840000000  0.5029550000000  0.4890590000000 1.0
C      1  0.4749670000000  0.4893040000000  0.5855170000000 1.0
C      1  0.5129670000000  0.5821010000000  0.4571100000000 1.0
C      1  0.5551420000000  0.4241950000000  0.5263890000000 1.0
C      1  0.4870300000000  0.4809830000000  0.5178740000000 1.0
C      1  0.4954740000000  0.4161960000000  0.5037300000000 1.0
C      1  0.4452040000000  0.4893890000000  0.4424060000000 1.0
C      1  0.4657540000000  0.5081710000000  0.4338690000000 1.0
C      1  0.4107740000000  0.5040310000000  0.5092110000000 1.0
C      1  0.5396520000000  0.5014220000000  0.4815960000000 1.0
C      1  0.5335590000000  0.5138000000000  0.5651780000000 1.0
C      1  0.4959790000000  0.5780670000000  0.5503510000000 1.0
C      1  0.5139480000000  0.4926370000000  0.5252520000000 1.0
C      1  0.4883230000000  0.4620610000000  0.4969200000000 1.0
C      1  0.4252420000000  0.4600540000000  0.5367590000000 1.0
C      1  0.4405830000000  0.4541290000000  0.5618080000000 1.0
C      1  0.4811390000000  0.5191620000000  0.4660510000000 1.0
C      1  0.5842310000000  0.4596480000000  0.5079490000000 1.0
C      1  0.5054250000000  0.5358650000000  0.4703220000000 1.0
C      1  0.4179880000000  0.5050300000000  0.5553940000000 1.0
C      1  0.4657660000000  0.4742330000000  0.4569030000000 1.0
C      1  0.4815850000000  0.5400870000000  0.5467950000000 1.0
C      1  0.5493780000000  0.4574690000000  0.4401110000000 1.0
C      1  0.5771850000000  0.4842970000000  0.5601190000000 1.0
C      1  0.4978050000000  0.5532770000000  0.5653840000000 1.0
C      1  0.5540280000000  0.5750640000000  0.4783200000000 1.0
C      1  0.5213950000000  0.4284800000000  0.4969060000000 1.0
C      1  0.5074430000000  0.4314570000000  0.4522530000000 1.0
C      1  0.5263950000000  0.5198420000000  0.5215840000000 1.0
C      1  0.5058790000000  0.4731050000000  0.4762690000000 1.0
C      1  0.5176830000000  0.5914240000000  0.5083400000000 1.0
C      1  0.4336000000000  0.5663720000000  0.4733210000000 1.0
C      1  0.4844190000000  0.5814600000000  0.4593720000000 1.0
C      1  0.4918090000000  0.4467270000000  0.5664720000000 1.0
C      1  0.5674950000000  0.5633200000000  0.4538340000000 1.0
C      1  0.4929580000000  0.4141360000000  0.5322050000000 1.0
C      1  0.4175140000000  0.4507780000000  0.4882810000000 1.0
C      1  0.5285700000000  0.5891290000000  0.4814730000000 1.0
C      1  0.4310430000000  0.5429980000000  0.5532200000000 1.0
C      1  0.5709750000000  0.4657490000000  0.4593800000000 1.0
C      1  0.4613280000000  0.5196900000000  0.5178560000000 1.0
C      1  0.4979110000000  0.4740420000000  0.5740740000000 1.0
C      1  0.5208330000000  0.4871770000000  0.5595990000000 1.0
C      1  0.4648060000000  0.4367480000000  0.5604060000000 1.0
C      1  0.5259290000000  0.5416620000000  0.5676750000000 1.0
C      1  0.4866540000000  0.4949790000000  0.4204600000000 1.0
C      1  0.5817190000000  0.4375670000000  0.5282280000000 1.0
C      1  0.4459790000000  0.4788250000000  0.4967500000000 1.0
C      1  0.5899580000000  0.4884300000000  0.5137040000000 1.0
C      1  0.5521230000000  0.5173860000000  0.5415450000000 1.0
C      1  0.4684390000000  0.4165090000000  0.4916680000000 1.0
C      1  0.4465670000000  0.5512870000000  0.4517830000000 1.0
C      1  0.4483040000000  0.5745620000000  0.5222140000000 1.0
C      1  0.4536330000000  0.4719530000000  0.5795250000000 1.0
C      1  0.5423310000000  0.5592270000000  0.5510870000000 1.0
C      1  0.5496510000000  0.5198060000000  0.4363800000000 1.0
C      1  0.5302080000000  0.4746130000000  0.4261110000000 1.0
C      1  0.5334950000000  0.4833390000000  0.5032960000000 1.0
C      1  0.4246620000000  0.4337600000000  0.4670860000000 1.0
C      1  0.4261330000000  0.5284960000000  0.4567400000000 1.0
C      1  0.5080710000000  0.4591710000000  0.4541240000000 1.0
C      1  0.4971780000000  0.5455310000000  0.4303530000000 1.0
C      1  0.4188810000000  0.4858150000000  0.4860280000000 1.0
C      1  0.4155350000000  0.5321470000000  0.5074700000000 1.0
C      1  0.4120570000000  0.4874420000000  0.5345340000000 1.0
C      1  0.5301430000000  0.5034220000000  0.4229950000000 1.0
C      1  0.4893200000000  0.5958780000000  0.5090720000000 1.0
C      1  0.5217290000000  0.5723850000000  0.5324080000000 1.0
C      1  0.5096020000000  0.4297680000000  0.5506080000000 1.0
C      1  0.5369070000000  0.4371760000000  0.5461240000000 1.0
C      1  0.5817220000000  0.4923670000000  0.4644090000000 1.0
C      1  0.4712320000000  0.5310990000000  0.4925180000000 1.0
C      1  0.4881270000000  0.4908340000000  0.4638770000000 1.0
C      1  0.5571500000000  0.5035690000000  0.4592830000000 1.0
C      1  0.5852060000000  0.5430900000000  0.5203240000000 1.0
C      1  0.5420250000000  0.4626250000000  0.5604270000000 1.0
C      1  0.5206030000000  0.5611230000000  0.4373860000000 1.0
C      1  0.4740980000000  0.5849020000000  0.5322470000000 1.0
C      1  0.4659110000000  0.4190290000000  0.5382030000000 1.0
C      1  0.5144110000000  0.5446510000000  0.5171520000000 1.0
C      1  0.5521820000000  0.4181700000000  0.4714050000000 1.0
C      1  0.5665160000000  0.5452900000000  0.5424130000000 1.0
C      1  0.4576280000000  0.4296240000000  0.4688920000000 1.0
C      1  0.4332760000000  0.5219800000000  0.5721820000000 1.0
C      1  0.4284800000000  0.5525140000000  0.5282870000000 1.0
C      1  0.5778070000000  0.5416940000000  0.4716520000000 1.0
C      1  0.4739330000000  0.5584240000000  0.4435700000000 1.0
C      1  0.4735680000000  0.5919370000000  0.4846620000000 1.0
C      1  0.5313750000000  0.5288770000000  0.4804690000000 1.0
C      1  0.4730060000000  0.5180690000000  0.5439550000000 1.0
C      1  0.5360810000000  0.4556000000000  0.4946720000000 1.0
C      1  0.5474730000000  0.5489070000000  0.4374940000000 1.0
C      1  0.5943230000000  0.5321520000000  0.4942220000000 1.0
END
