TITL C-4164240-4114-552 48.4555484765421 125000 -18134.7489138512 0 0 124 (C1) n - 1
REM
REM in /home/nfs/bkarasulu/CARBON/AIRSS/Generating-Clusters/ReaxFF-fromJPCA2015/Units_Real/with-SteepDescent/Only-C1/SD-CG/Try1-3A/FIRE-CG
REM
REM
REM
REM
REM
REM ./C.cell (11c1c37f851c82e70ff6c80c92926a4b)
REM
REM compiler GCC version 9.2.1 20190827 (Red Hat 9.2.1-1)
REM options -cpp -mtune=generic -march=x86-64 -g -O0 -fpre-include=/usr/include/finclude/math-vector-fortran.h
REM seed -1777629308 -893740865 -1660330856 58493370 1567295218 -1083281336 -802282172 -1294824878 2057683744 -592637702 -378548193 1897895953 -1776065899 -453824608 1120244801 147116576 -1629200627 818813137 1165911635 -1375006578 -928134883 -1931215587 -605187743 1587014125 589961443 -682623100 327304323 -35974830 -1469692080 337936126 119677006 -790788548 1660367682
REM
CELL 1.54180   50.00000   50.00000   50.00000   90.00000   90.00000   90.00000
LATT -1
SFAC C  
C      1  0.5389500000000  0.4452170000000  0.4449470000000 1.0
C      1  0.5075460000000  0.4438190000000  0.5232330000000 1.0
C      1  0.5210700000000  0.5156730000000  0.4258530000000 1.0
C      1  0.5085510000000  0.5124750000000  0.4842000000000 1.0
C      1  0.5473040000000  0.4782400000000  0.4782580000000 1.0
C      1  0.5795740000000  0.5019710000000  0.5525080000000 1.0
C      1  0.4249800000000  0.5540260000000  0.5325850000000 1.0
C      1  0.4191240000000  0.5562310000000  0.5030230000000 1.0
C      1  0.5237950000000  0.5787490000000  0.4680590000000 1.0
C      1  0.4290890000000  0.4431140000000  0.4475540000000 1.0
C      1  0.5038810000000  0.4578790000000  0.4976350000000 1.0
C      1  0.5604980000000  0.5427220000000  0.5720360000000 1.0
C      1  0.4631990000000  0.5870050000000  0.5098300000000 1.0
C      1  0.5418850000000  0.5618490000000  0.5346230000000 1.0
C      1  0.4729060000000  0.4771590000000  0.4062150000000 1.0
C      1  0.5681540000000  0.4996460000000  0.4643480000000 1.0
C      1  0.5490080000000  0.4704750000000  0.5767020000000 1.0
C      1  0.4819200000000  0.4035810000000  0.5026390000000 1.0
C      1  0.5829700000000  0.5481300000000  0.4992150000000 1.0
C      1  0.5759650000000  0.4890410000000  0.4122410000000 1.0
C      1  0.5215500000000  0.4709510000000  0.4072780000000 1.0
C      1  0.5918960000000  0.5033760000000  0.4816030000000 1.0
C      1  0.5111960000000  0.4935720000000  0.5995190000000 1.0
C      1  0.4503370000000  0.4799470000000  0.4226590000000 1.0
C      1  0.4883380000000  0.5671480000000  0.5738140000000 1.0
C      1  0.4799950000000  0.4404700000000  0.5760070000000 1.0
C      1  0.4821120000000  0.5768380000000  0.4664030000000 1.0
C      1  0.4788880000000  0.5308850000000  0.4077380000000 1.0
C      1  0.5112710000000  0.5807280000000  0.4933390000000 1.0
C      1  0.4012340000000  0.4794240000000  0.5105170000000 1.0
C      1  0.5634040000000  0.4574040000000  0.5263020000000 1.0
C      1  0.5271630000000  0.5175870000000  0.6026820000000 1.0
C      1  0.5226100000000  0.4687830000000  0.5885060000000 1.0
C      1  0.5655660000000  0.4946010000000  0.5792620000000 1.0
C      1  0.4473760000000  0.5587500000000  0.5506660000000 1.0
C      1  0.5154970000000  0.4860930000000  0.4727130000000 1.0
C      1  0.4945580000000  0.5685570000000  0.5284470000000 1.0
C      1  0.4188080000000  0.4985150000000  0.4553140000000 1.0
C      1  0.5355780000000  0.4115580000000  0.5208650000000 1.0
C      1  0.4464780000000  0.4335820000000  0.4841200000000 1.0
C      1  0.4407770000000  0.4763140000000  0.5671150000000 1.0
C      1  0.5091340000000  0.4448880000000  0.5764070000000 1.0
C      1  0.5023000000000  0.5594220000000  0.4258280000000 1.0
C      1  0.4862200000000  0.5028180000000  0.4000900000000 1.0
C      1  0.4937930000000  0.4359100000000  0.4281740000000 1.0
C      1  0.4101930000000  0.4844030000000  0.4716030000000 1.0
C      1  0.4889840000000  0.4782590000000  0.5605290000000 1.0
C      1  0.5657140000000  0.4848580000000  0.4345250000000 1.0
C      1  0.4396250000000  0.5052730000000  0.5685610000000 1.0
C      1  0.5537300000000  0.5763050000000  0.4707570000000 1.0
C      1  0.5740290000000  0.4263380000000  0.4973760000000 1.0
C      1  0.4750900000000  0.5622280000000  0.5088640000000 1.0
C      1  0.5877640000000  0.4787450000000  0.5303850000000 1.0
C      1  0.4956090000000  0.4584270000000  0.4103070000000 1.0
C      1  0.5046250000000  0.4934910000000  0.5422570000000 1.0
C      1  0.5143270000000  0.5463160000000  0.5336750000000 1.0
C      1  0.5533780000000  0.4511270000000  0.4701200000000 1.0
C      1  0.5179660000000  0.5511910000000  0.4509750000000 1.0
C      1  0.4491160000000  0.5160310000000  0.4967690000000 1.0
C      1  0.5160790000000  0.5679810000000  0.5723860000000 1.0
C      1  0.4583050000000  0.4246050000000  0.5106500000000 1.0
C      1  0.4624800000000  0.5446940000000  0.4283270000000 1.0
C      1  0.4473090000000  0.5275300000000  0.4460610000000 1.0
C      1  0.5536190000000  0.5011490000000  0.5401370000000 1.0
C      1  0.4650850000000  0.5140870000000  0.5218790000000 1.0
C      1  0.4787450000000  0.5491250000000  0.4794360000000 1.0
C      1  0.4776670000000  0.5673330000000  0.4386620000000 1.0
C      1  0.5050150000000  0.5237960000000  0.5481860000000 1.0
C      1  0.4570380000000  0.5298420000000  0.4732230000000 1.0
C      1  0.4811040000000  0.4918370000000  0.5229690000000 1.0
C      1  0.4681700000000  0.4287000000000  0.5515450000000 1.0
C      1  0.5462810000000  0.5643930000000  0.4961890000000 1.0
C      1  0.5955020000000  0.4898370000000  0.5066290000000 1.0
C      1  0.4224180000000  0.5089950000000  0.5511000000000 1.0
C      1  0.4683640000000  0.4681660000000  0.5762380000000 1.0
C      1  0.5424620000000  0.5656180000000  0.5658170000000 1.0
C      1  0.5311530000000  0.5812750000000  0.5138190000000 1.0
C      1  0.4812990000000  0.4822380000000  0.4483210000000 1.0
C      1  0.4720480000000  0.5742800000000  0.5482330000000 1.0
C      1  0.5445630000000  0.5354680000000  0.4912780000000 1.0
C      1  0.5215830000000  0.4444470000000  0.5492430000000 1.0
C      1  0.4137050000000  0.4676020000000  0.5281410000000 1.0
C      1  0.5085360000000  0.4004220000000  0.5169780000000 1.0
C      1  0.4983740000000  0.5213390000000  0.5975880000000 1.0
C      1  0.4115280000000  0.5272950000000  0.5331220000000 1.0
C      1  0.5134300000000  0.4321510000000  0.4491700000000 1.0
C      1  0.5382850000000  0.5327150000000  0.4421290000000 1.0
C      1  0.4630410000000  0.4925320000000  0.4863810000000 1.0
C      1  0.4343410000000  0.4591530000000  0.4721340000000 1.0
C      1  0.5764990000000  0.4343940000000  0.4761380000000 1.0
C      1  0.4579190000000  0.5343780000000  0.5670760000000 1.0
C      1  0.4804090000000  0.5410190000000  0.5857120000000 1.0
C      1  0.5489840000000  0.4529090000000  0.5526400000000 1.0
C      1  0.5271460000000  0.5181190000000  0.5049000000000 1.0
C      1  0.5939760000000  0.5262350000000  0.4924190000000 1.0
C      1  0.5151400000000  0.4987450000000  0.4018940000000 1.0
C      1  0.4583650000000  0.4764000000000  0.4634720000000 1.0
C      1  0.4809280000000  0.4367860000000  0.5268210000000 1.0
C      1  0.5747400000000  0.5555080000000  0.4717130000000 1.0
C      1  0.5445690000000  0.4645360000000  0.4246510000000 1.0
C      1  0.5058800000000  0.4934960000000  0.4466450000000 1.0
C      1  0.5566120000000  0.5280000000000  0.4635510000000 1.0
C      1  0.4470030000000  0.4514580000000  0.4256330000000 1.0
C      1  0.4952320000000  0.4124700000000  0.4800610000000 1.0
C      1  0.4339970000000  0.5733830000000  0.4865710000000 1.0
C      1  0.4486990000000  0.4234360000000  0.4563410000000 1.0
C      1  0.5469110000000  0.4716280000000  0.5053080000000 1.0
C      1  0.5350430000000  0.4936880000000  0.5197130000000 1.0
C      1  0.4806580000000  0.4755370000000  0.5011360000000 1.0
C      1  0.5770540000000  0.5352010000000  0.5491700000000 1.0
C      1  0.5530340000000  0.5194280000000  0.5880980000000 1.0
C      1  0.4772350000000  0.5302550000000  0.5422980000000 1.0
C      1  0.4576880000000  0.5884750000000  0.4813250000000 1.0
C      1  0.4295160000000  0.4556990000000  0.5472560000000 1.0
C      1  0.4167510000000  0.5244580000000  0.5030340000000 1.0
C      1  0.4426740000000  0.4307000000000  0.5390360000000 1.0
C      1  0.4359430000000  0.5022850000000  0.4343290000000 1.0
C      1  0.3998350000000  0.5004540000000  0.4917610000000 1.0
C      1  0.4660440000000  0.4299110000000  0.4331880000000 1.0
C      1  0.5605970000000  0.4252420000000  0.5223940000000 1.0
C      1  0.5013330000000  0.5358670000000  0.4697360000000 1.0
C      1  0.5039430000000  0.4373640000000  0.4756110000000 1.0
C      1  0.5050790000000  0.5362160000000  0.4110730000000 1.0
C      1  0.5704350000000  0.5496000000000  0.5255500000000 1.0
END
