TITL C-4164233-775-449 -1.04544412554157 125000 -6552.26130210227 0 0 46 (C1) n - 1
REM
REM in /home/nfs/bkarasulu/CARBON/AIRSS/Generating-Clusters/ReaxFF-fromJPCA2015/Units_Real/with-SteepDescent/Only-C1/SD-CG/Try1-3A/FIRE-CG
REM
REM
REM
REM
REM
REM ./C.cell (11c1c37f851c82e70ff6c80c92926a4b)
REM
REM compiler GCC version 9.2.1 20190827 (Red Hat 9.2.1-1)
REM options -cpp -mtune=generic -march=x86-64 -g -O0 -fpre-include=/usr/include/finclude/math-vector-fortran.h
REM seed 1494372860 -1078035508 1310539793 977436800 468359682 -447358659 -523980852 1621152290 -942695636 -1229244845 1981791534 1724781877 -71884817 -1957326218 1808615166 -424220602 1690458388 -1165027115 -665859868 1915037088 -969338418 -73453268 223112259 -1657163943 129002442 -723820995 -1794026329 -1591548421 -1737753514 2057636677 -1521554517 643304392 270569017
REM
CELL 1.54180   50.00000   50.00000   50.00000   90.00000   90.00000   90.00000
LATT -1
SFAC C  
C      1  0.5355050000000  0.5200580000000  0.5524000000000 1.0
C      1  0.5609120000000  0.4824780000000  0.5320150000000 1.0
C      1  0.5019750000000  0.5646000000000  0.5067500000000 1.0
C      1  0.5383330000000  0.5393260000000  0.4566450000000 1.0
C      1  0.4539670000000  0.5371100000000  0.4988910000000 1.0
C      1  0.5080820000000  0.5270980000000  0.5389580000000 1.0
C      1  0.4589380000000  0.4689870000000  0.5311360000000 1.0
C      1  0.5254090000000  0.5772490000000  0.4987470000000 1.0
C      1  0.4768020000000  0.5053670000000  0.4426720000000 1.0
C      1  0.4334860000000  0.5012220000000  0.5052160000000 1.0
C      1  0.4419820000000  0.4734200000000  0.5069010000000 1.0
C      1  0.4455290000000  0.4733740000000  0.4592050000000 1.0
C      1  0.4935500000000  0.5246600000000  0.4572760000000 1.0
C      1  0.5051190000000  0.4604660000000  0.5058250000000 1.0
C      1  0.4591840000000  0.5243240000000  0.5547120000000 1.0
C      1  0.4857530000000  0.5322790000000  0.5600130000000 1.0
C      1  0.4937600000000  0.4620330000000  0.4594820000000 1.0
C      1  0.4976180000000  0.5006240000000  0.5297360000000 1.0
C      1  0.4683670000000  0.4709490000000  0.5574390000000 1.0
C      1  0.5411670000000  0.4921720000000  0.5561630000000 1.0
C      1  0.5223120000000  0.4112070000000  0.5055970000000 1.0
C      1  0.5130790000000  0.4753090000000  0.5291000000000 1.0
C      1  0.4423590000000  0.5164330000000  0.4819620000000 1.0
C      1  0.5053020000000  0.5110960000000  0.4820560000000 1.0
C      1  0.4603830000000  0.4681000000000  0.4846780000000 1.0
C      1  0.5398860000000  0.4466770000000  0.4727120000000 1.0
C      1  0.5024700000000  0.5340450000000  0.5044560000000 1.0
C      1  0.5471690000000  0.5797970000000  0.4857070000000 1.0
C      1  0.5594750000000  0.4768450000000  0.5058900000000 1.0
C      1  0.4903550000000  0.4816030000000  0.5717420000000 1.0
C      1  0.5491170000000  0.5625970000000  0.4697380000000 1.0
C      1  0.5332770000000  0.5138830000000  0.4722580000000 1.0
C      1  0.5433800000000  0.4901910000000  0.4588880000000 1.0
C      1  0.4509030000000  0.5030490000000  0.4563880000000 1.0
C      1  0.5551750000000  0.4705430000000  0.4782230000000 1.0
C      1  0.4920480000000  0.4772390000000  0.4856880000000 1.0
C      1  0.5215190000000  0.4525160000000  0.4512490000000 1.0
C      1  0.4703620000000  0.4965820000000  0.5259290000000 1.0
C      1  0.5119930000000  0.5431870000000  0.4424240000000 1.0
C      1  0.5251060000000  0.4790480000000  0.4384580000000 1.0
C      1  0.5234370000000  0.4362960000000  0.4970330000000 1.0
C      1  0.4794640000000  0.5497610000000  0.4943760000000 1.0
C      1  0.5163330000000  0.4759370000000  0.5587710000000 1.0
C      1  0.4497020000000  0.5192230000000  0.5244460000000 1.0
C      1  0.4949740000000  0.4824830000000  0.4383310000000 1.0
C      1  0.4749830000000  0.5085570000000  0.5737170000000 1.0
END
