TITL C-4164235-1454-626 93.3676167898369 125000 -23228.3437106367 0 0 157 (C1) n - 1
REM
REM in /home/nfs/bkarasulu/CARBON/AIRSS/Generating-Clusters/ReaxFF-fromJPCA2015/Units_Real/with-SteepDescent/Only-C1/SD-CG/Try1-3A/FIRE-CG
REM
REM
REM
REM
REM
REM ./C.cell (11c1c37f851c82e70ff6c80c92926a4b)
REM
REM compiler GCC version 9.2.1 20190827 (Red Hat 9.2.1-1)
REM options -cpp -mtune=generic -march=x86-64 -g -O0 -fpre-include=/usr/include/finclude/math-vector-fortran.h
REM seed -1247020513 1304487048 -283268122 810723907 1247489778 -1291574802 -1088578448 1904355680 -989802603 740787796 1615721911 -2000925494 -1186695889 1524234418 234815188 1760066149 1772276759 -218393715 -181449763 -1138881002 -1577993135 -482200760 2004763895 533097159 -2047783513 -314003421 -1257202228 -783924386 1321088312 1451006944 1829456225 768847017 -809848903
REM
CELL 1.54180   50.00000   50.00000   50.00000   90.00000   90.00000   90.00000
LATT -1
SFAC C  
C      1  0.4876940000000  0.4447570000000  0.4081680000000 1.0
C      1  0.5674860000000  0.5730800000000  0.4755210000000 1.0
C      1  0.4707240000000  0.5460470000000  0.5521240000000 1.0
C      1  0.4028050000000  0.5417190000000  0.5374850000000 1.0
C      1  0.5145450000000  0.4960620000000  0.5412880000000 1.0
C      1  0.5878350000000  0.5070870000000  0.4466730000000 1.0
C      1  0.5438170000000  0.5179140000000  0.5122650000000 1.0
C      1  0.4671750000000  0.4773700000000  0.5940690000000 1.0
C      1  0.4690690000000  0.4063460000000  0.5149780000000 1.0
C      1  0.4625110000000  0.4674830000000  0.4600220000000 1.0
C      1  0.4526930000000  0.5463970000000  0.4250310000000 1.0
C      1  0.5099090000000  0.5995040000000  0.5182530000000 1.0
C      1  0.5399020000000  0.4616920000000  0.5189030000000 1.0
C      1  0.4201870000000  0.4647750000000  0.4398710000000 1.0
C      1  0.5257760000000  0.4163430000000  0.4255120000000 1.0
C      1  0.4470810000000  0.4430800000000  0.4677870000000 1.0
C      1  0.5284800000000  0.4090030000000  0.4958530000000 1.0
C      1  0.4720360000000  0.4654520000000  0.5390640000000 1.0
C      1  0.4476240000000  0.5197330000000  0.5984300000000 1.0
C      1  0.5035680000000  0.4221420000000  0.5720730000000 1.0
C      1  0.4760310000000  0.5225840000000  0.6040430000000 1.0
C      1  0.4913760000000  0.5006930000000  0.5892040000000 1.0
C      1  0.5546600000000  0.5428580000000  0.5795410000000 1.0
C      1  0.5946880000000  0.4749370000000  0.4944530000000 1.0
C      1  0.4948040000000  0.5044600000000  0.5593640000000 1.0
C      1  0.5506750000000  0.5279910000000  0.4135640000000 1.0
C      1  0.4149000000000  0.5301890000000  0.4767220000000 1.0
C      1  0.5844870000000  0.4770630000000  0.5438800000000 1.0
C      1  0.4352220000000  0.5182530000000  0.5266570000000 1.0
C      1  0.4456280000000  0.4150870000000  0.5363460000000 1.0
C      1  0.5063220000000  0.4036010000000  0.4768580000000 1.0
C      1  0.4803260000000  0.5969060000000  0.5141100000000 1.0
C      1  0.4469120000000  0.4677700000000  0.4303930000000 1.0
C      1  0.4424840000000  0.5820370000000  0.4699820000000 1.0
C      1  0.3985860000000  0.5533210000000  0.4674910000000 1.0
C      1  0.5207550000000  0.5638860000000  0.5001190000000 1.0
C      1  0.5711730000000  0.4183820000000  0.4588360000000 1.0
C      1  0.5989850000000  0.5008240000000  0.5075240000000 1.0
C      1  0.4364920000000  0.5378580000000  0.5785390000000 1.0
C      1  0.4496860000000  0.4964200000000  0.4200280000000 1.0
C      1  0.4638570000000  0.4412000000000  0.4202350000000 1.0
C      1  0.5054020000000  0.5588170000000  0.4086040000000 1.0
C      1  0.4609810000000  0.5530310000000  0.5777660000000 1.0
C      1  0.5867650000000  0.4707410000000  0.4657560000000 1.0
C      1  0.4131070000000  0.5796070000000  0.4707040000000 1.0
C      1  0.4200660000000  0.5583390000000  0.5188140000000 1.0
C      1  0.4680800000000  0.5826990000000  0.5359080000000 1.0
C      1  0.4234710000000  0.4448140000000  0.5559510000000 1.0
C      1  0.4214450000000  0.4818200000000  0.5769080000000 1.0
C      1  0.4270300000000  0.5351970000000  0.5027300000000 1.0
C      1  0.5154400000000  0.5703810000000  0.5623830000000 1.0
C      1  0.4989330000000  0.5035820000000  0.4908570000000 1.0
C      1  0.4497160000000  0.4285850000000  0.5609030000000 1.0
C      1  0.4574170000000  0.4610050000000  0.5101640000000 1.0
C      1  0.5993450000000  0.5275560000000  0.4953440000000 1.0
C      1  0.5561730000000  0.4056660000000  0.4832510000000 1.0
C      1  0.5287910000000  0.5864460000000  0.5384780000000 1.0
C      1  0.4096680000000  0.4707790000000  0.5545630000000 1.0
C      1  0.5485600000000  0.4854560000000  0.4833030000000 1.0
C      1  0.5117710000000  0.5027450000000  0.4583600000000 1.0
C      1  0.4619210000000  0.4768680000000  0.5629520000000 1.0
C      1  0.5150380000000  0.5835290000000  0.4226690000000 1.0
C      1  0.5245430000000  0.4691500000000  0.5417470000000 1.0
C      1  0.4392300000000  0.4905700000000  0.5966130000000 1.0
C      1  0.5767390000000  0.4336120000000  0.5228150000000 1.0
C      1  0.5622280000000  0.5896120000000  0.4521120000000 1.0
C      1  0.5128490000000  0.4561920000000  0.4779370000000 1.0
C      1  0.5158910000000  0.4867880000000  0.6013300000000 1.0
C      1  0.5709380000000  0.4200850000000  0.5002770000000 1.0
C      1  0.4784270000000  0.5465300000000  0.4854440000000 1.0
C      1  0.3942010000000  0.5144860000000  0.5294090000000 1.0
C      1  0.5246110000000  0.5566000000000  0.4605600000000 1.0
C      1  0.5184180000000  0.5013260000000  0.5128500000000 1.0
C      1  0.5691440000000  0.5272980000000  0.4348940000000 1.0
C      1  0.5818170000000  0.5310010000000  0.5453910000000 1.0
C      1  0.4859140000000  0.5410020000000  0.4468070000000 1.0
C      1  0.5361540000000  0.5761710000000  0.4415230000000 1.0
C      1  0.4517270000000  0.5700230000000  0.4443320000000 1.0
C      1  0.5103160000000  0.6060390000000  0.4683680000000 1.0
C      1  0.5376860000000  0.5042380000000  0.5956570000000 1.0
C      1  0.4249260000000  0.5289830000000  0.5527770000000 1.0
C      1  0.4041600000000  0.4689480000000  0.4771310000000 1.0
C      1  0.5326690000000  0.4094800000000  0.5292990000000 1.0
C      1  0.4732140000000  0.4193370000000  0.4367330000000 1.0
C      1  0.5455210000000  0.5813640000000  0.4992410000000 1.0
C      1  0.5395840000000  0.4529860000000  0.4123990000000 1.0
C      1  0.5720940000000  0.4869430000000  0.4509710000000 1.0
C      1  0.4980230000000  0.5949410000000  0.4434980000000 1.0
C      1  0.4922740000000  0.4009770000000  0.5304830000000 1.0
C      1  0.5381470000000  0.5507240000000  0.5560620000000 1.0
C      1  0.5549420000000  0.4842830000000  0.5079320000000 1.0
C      1  0.5414830000000  0.4559500000000  0.4425380000000 1.0
C      1  0.4677770000000  0.4922190000000  0.4981140000000 1.0
C      1  0.5254920000000  0.4397320000000  0.5802020000000 1.0
C      1  0.5128460000000  0.4837360000000  0.4099540000000 1.0
C      1  0.5112820000000  0.4582560000000  0.5980650000000 1.0
C      1  0.5909970000000  0.5046530000000  0.5360400000000 1.0
C      1  0.4999680000000  0.4418770000000  0.5155450000000 1.0
C      1  0.4692640000000  0.5268280000000  0.4656440000000 1.0
C      1  0.4299230000000  0.4541890000000  0.5116020000000 1.0
C      1  0.4784400000000  0.4034590000000  0.4820690000000 1.0
C      1  0.4426280000000  0.5778150000000  0.5195570000000 1.0
C      1  0.5951540000000  0.5282930000000  0.4671950000000 1.0
C      1  0.5239230000000  0.4434830000000  0.5005790000000 1.0
C      1  0.5032710000000  0.5621300000000  0.4794170000000 1.0
C      1  0.5541460000000  0.5769120000000  0.5279160000000 1.0
C      1  0.4613020000000  0.5084130000000  0.5221850000000 1.0
C      1  0.5243740000000  0.5388930000000  0.4185230000000 1.0
C      1  0.5137670000000  0.5058130000000  0.3909800000000 1.0
C      1  0.4569660000000  0.4998840000000  0.4715100000000 1.0
C      1  0.5133960000000  0.5317510000000  0.4461430000000 1.0
C      1  0.5117870000000  0.4554080000000  0.3997470000000 1.0
C      1  0.4776990000000  0.5026870000000  0.4175270000000 1.0
C      1  0.4097850000000  0.4716760000000  0.5053430000000 1.0
C      1  0.5741080000000  0.5549220000000  0.5300860000000 1.0
C      1  0.5326850000000  0.5346810000000  0.5963500000000 1.0
C      1  0.5052600000000  0.4136490000000  0.4447400000000 1.0
C      1  0.5894660000000  0.4609290000000  0.5196140000000 1.0
C      1  0.5563470000000  0.5366200000000  0.4919580000000 1.0
C      1  0.4842530000000  0.5489840000000  0.5966280000000 1.0
C      1  0.5416200000000  0.4867320000000  0.4565160000000 1.0
C      1  0.4273840000000  0.5103490000000  0.4577540000000 1.0
C      1  0.4092500000000  0.4864910000000  0.4543630000000 1.0
C      1  0.5731420000000  0.5214610000000  0.5714340000000 1.0
C      1  0.5516890000000  0.4767940000000  0.3994960000000 1.0
C      1  0.4237170000000  0.4329870000000  0.5288110000000 1.0
C      1  0.5120360000000  0.4023000000000  0.5491380000000 1.0
C      1  0.4559810000000  0.5882670000000  0.4962010000000 1.0
C      1  0.5531920000000  0.4265100000000  0.5410800000000 1.0
C      1  0.4782730000000  0.5462180000000  0.4077240000000 1.0
C      1  0.5682850000000  0.5419910000000  0.4652750000000 1.0
C      1  0.4909520000000  0.5293110000000  0.5034440000000 1.0
C      1  0.4996140000000  0.4553230000000  0.5394520000000 1.0
C      1  0.5240260000000  0.6049610000000  0.4935620000000 1.0
C      1  0.4885510000000  0.5212770000000  0.3968810000000 1.0
C      1  0.5117960000000  0.5532660000000  0.5885120000000 1.0
C      1  0.5653100000000  0.4702210000000  0.5651800000000 1.0
C      1  0.5696410000000  0.4476200000000  0.4553440000000 1.0
C      1  0.4803210000000  0.5697130000000  0.4451840000000 1.0
C      1  0.5144570000000  0.4471390000000  0.4520290000000 1.0
C      1  0.4737740000000  0.4365970000000  0.5049970000000 1.0
C      1  0.5314560000000  0.5334480000000  0.5346910000000 1.0
C      1  0.4826370000000  0.4509780000000  0.5960740000000 1.0
C      1  0.5601920000000  0.4954540000000  0.5792420000000 1.0
C      1  0.4900250000000  0.5625070000000  0.5432850000000 1.0
C      1  0.3994130000000  0.4861820000000  0.5285300000000 1.0
C      1  0.4605970000000  0.4173360000000  0.4624060000000 1.0
C      1  0.5432560000000  0.5046290000000  0.3937210000000 1.0
C      1  0.4761800000000  0.4301360000000  0.5773370000000 1.0
C      1  0.4991810000000  0.4924550000000  0.4345440000000 1.0
C      1  0.4912890000000  0.4622550000000  0.4625620000000 1.0
C      1  0.4749620000000  0.5189470000000  0.5452410000000 1.0
C      1  0.5797150000000  0.5475340000000  0.5038190000000 1.0
C      1  0.5082890000000  0.5459710000000  0.5207830000000 1.0
C      1  0.4187600000000  0.4472390000000  0.4625120000000 1.0
C      1  0.5497720000000  0.4448720000000  0.5642950000000 1.0
C      1  0.4390060000000  0.5210310000000  0.4305960000000 1.0
END
