TITL C-4164232-771-20 26.695194578746 125000 -21819.8558432361 0 0 146 (C1) n - 1
REM
REM in /home/nfs/bkarasulu/CARBON/AIRSS/Generating-Clusters/ReaxFF-fromJPCA2015/Units_Real/with-SteepDescent/Only-C1/SD-CG/Try1-3A/FIRE-CG
REM
REM
REM
REM
REM
REM ./C.cell (11c1c37f851c82e70ff6c80c92926a4b)
REM
REM compiler GCC version 9.2.1 20190827 (Red Hat 9.2.1-1)
REM options -cpp -mtune=generic -march=x86-64 -g -O0 -fpre-include=/usr/include/finclude/math-vector-fortran.h
REM seed -1062766586 -163550947 341540822 -808561169 956329813 -451963067 1836748804 1800093947 -1444730521 -1637577641 -1538655065 45653277 -751509591 1540662428 -140447401 270844790 618983173 1460962333 -1786496219 1912098069 -1071842906 -1396653957 171452245 -599962733 1704211267 -529221418 -1190975502 -160107888 1000463357 -2063791624 -1367382307 -539034636 -396101053
REM
CELL 1.54180   50.00000   50.00000   50.00000   90.00000   90.00000   90.00000
LATT -1
SFAC C  
C      1  0.4759500000000  0.4745330000000  0.5334280000000 1.0
C      1  0.5755080000000  0.5424880000000  0.5230700000000 1.0
C      1  0.5315880000000  0.5547570000000  0.5753910000000 1.0
C      1  0.4892210000000  0.3916030000000  0.4932670000000 1.0
C      1  0.5040780000000  0.5641860000000  0.4353280000000 1.0
C      1  0.4324860000000  0.5434860000000  0.4864400000000 1.0
C      1  0.5658890000000  0.4864360000000  0.4348030000000 1.0
C      1  0.5320660000000  0.4161700000000  0.5586410000000 1.0
C      1  0.5267880000000  0.5039120000000  0.5945670000000 1.0
C      1  0.5851310000000  0.5445280000000  0.5643460000000 1.0
C      1  0.3869500000000  0.4966560000000  0.5174330000000 1.0
C      1  0.5601150000000  0.5850760000000  0.5131000000000 1.0
C      1  0.4833660000000  0.4905130000000  0.4623170000000 1.0
C      1  0.5577320000000  0.5522400000000  0.4701910000000 1.0
C      1  0.4837280000000  0.5018760000000  0.4007720000000 1.0
C      1  0.4954280000000  0.4095810000000  0.5313660000000 1.0
C      1  0.4452450000000  0.5419370000000  0.5982330000000 1.0
C      1  0.5218570000000  0.5837320000000  0.5325310000000 1.0
C      1  0.5210140000000  0.5859770000000  0.4832890000000 1.0
C      1  0.5025490000000  0.5432330000000  0.4561740000000 1.0
C      1  0.4723640000000  0.5352960000000  0.4527560000000 1.0
C      1  0.5316750000000  0.5171020000000  0.5449340000000 1.0
C      1  0.4335160000000  0.5258150000000  0.5322140000000 1.0
C      1  0.4907020000000  0.5424430000000  0.5431830000000 1.0
C      1  0.4324760000000  0.4635700000000  0.4206300000000 1.0
C      1  0.4625200000000  0.5088610000000  0.4538610000000 1.0
C      1  0.5410100000000  0.4398550000000  0.5716480000000 1.0
C      1  0.5004490000000  0.5162210000000  0.5389070000000 1.0
C      1  0.4518990000000  0.4449980000000  0.4584720000000 1.0
C      1  0.5708210000000  0.5113190000000  0.4759030000000 1.0
C      1  0.5714300000000  0.5238480000000  0.5784580000000 1.0
C      1  0.5141730000000  0.4529180000000  0.5798010000000 1.0
C      1  0.5001490000000  0.5130780000000  0.5058090000000 1.0
C      1  0.4442400000000  0.4345100000000  0.5340520000000 1.0
C      1  0.4682060000000  0.5306650000000  0.6097800000000 1.0
C      1  0.5391560000000  0.5498810000000  0.4928860000000 1.0
C      1  0.4505440000000  0.5006430000000  0.4964520000000 1.0
C      1  0.5322670000000  0.5094970000000  0.4063890000000 1.0
C      1  0.5654820000000  0.4188640000000  0.5177330000000 1.0
C      1  0.5030660000000  0.4654730000000  0.5278690000000 1.0
C      1  0.4437490000000  0.4330900000000  0.5046190000000 1.0
C      1  0.5397300000000  0.4842380000000  0.4191060000000 1.0
C      1  0.5189230000000  0.4638080000000  0.4116490000000 1.0
C      1  0.5711670000000  0.4440540000000  0.5319490000000 1.0
C      1  0.4440400000000  0.5539310000000  0.5289030000000 1.0
C      1  0.4429870000000  0.5878420000000  0.4954500000000 1.0
C      1  0.4039650000000  0.4862720000000  0.5394710000000 1.0
C      1  0.5400340000000  0.4127040000000  0.5307130000000 1.0
C      1  0.5947840000000  0.5296160000000  0.4834760000000 1.0
C      1  0.4765250000000  0.4996180000000  0.5500670000000 1.0
C      1  0.4896050000000  0.4400540000000  0.5686070000000 1.0
C      1  0.4700830000000  0.4524240000000  0.4794790000000 1.0
C      1  0.5687130000000  0.4805070000000  0.5582550000000 1.0
C      1  0.4991720000000  0.4229950000000  0.4458050000000 1.0
C      1  0.4549220000000  0.5089100000000  0.4014290000000 1.0
C      1  0.4539080000000  0.4764090000000  0.5854280000000 1.0
C      1  0.4316650000000  0.5455270000000  0.4314070000000 1.0
C      1  0.4487330000000  0.4108680000000  0.5197670000000 1.0
C      1  0.4355390000000  0.4923980000000  0.4161540000000 1.0
C      1  0.5296590000000  0.4194150000000  0.4493630000000 1.0
C      1  0.5515790000000  0.4558180000000  0.4715530000000 1.0
C      1  0.4248040000000  0.4842920000000  0.5567950000000 1.0
C      1  0.4784940000000  0.5546080000000  0.5216430000000 1.0
C      1  0.5578360000000  0.5275720000000  0.4030160000000 1.0
C      1  0.4722380000000  0.5470630000000  0.4033510000000 1.0
C      1  0.5848640000000  0.5565500000000  0.4798380000000 1.0
C      1  0.5789380000000  0.4846560000000  0.4624940000000 1.0
C      1  0.4087850000000  0.5300600000000  0.4748270000000 1.0
C      1  0.4958490000000  0.5394300000000  0.6092500000000 1.0
C      1  0.4754730000000  0.4916050000000  0.5791050000000 1.0
C      1  0.4900420000000  0.5871970000000  0.4474740000000 1.0
C      1  0.5822260000000  0.5689080000000  0.5070010000000 1.0
C      1  0.5678920000000  0.5146910000000  0.4298920000000 1.0
C      1  0.4904720000000  0.4850110000000  0.4916430000000 1.0
C      1  0.5641310000000  0.4209960000000  0.4886560000000 1.0
C      1  0.4928570000000  0.4739710000000  0.4019120000000 1.0
C      1  0.5418190000000  0.4906170000000  0.5515200000000 1.0
C      1  0.4329150000000  0.5006770000000  0.4449100000000 1.0
C      1  0.4111860000000  0.4477030000000  0.4642150000000 1.0
C      1  0.4341480000000  0.4275660000000  0.4757520000000 1.0
C      1  0.5167350000000  0.4216360000000  0.5144020000000 1.0
C      1  0.4551060000000  0.4474010000000  0.4288060000000 1.0
C      1  0.4836120000000  0.5377260000000  0.4986840000000 1.0
C      1  0.4931290000000  0.4472380000000  0.4635630000000 1.0
C      1  0.5227140000000  0.5170740000000  0.4593130000000 1.0
C      1  0.5968390000000  0.5198380000000  0.5101790000000 1.0
C      1  0.5394970000000  0.5693290000000  0.5512640000000 1.0
C      1  0.5122140000000  0.5572550000000  0.4843230000000 1.0
C      1  0.5057030000000  0.5209500000000  0.4031110000000 1.0
C      1  0.5882580000000  0.4725830000000  0.4869040000000 1.0
C      1  0.5059730000000  0.5577400000000  0.5883790000000 1.0
C      1  0.5595810000000  0.5527680000000  0.3957640000000 1.0
C      1  0.4904540000000  0.5841090000000  0.5250850000000 1.0
C      1  0.5184320000000  0.4791680000000  0.5895860000000 1.0
C      1  0.4293130000000  0.5664110000000  0.5044760000000 1.0
C      1  0.4662500000000  0.4769370000000  0.5031040000000 1.0
C      1  0.4402310000000  0.4601110000000  0.5670310000000 1.0
C      1  0.4764160000000  0.5033340000000  0.6059460000000 1.0
C      1  0.5782830000000  0.4457500000000  0.4791200000000 1.0
C      1  0.5243330000000  0.5112090000000  0.4885880000000 1.0
C      1  0.4882640000000  0.5603770000000  0.5648580000000 1.0
C      1  0.4740380000000  0.4021810000000  0.4473240000000 1.0
C      1  0.5928820000000  0.5153000000000  0.5606370000000 1.0
C      1  0.5088550000000  0.4600150000000  0.5005310000000 1.0
C      1  0.4645850000000  0.4492050000000  0.5511670000000 1.0
C      1  0.5375190000000  0.4609160000000  0.4958070000000 1.0
C      1  0.4461210000000  0.5372840000000  0.4061530000000 1.0
C      1  0.4378880000000  0.5591500000000  0.5764840000000 1.0
C      1  0.5478440000000  0.5302640000000  0.5174630000000 1.0
C      1  0.4533870000000  0.5571640000000  0.4476230000000 1.0
C      1  0.4708880000000  0.3855710000000  0.4705270000000 1.0
C      1  0.5937140000000  0.4913900000000  0.5118140000000 1.0
C      1  0.5043120000000  0.5110140000000  0.6117930000000 1.0
C      1  0.5506010000000  0.4613960000000  0.5210250000000 1.0
C      1  0.4752570000000  0.5829580000000  0.5507130000000 1.0
C      1  0.4024040000000  0.5085050000000  0.4935210000000 1.0
C      1  0.5688180000000  0.5609070000000  0.5461270000000 1.0
C      1  0.4431890000000  0.5110100000000  0.5552960000000 1.0
C      1  0.4793370000000  0.4489480000000  0.4119230000000 1.0
C      1  0.5055860000000  0.4379290000000  0.4192340000000 1.0
C      1  0.5902680000000  0.4924500000000  0.5413650000000 1.0
C      1  0.4992600000000  0.5506730000000  0.4092890000000 1.0
C      1  0.4261300000000  0.5066720000000  0.5108580000000 1.0
C      1  0.5346110000000  0.5957240000000  0.5093990000000 1.0
C      1  0.5139260000000  0.4648890000000  0.4544200000000 1.0
C      1  0.5652890000000  0.4511870000000  0.5598270000000 1.0
C      1  0.4171200000000  0.4678200000000  0.4452660000000 1.0
C      1  0.4981580000000  0.6000820000000  0.4734940000000 1.0
C      1  0.5366630000000  0.4473910000000  0.4488600000000 1.0
C      1  0.4737510000000  0.3967230000000  0.5174850000000 1.0
C      1  0.4811520000000  0.5999190000000  0.4970030000000 1.0
C      1  0.4345430000000  0.5309020000000  0.5760010000000 1.0
C      1  0.5532700000000  0.5276490000000  0.4530570000000 1.0
C      1  0.5160880000000  0.4037530000000  0.4912100000000 1.0
C      1  0.4492380000000  0.4032560000000  0.4611400000000 1.0
C      1  0.5091140000000  0.4927580000000  0.4504550000000 1.0
C      1  0.4168400000000  0.5258230000000  0.4467660000000 1.0
C      1  0.4569980000000  0.5275310000000  0.4907110000000 1.0
C      1  0.5289410000000  0.4690000000000  0.5384940000000 1.0
C      1  0.5401220000000  0.4095250000000  0.4748450000000 1.0
C      1  0.5017590000000  0.4159750000000  0.5600600000000 1.0
C      1  0.4625570000000  0.5843160000000  0.4538840000000 1.0
C      1  0.4485450000000  0.5721220000000  0.5528150000000 1.0
C      1  0.5409940000000  0.5256140000000  0.5746700000000 1.0
C      1  0.4586250000000  0.5974090000000  0.4808720000000 1.0
C      1  0.5501910000000  0.5093370000000  0.4977410000000 1.0
END
