TITL C-4164241-3639-376 24.978553417393 125000 -9461.80623087622 0 0 66 (C1) n - 1
REM
REM in /home/nfs/bkarasulu/CARBON/AIRSS/Generating-Clusters/ReaxFF-fromJPCA2015/Units_Real/with-SteepDescent/Only-C1/SD-CG/Try1-3A/FIRE-CG
REM
REM
REM
REM
REM
REM ./C.cell (11c1c37f851c82e70ff6c80c92926a4b)
REM
REM compiler GCC version 9.2.1 20190827 (Red Hat 9.2.1-1)
REM options -cpp -mtune=generic -march=x86-64 -g -O0 -fpre-include=/usr/include/finclude/math-vector-fortran.h
REM seed 806019500 -847151500 -1334278359 -101078240 -1197644507 -1820460317 2138033465 -187184943 -1323674134 -1521789089 1922205954 -905507427 1030214241 1831092372 150088710 603783265 1310416692 1511010170 -195791409 -1530655146 -1616932627 435680364 -1392103673 1034327079 -1981567282 -794465746 -1891956691 1295815216 192307877 1086673247 -1509065135 -1581604408 -498659832
REM
CELL 1.54180   50.00000   50.00000   50.00000   90.00000   90.00000   90.00000
LATT -1
SFAC C  
C      1  0.4414110000000  0.5116230000000  0.4526710000000 1.0
C      1  0.5532930000000  0.4436300000000  0.4823370000000 1.0
C      1  0.5273480000000  0.4291990000000  0.5117780000000 1.0
C      1  0.4415660000000  0.4816600000000  0.4567440000000 1.0
C      1  0.4953420000000  0.4772170000000  0.4599030000000 1.0
C      1  0.4646980000000  0.4658210000000  0.5258970000000 1.0
C      1  0.5138880000000  0.4309480000000  0.4849440000000 1.0
C      1  0.4478820000000  0.4497910000000  0.5036070000000 1.0
C      1  0.4907870000000  0.5153710000000  0.5690790000000 1.0
C      1  0.4907800000000  0.5677440000000  0.4653810000000 1.0
C      1  0.5471340000000  0.4562080000000  0.5573400000000 1.0
C      1  0.5267340000000  0.5868540000000  0.5309360000000 1.0
C      1  0.5289640000000  0.4502340000000  0.4696880000000 1.0
C      1  0.5192550000000  0.5720750000000  0.4739140000000 1.0
C      1  0.4897370000000  0.5387100000000  0.4528900000000 1.0
C      1  0.5226900000000  0.5382100000000  0.4116050000000 1.0
C      1  0.5110840000000  0.5056680000000  0.4887800000000 1.0
C      1  0.5652480000000  0.4707060000000  0.5438750000000 1.0
C      1  0.4850850000000  0.4263690000000  0.5300050000000 1.0
C      1  0.4724980000000  0.5400650000000  0.4982150000000 1.0
C      1  0.5187520000000  0.5138000000000  0.4104760000000 1.0
C      1  0.5189100000000  0.5443820000000  0.4387430000000 1.0
C      1  0.4733220000000  0.4848550000000  0.5048740000000 1.0
C      1  0.4843560000000  0.4384200000000  0.4847370000000 1.0
C      1  0.5590460000000  0.4644620000000  0.5008720000000 1.0
C      1  0.5551310000000  0.5309670000000  0.4759610000000 1.0
C      1  0.5566270000000  0.5265910000000  0.5302800000000 1.0
C      1  0.4421950000000  0.5245080000000  0.5005020000000 1.0
C      1  0.4884530000000  0.5467430000000  0.5269300000000 1.0
C      1  0.4330450000000  0.5218140000000  0.5309070000000 1.0
C      1  0.5305450000000  0.5340360000000  0.5433350000000 1.0
C      1  0.5774350000000  0.4778740000000  0.5205870000000 1.0
C      1  0.5101980000000  0.5278790000000  0.5236770000000 1.0
C      1  0.4991450000000  0.5755100000000  0.5281760000000 1.0
C      1  0.4744290000000  0.5375150000000  0.5536150000000 1.0
C      1  0.5088670000000  0.4699640000000  0.5613860000000 1.0
C      1  0.5146400000000  0.4886840000000  0.4217290000000 1.0
C      1  0.5652000000000  0.5263900000000  0.5040750000000 1.0
C      1  0.4885590000000  0.4542870000000  0.5306400000000 1.0
C      1  0.5379130000000  0.5525400000000  0.4607350000000 1.0
C      1  0.5132720000000  0.4240600000000  0.5375040000000 1.0
C      1  0.5326260000000  0.5647740000000  0.5500590000000 1.0
C      1  0.5030810000000  0.5003630000000  0.5164970000000 1.0
C      1  0.4593780000000  0.4801400000000  0.5533860000000 1.0
C      1  0.5351200000000  0.4569250000000  0.5165940000000 1.0
C      1  0.4443480000000  0.5010440000000  0.5443830000000 1.0
C      1  0.5214510000000  0.4813800000000  0.4680670000000 1.0
C      1  0.5356830000000  0.4912550000000  0.4429890000000 1.0
C      1  0.4305250000000  0.5302970000000  0.4728490000000 1.0
C      1  0.4926750000000  0.5254090000000  0.4806870000000 1.0
C      1  0.5127480000000  0.4721490000000  0.5309350000000 1.0
C      1  0.4666810000000  0.5634900000000  0.4809010000000 1.0
C      1  0.4802050000000  0.4670060000000  0.4821420000000 1.0
C      1  0.4848120000000  0.4855160000000  0.5668520000000 1.0
C      1  0.5472270000000  0.5121920000000  0.4580090000000 1.0
C      1  0.5218700000000  0.4434580000000  0.5595710000000 1.0
C      1  0.4383640000000  0.4713090000000  0.4859190000000 1.0
C      1  0.4892120000000  0.4752910000000  0.4314250000000 1.0
C      1  0.5741000000000  0.5055420000000  0.5241070000000 1.0
C      1  0.4454500000000  0.5420430000000  0.5520240000000 1.0
C      1  0.4616860000000  0.4783130000000  0.4374480000000 1.0
C      1  0.4669560000000  0.4280120000000  0.5056120000000 1.0
C      1  0.4451330000000  0.4947310000000  0.5019310000000 1.0
C      1  0.5182800000000  0.5200720000000  0.5712350000000 1.0
C      1  0.4465940000000  0.5524790000000  0.4622430000000 1.0
C      1  0.4603280000000  0.5334250000000  0.4448030000000 1.0
END
