TITL C-4164241-3639-683 0.928711708879752 125000 -7755.77030223559 0 0 52 (C1) n - 1
REM
REM in /home/nfs/bkarasulu/CARBON/AIRSS/Generating-Clusters/ReaxFF-fromJPCA2015/Units_Real/with-SteepDescent/Only-C1/SD-CG/Try1-3A/FIRE-CG
REM
REM
REM
REM
REM
REM ./C.cell (11c1c37f851c82e70ff6c80c92926a4b)
REM
REM compiler GCC version 9.2.1 20190827 (Red Hat 9.2.1-1)
REM options -cpp -mtune=generic -march=x86-64 -g -O0 -fpre-include=/usr/include/finclude/math-vector-fortran.h
REM seed -1866767270 509652043 -1243316484 -215558029 1186152254 1128065248 350332920 353127838 -368726253 -1337154937 -733472990 871637699 -582034712 -777687821 527737755 -1489587180 1053518264 1897415363 -66520551 -780811135 234624849 -945088954 -481641107 520938763 -1277363648 768765185 -217433537 -1239635114 -1568147536 1123583664 -17278447 -30407488 -866150592
REM
CELL 1.54180   50.00000   50.00000   50.00000   90.00000   90.00000   90.00000
LATT -1
SFAC C  
C      1  0.4485480000000  0.4581110000000  0.5144060000000 1.0
C      1  0.5116360000000  0.4826800000000  0.4294320000000 1.0
C      1  0.5178270000000  0.5204310000000  0.4609100000000 1.0
C      1  0.5531840000000  0.5168050000000  0.5492480000000 1.0
C      1  0.4892350000000  0.5891640000000  0.5190910000000 1.0
C      1  0.4734950000000  0.4870990000000  0.4630080000000 1.0
C      1  0.4924090000000  0.4935330000000  0.5557630000000 1.0
C      1  0.4704490000000  0.5628770000000  0.5215920000000 1.0
C      1  0.5152460000000  0.4856730000000  0.4998340000000 1.0
C      1  0.4266060000000  0.5070040000000  0.5215410000000 1.0
C      1  0.4842600000000  0.5456390000000  0.5025420000000 1.0
C      1  0.4471070000000  0.4527980000000  0.4849310000000 1.0
C      1  0.4977980000000  0.5019150000000  0.4836860000000 1.0
C      1  0.5212200000000  0.4506990000000  0.4675740000000 1.0
C      1  0.4448030000000  0.4970600000000  0.4677420000000 1.0
C      1  0.5456590000000  0.5414410000000  0.5042640000000 1.0
C      1  0.5600150000000  0.5203030000000  0.4899640000000 1.0
C      1  0.5377640000000  0.4780460000000  0.5388880000000 1.0
C      1  0.5686600000000  0.4961480000000  0.5051130000000 1.0
C      1  0.4934320000000  0.4385410000000  0.5082800000000 1.0
C      1  0.5364800000000  0.4608920000000  0.4914930000000 1.0
C      1  0.5475850000000  0.5119160000000  0.4651180000000 1.0
C      1  0.4293990000000  0.4766870000000  0.4816710000000 1.0
C      1  0.5359150000000  0.5270780000000  0.5274540000000 1.0
C      1  0.4610230000000  0.5406860000000  0.4674330000000 1.0
C      1  0.5527730000000  0.4844640000000  0.4581390000000 1.0
C      1  0.5185050000000  0.4336530000000  0.5242380000000 1.0
C      1  0.5168140000000  0.5051870000000  0.5667370000000 1.0
C      1  0.5304490000000  0.4680730000000  0.4467670000000 1.0
C      1  0.5369370000000  0.5141770000000  0.5731350000000 1.0
C      1  0.4887150000000  0.5179320000000  0.5074800000000 1.0
C      1  0.4844890000000  0.5545990000000  0.4722910000000 1.0
C      1  0.4923100000000  0.4656570000000  0.5472150000000 1.0
C      1  0.5112310000000  0.5782390000000  0.5050720000000 1.0
C      1  0.5236980000000  0.4995590000000  0.5234860000000 1.0
C      1  0.4756300000000  0.4535980000000  0.5254340000000 1.0
C      1  0.4297150000000  0.5311190000000  0.5038060000000 1.0
C      1  0.4503140000000  0.5136050000000  0.5348140000000 1.0
C      1  0.4949510000000  0.4432550000000  0.4789470000000 1.0
C      1  0.4392490000000  0.5248390000000  0.4741320000000 1.0
C      1  0.5065630000000  0.5097000000000  0.4361020000000 1.0
C      1  0.5430850000000  0.4347100000000  0.5095160000000 1.0
C      1  0.5280290000000  0.5609220000000  0.4896400000000 1.0
C      1  0.4714840000000  0.4572150000000  0.4698460000000 1.0
C      1  0.5631330000000  0.4919070000000  0.5341450000000 1.0
C      1  0.4860690000000  0.4925130000000  0.4370890000000 1.0
C      1  0.5621810000000  0.4764200000000  0.4846340000000 1.0
C      1  0.4780410000000  0.5105970000000  0.5356280000000 1.0
C      1  0.4277640000000  0.4789510000000  0.5112970000000 1.0
C      1  0.5128180000000  0.5491660000000  0.4678410000000 1.0
C      1  0.5195350000000  0.4559100000000  0.5446300000000 1.0
C      1  0.4457640000000  0.5508070000000  0.5169600000000 1.0
END
