TITL C-4164239-2837-647 -2.92913270800247 125000 -8433.89832488374 0 0 57 (C1) n - 1
REM
REM in /home/nfs/bkarasulu/CARBON/AIRSS/Generating-Clusters/ReaxFF-fromJPCA2015/Units_Real/with-SteepDescent/Only-C1/SD-CG/Try1-3A/FIRE-CG
REM
REM
REM
REM
REM
REM ./C.cell (11c1c37f851c82e70ff6c80c92926a4b)
REM
REM compiler GCC version 9.2.1 20190827 (Red Hat 9.2.1-1)
REM options -cpp -mtune=generic -march=x86-64 -g -O0 -fpre-include=/usr/include/finclude/math-vector-fortran.h
REM seed 339663514 694643962 -846324940 -1739143687 -435153265 -774692384 -1236611706 -2105946243 1888386004 -367751845 1548368091 -1181489134 273276484 -982679878 2012741279 488661192 -318362994 -696913181 -25001638 1566219850 1245441331 1642876419 -2084083555 -1054048856 743765883 -1615022374 849207907 464362092 1950944598 -486952698 -1939697142 613235888 594453837
REM
CELL 1.54180   50.00000   50.00000   50.00000   90.00000   90.00000   90.00000
LATT -1
SFAC C  
C      1  0.4733030000000  0.4424430000000  0.5164190000000 1.0
C      1  0.5090640000000  0.4263450000000  0.4966750000000 1.0
C      1  0.5747710000000  0.4955250000000  0.5138060000000 1.0
C      1  0.5823210000000  0.4737130000000  0.5344800000000 1.0
C      1  0.4824810000000  0.4983210000000  0.5778960000000 1.0
C      1  0.5769690000000  0.5112290000000  0.4572270000000 1.0
C      1  0.5527150000000  0.4781990000000  0.5057210000000 1.0
C      1  0.4665620000000  0.5528420000000  0.5419240000000 1.0
C      1  0.5295720000000  0.4197240000000  0.5051510000000 1.0
C      1  0.4821420000000  0.5223610000000  0.4403320000000 1.0
C      1  0.4691960000000  0.4749170000000  0.5705130000000 1.0
C      1  0.5695180000000  0.4613150000000  0.4461510000000 1.0
C      1  0.5123800000000  0.5047600000000  0.4697830000000 1.0
C      1  0.4347030000000  0.4690830000000  0.5169210000000 1.0
C      1  0.4545320000000  0.4537920000000  0.5597470000000 1.0
C      1  0.5286880000000  0.4825430000000  0.5204740000000 1.0
C      1  0.4905510000000  0.4620320000000  0.5299070000000 1.0
C      1  0.4864050000000  0.4593200000000  0.4682550000000 1.0
C      1  0.4386520000000  0.5139000000000  0.5174010000000 1.0
C      1  0.5363120000000  0.5241880000000  0.4363380000000 1.0
C      1  0.5192140000000  0.4588180000000  0.5312790000000 1.0
C      1  0.4210880000000  0.4919830000000  0.4741830000000 1.0
C      1  0.4791070000000  0.5431150000000  0.5637750000000 1.0
C      1  0.5090900000000  0.5025900000000  0.5184190000000 1.0
C      1  0.5097140000000  0.5272780000000  0.4489330000000 1.0
C      1  0.5106240000000  0.4822760000000  0.4334400000000 1.0
C      1  0.5240560000000  0.5493330000000  0.5359770000000 1.0
C      1  0.5685440000000  0.5245090000000  0.5087880000000 1.0
C      1  0.4840010000000  0.4384020000000  0.4888820000000 1.0
C      1  0.5137990000000  0.5183800000000  0.4939530000000 1.0
C      1  0.5641220000000  0.4547820000000  0.5192630000000 1.0
C      1  0.4645040000000  0.5164580000000  0.5633860000000 1.0
C      1  0.5098920000000  0.4755260000000  0.4624940000000 1.0
C      1  0.4428970000000  0.5373840000000  0.4734610000000 1.0
C      1  0.4820340000000  0.5705580000000  0.5037480000000 1.0
C      1  0.4568220000000  0.5606700000000  0.5172960000000 1.0
C      1  0.5389050000000  0.4377140000000  0.5247770000000 1.0
C      1  0.4417390000000  0.5390400000000  0.5031510000000 1.0
C      1  0.5625070000000  0.4863260000000  0.4431990000000 1.0
C      1  0.5093380000000  0.5633360000000  0.5139660000000 1.0
C      1  0.4704430000000  0.5395950000000  0.4613910000000 1.0
C      1  0.5104960000000  0.5109760000000  0.5719440000000 1.0
C      1  0.4212930000000  0.5200590000000  0.4621550000000 1.0
C      1  0.4436350000000  0.4830040000000  0.4625500000000 1.0
C      1  0.4837280000000  0.4905840000000  0.5259940000000 1.0
C      1  0.4602190000000  0.5054640000000  0.5358660000000 1.0
C      1  0.5135400000000  0.5481310000000  0.4893840000000 1.0
C      1  0.5600010000000  0.5333020000000  0.4523930000000 1.0
C      1  0.4238340000000  0.4908160000000  0.5053150000000 1.0
C      1  0.5474230000000  0.5373630000000  0.5241630000000 1.0
C      1  0.5726140000000  0.5291400000000  0.4792490000000 1.0
C      1  0.4472380000000  0.4484610000000  0.5292730000000 1.0
C      1  0.5361790000000  0.4962970000000  0.4297620000000 1.0
C      1  0.5092190000000  0.5372200000000  0.5601130000000 1.0
C      1  0.4875830000000  0.5573160000000  0.4779010000000 1.0
C      1  0.4666820000000  0.4738260000000  0.4506590000000 1.0
C      1  0.4830350000000  0.4934180000000  0.4343960000000 1.0
END
