TITL C-4164237-1827-100 219.145313300433 125000 -25683.2167673898 0 0 175 (C1) n - 1
REM
REM in /home/nfs/bkarasulu/CARBON/AIRSS/Generating-Clusters/ReaxFF-fromJPCA2015/Units_Real/with-SteepDescent/Only-C1/SD-CG/Try1-3A/FIRE-CG
REM
REM
REM
REM
REM
REM ./C.cell (11c1c37f851c82e70ff6c80c92926a4b)
REM
REM compiler GCC version 9.2.1 20190827 (Red Hat 9.2.1-1)
REM options -cpp -mtune=generic -march=x86-64 -g -O0 -fpre-include=/usr/include/finclude/math-vector-fortran.h
REM seed -928753226 1472035057 1122524182 2087180322 382515145 -1394273639 -1332290712 -35149512 -1746504905 -588170746 -1646218918 1949660886 1093805843 -505363290 -1160015768 714933320 530348737 1386442585 -1496078154 -668102171 -251201580 1972560802 -1683683771 329151974 570769594 1644868687 1704485373 1967345316 -695307242 -1523701864 -424450189 167979773 895972414
REM
CELL 1.54180   50.00000   50.00000   50.00000   90.00000   90.00000   90.00000
LATT -1
SFAC C  
C      1  0.4616300000000  0.4730530000000  0.4596860000000 1.0
C      1  0.4780770000000  0.4579000000000  0.6102880000000 1.0
C      1  0.5139420000000  0.4705260000000  0.5097090000000 1.0
C      1  0.4630400000000  0.5124440000000  0.4795220000000 1.0
C      1  0.5541440000000  0.5380700000000  0.4256620000000 1.0
C      1  0.5381690000000  0.5617080000000  0.4320970000000 1.0
C      1  0.4850140000000  0.4699990000000  0.5510690000000 1.0
C      1  0.5260900000000  0.4961300000000  0.5091990000000 1.0
C      1  0.4606150000000  0.5498300000000  0.4136590000000 1.0
C      1  0.5456480000000  0.4401040000000  0.5745580000000 1.0
C      1  0.4714410000000  0.4430490000000  0.5043640000000 1.0
C      1  0.4751650000000  0.5824110000000  0.4772230000000 1.0
C      1  0.6007800000000  0.4772950000000  0.4851320000000 1.0
C      1  0.5142210000000  0.4654530000000  0.4660500000000 1.0
C      1  0.4818180000000  0.3996030000000  0.4802910000000 1.0
C      1  0.6010120000000  0.5138590000000  0.5284410000000 1.0
C      1  0.4966230000000  0.5416190000000  0.6034310000000 1.0
C      1  0.4607030000000  0.4670350000000  0.5507360000000 1.0
C      1  0.5673190000000  0.4195910000000  0.4365040000000 1.0
C      1  0.5479290000000  0.4031870000000  0.5387580000000 1.0
C      1  0.5174930000000  0.4520240000000  0.5315080000000 1.0
C      1  0.4278610000000  0.5696220000000  0.4743350000000 1.0
C      1  0.4799870000000  0.4994020000000  0.5171040000000 1.0
C      1  0.5009610000000  0.6040510000000  0.5384510000000 1.0
C      1  0.4317740000000  0.4748950000000  0.5809080000000 1.0
C      1  0.5172420000000  0.5801670000000  0.5789140000000 1.0
C      1  0.4071780000000  0.5031690000000  0.4593390000000 1.0
C      1  0.5047560000000  0.4499680000000  0.5989360000000 1.0
C      1  0.5244890000000  0.3908810000000  0.5296130000000 1.0
C      1  0.4634370000000  0.5173430000000  0.5958790000000 1.0
C      1  0.4996930000000  0.4447660000000  0.4519680000000 1.0
C      1  0.4721110000000  0.5443170000000  0.5980500000000 1.0
C      1  0.5427770000000  0.5393090000000  0.4941300000000 1.0
C      1  0.5434990000000  0.6126840000000  0.4902790000000 1.0
C      1  0.4021060000000  0.5294270000000  0.4700090000000 1.0
C      1  0.4383360000000  0.5753280000000  0.4468910000000 1.0
C      1  0.5004630000000  0.5600930000000  0.4132190000000 1.0
C      1  0.6008390000000  0.4841440000000  0.4574250000000 1.0
C      1  0.4644110000000  0.4826080000000  0.4332550000000 1.0
C      1  0.5345980000000  0.5116570000000  0.4602990000000 1.0
C      1  0.4434550000000  0.4323720000000  0.4538970000000 1.0
C      1  0.4339780000000  0.5563590000000  0.4246190000000 1.0
C      1  0.5578410000000  0.4663680000000  0.5805420000000 1.0
C      1  0.5928120000000  0.5233840000000  0.4285470000000 1.0
C      1  0.5051670000000  0.5331430000000  0.4060270000000 1.0
C      1  0.4424060000000  0.5824040000000  0.5600470000000 1.0
C      1  0.4958150000000  0.4280720000000  0.5189890000000 1.0
C      1  0.4976380000000  0.5336310000000  0.4857770000000 1.0
C      1  0.5401220000000  0.4854530000000  0.5944020000000 1.0
C      1  0.5001430000000  0.4056540000000  0.5394410000000 1.0
C      1  0.4283000000000  0.5579210000000  0.5721400000000 1.0
C      1  0.4405170000000  0.5094450000000  0.4974160000000 1.0
C      1  0.5609660000000  0.4386360000000  0.4176740000000 1.0
C      1  0.5354090000000  0.5488710000000  0.6000790000000 1.0
C      1  0.4549980000000  0.4396190000000  0.4279840000000 1.0
C      1  0.5970080000000  0.4558830000000  0.5288660000000 1.0
C      1  0.4202360000000  0.4449520000000  0.4662180000000 1.0
C      1  0.5789130000000  0.4737070000000  0.4401890000000 1.0
C      1  0.5513690000000  0.4617000000000  0.4046200000000 1.0
C      1  0.3946170000000  0.5386070000000  0.4966800000000 1.0
C      1  0.5519130000000  0.5888630000000  0.4743490000000 1.0
C      1  0.4143760000000  0.4816420000000  0.5430560000000 1.0
C      1  0.3966660000000  0.5214620000000  0.5202970000000 1.0
C      1  0.4659550000000  0.5549640000000  0.5279570000000 1.0
C      1  0.4567860000000  0.4442820000000  0.5709930000000 1.0
C      1  0.4584590000000  0.4781870000000  0.3930050000000 1.0
C      1  0.5489440000000  0.4347880000000  0.4560960000000 1.0
C      1  0.5434750000000  0.4420910000000  0.5285250000000 1.0
C      1  0.4348910000000  0.4690670000000  0.4712730000000 1.0
C      1  0.4688170000000  0.5855530000000  0.5727870000000 1.0
C      1  0.5866220000000  0.5588200000000  0.5104800000000 1.0
C      1  0.4804520000000  0.5563680000000  0.4903470000000 1.0
C      1  0.5684170000000  0.5141720000000  0.4147050000000 1.0
C      1  0.4535230000000  0.3880490000000  0.5296210000000 1.0
C      1  0.4114190000000  0.5379920000000  0.5388440000000 1.0
C      1  0.5685980000000  0.5053870000000  0.4944510000000 1.0
C      1  0.4953590000000  0.5219280000000  0.5531020000000 1.0
C      1  0.4272600000000  0.4328270000000  0.5418510000000 1.0
C      1  0.5178150000000  0.4735820000000  0.6090750000000 1.0
C      1  0.5674940000000  0.4850120000000  0.4158010000000 1.0
C      1  0.4486800000000  0.5269000000000  0.3986880000000 1.0
C      1  0.4691510000000  0.5563460000000  0.5745650000000 1.0
C      1  0.5926590000000  0.5535100000000  0.4826920000000 1.0
C      1  0.4531550000000  0.5070930000000  0.5226060000000 1.0
C      1  0.4219840000000  0.4925990000000  0.4824180000000 1.0
C      1  0.5561870000000  0.5275480000000  0.5656300000000 1.0
C      1  0.5549140000000  0.4641460000000  0.4534060000000 1.0
C      1  0.4987960000000  0.4140970000000  0.5668550000000 1.0
C      1  0.5538030000000  0.5216640000000  0.4775640000000 1.0
C      1  0.5726140000000  0.4712720000000  0.5253380000000 1.0
C      1  0.5779820000000  0.4807440000000  0.5651310000000 1.0
C      1  0.5093460000000  0.4729630000000  0.5514050000000 1.0
C      1  0.4670420000000  0.5830820000000  0.4492770000000 1.0
C      1  0.3937140000000  0.4691860000000  0.5024930000000 1.0
C      1  0.5518320000000  0.4427190000000  0.5002380000000 1.0
C      1  0.5243550000000  0.5781630000000  0.4782280000000 1.0
C      1  0.4749980000000  0.5403340000000  0.5505020000000 1.0
C      1  0.4559990000000  0.3888030000000  0.5007510000000 1.0
C      1  0.4290360000000  0.5414630000000  0.4681440000000 1.0
C      1  0.5624730000000  0.5783190000000  0.5489460000000 1.0
C      1  0.5516610000000  0.6035930000000  0.5169570000000 1.0
C      1  0.5864140000000  0.5373440000000  0.5283060000000 1.0
C      1  0.4209020000000  0.4274690000000  0.5138250000000 1.0
C      1  0.5935020000000  0.4967300000000  0.5493460000000 1.0
C      1  0.4915710000000  0.4817010000000  0.6234000000000 1.0
C      1  0.4943310000000  0.5214760000000  0.4335780000000 1.0
C      1  0.5296440000000  0.4605110000000  0.4900160000000 1.0
C      1  0.4699240000000  0.5356390000000  0.4374300000000 1.0
C      1  0.4922400000000  0.5753430000000  0.4355570000000 1.0
C      1  0.6047080000000  0.5279450000000  0.4774730000000 1.0
C      1  0.4473010000000  0.4116840000000  0.5484890000000 1.0
C      1  0.5138190000000  0.5606240000000  0.6005150000000 1.0
C      1  0.5403690000000  0.5463260000000  0.5163720000000 1.0
C      1  0.4428430000000  0.4590360000000  0.4075070000000 1.0
C      1  0.5542640000000  0.4993970000000  0.5187210000000 1.0
C      1  0.5572920000000  0.5521380000000  0.5821470000000 1.0
C      1  0.4520310000000  0.4584990000000  0.5959430000000 1.0
C      1  0.5810100000000  0.5645800000000  0.4576450000000 1.0
C      1  0.5029200000000  0.5141800000000  0.5068740000000 1.0
C      1  0.4200650000000  0.4577010000000  0.5578210000000 1.0
C      1  0.5076780000000  0.4875510000000  0.4038160000000 1.0
C      1  0.5214650000000  0.4618640000000  0.4001350000000 1.0
C      1  0.4969260000000  0.5108400000000  0.3890990000000 1.0
C      1  0.4378770000000  0.5047270000000  0.5759210000000 1.0
C      1  0.4206910000000  0.5627140000000  0.5246540000000 1.0
C      1  0.4868530000000  0.5672100000000  0.5163640000000 1.0
C      1  0.5304800000000  0.3978160000000  0.5007840000000 1.0
C      1  0.4906240000000  0.4937210000000  0.4265130000000 1.0
C      1  0.5264390000000  0.5938650000000  0.5280280000000 1.0
C      1  0.5218380000000  0.5694440000000  0.5116850000000 1.0
C      1  0.5153640000000  0.6065150000000  0.4829070000000 1.0
C      1  0.5603170000000  0.5287830000000  0.5359260000000 1.0
C      1  0.4597410000000  0.4249140000000  0.4797470000000 1.0
C      1  0.5570530000000  0.5774450000000  0.4487600000000 1.0
C      1  0.4836840000000  0.4446570000000  0.4273840000000 1.0
C      1  0.4070690000000  0.4441960000000  0.4936700000000 1.0
C      1  0.5533460000000  0.4138560000000  0.4912620000000 1.0
C      1  0.5151540000000  0.5040450000000  0.5556620000000 1.0
C      1  0.5855040000000  0.4570970000000  0.4991420000000 1.0
C      1  0.5129070000000  0.4138220000000  0.4190940000000 1.0
C      1  0.4996300000000  0.3959920000000  0.4557430000000 1.0
C      1  0.5178250000000  0.4214360000000  0.4481090000000 1.0
C      1  0.4174280000000  0.5039140000000  0.4315100000000 1.0
C      1  0.4797870000000  0.5971560000000  0.5195890000000 1.0
C      1  0.4814340000000  0.4737950000000  0.5018740000000 1.0
C      1  0.4462310000000  0.5758690000000  0.5313780000000 1.0
C      1  0.5116490000000  0.5301020000000  0.4600000000000 1.0
C      1  0.5730560000000  0.5820080000000  0.5235740000000 1.0
C      1  0.4693570000000  0.4179000000000  0.5673910000000 1.0
C      1  0.4945480000000  0.3906030000000  0.4269460000000 1.0
C      1  0.5043910000000  0.4107750000000  0.4955040000000 1.0
C      1  0.4430050000000  0.4928950000000  0.5457720000000 1.0
C      1  0.5793470000000  0.5467500000000  0.4352350000000 1.0
C      1  0.3959400000000  0.4912900000000  0.5222010000000 1.0
C      1  0.4958870000000  0.5944080000000  0.5657780000000 1.0
C      1  0.5571720000000  0.4273010000000  0.5502930000000 1.0
C      1  0.5371710000000  0.5084400000000  0.5760160000000 1.0
C      1  0.5666180000000  0.4148540000000  0.4658850000000 1.0
C      1  0.4378580000000  0.4107780000000  0.4959790000000 1.0
C      1  0.4777250000000  0.4881730000000  0.4767670000000 1.0
C      1  0.4773420000000  0.5002660000000  0.6095110000000 1.0
C      1  0.4221530000000  0.5301250000000  0.5664690000000 1.0
C      1  0.4346620000000  0.4807880000000  0.4262410000000 1.0
C      1  0.4874340000000  0.6046540000000  0.4924450000000 1.0
C      1  0.6053470000000  0.5130490000000  0.4531130000000 1.0
C      1  0.5983500000000  0.5060570000000  0.4983730000000 1.0
C      1  0.4669970000000  0.5052010000000  0.3889050000000 1.0
C      1  0.5043520000000  0.4391350000000  0.4065110000000 1.0
C      1  0.5182580000000  0.4323180000000  0.5803060000000 1.0
C      1  0.4101850000000  0.5637270000000  0.4976360000000 1.0
C      1  0.5155110000000  0.5622880000000  0.4518510000000 1.0
C      1  0.5469630000000  0.5788300000000  0.5722350000000 1.0
C      1  0.5340190000000  0.4833080000000  0.4541960000000 1.0
C      1  0.4543910000000  0.5296440000000  0.4591490000000 1.0
C      1  0.4250850000000  0.5282770000000  0.4165010000000 1.0
END
