TITL C-4164246-3563-367 20.2745792868827 125000 -13707.15873007 0 0 94 (C1) n - 1
REM
REM in /home/nfs/bkarasulu/CARBON/AIRSS/Generating-Clusters/ReaxFF-fromJPCA2015/Units_Real/with-SteepDescent/Only-C1/SD-CG/Try1-3A/FIRE-CG
REM
REM
REM
REM
REM
REM ./C.cell (11c1c37f851c82e70ff6c80c92926a4b)
REM
REM compiler GCC version 9.2.1 20190827 (Red Hat 9.2.1-1)
REM options -cpp -mtune=generic -march=x86-64 -g -O0 -fpre-include=/usr/include/finclude/math-vector-fortran.h
REM seed -167178158 -950368815 49323030 434449590 413322100 -1116220903 107813006 119602292 -4611163 286805857 -1673752233 1839542303 301395440 -682077985 -1874193877 -1084421557 417937417 -829199767 1391054154 1244643835 1643138420 1720135807 513046467 -998364888 722644026 652617949 -1919561150 -502988119 -834771245 -1573900122 793559625 -903346641 864795720
REM
CELL 1.54180   50.00000   50.00000   50.00000   90.00000   90.00000   90.00000
LATT -1
SFAC C  
C      1  0.5192810000000  0.4355470000000  0.4906420000000 1.0
C      1  0.4741530000000  0.5409550000000  0.4295100000000 1.0
C      1  0.5611180000000  0.5447840000000  0.4972900000000 1.0
C      1  0.4463890000000  0.4383390000000  0.4992470000000 1.0
C      1  0.4665830000000  0.5253190000000  0.4774460000000 1.0
C      1  0.5335250000000  0.5752280000000  0.4745310000000 1.0
C      1  0.4629580000000  0.5756060000000  0.5104320000000 1.0
C      1  0.5326150000000  0.4808280000000  0.5119230000000 1.0
C      1  0.4827370000000  0.5821000000000  0.4877280000000 1.0
C      1  0.4342650000000  0.5212240000000  0.5466010000000 1.0
C      1  0.5146440000000  0.5468200000000  0.4376630000000 1.0
C      1  0.4950350000000  0.5211790000000  0.4814440000000 1.0
C      1  0.5103860000000  0.5053510000000  0.4608800000000 1.0
C      1  0.5509950000000  0.5241490000000  0.5561010000000 1.0
C      1  0.4736270000000  0.5727660000000  0.4625130000000 1.0
C      1  0.4585900000000  0.5239420000000  0.5640980000000 1.0
C      1  0.5769890000000  0.5325750000000  0.5610970000000 1.0
C      1  0.4983510000000  0.4505090000000  0.4355650000000 1.0
C      1  0.5458200000000  0.4799430000000  0.4389420000000 1.0
C      1  0.5694200000000  0.4922580000000  0.4414960000000 1.0
C      1  0.4681120000000  0.5167010000000  0.5250590000000 1.0
C      1  0.5054030000000  0.5189010000000  0.4348270000000 1.0
C      1  0.4200060000000  0.4972350000000  0.5428940000000 1.0
C      1  0.4489740000000  0.4721480000000  0.4502140000000 1.0
C      1  0.4453120000000  0.5550590000000  0.5013220000000 1.0
C      1  0.4473050000000  0.4575810000000  0.5764590000000 1.0
C      1  0.4438560000000  0.5299670000000  0.5161970000000 1.0
C      1  0.5761190000000  0.4614480000000  0.5324530000000 1.0
C      1  0.5884100000000  0.5180580000000  0.5370970000000 1.0
C      1  0.4980800000000  0.4566200000000  0.5704450000000 1.0
C      1  0.5777060000000  0.5580220000000  0.5446200000000 1.0
C      1  0.5303940000000  0.4128370000000  0.4485420000000 1.0
C      1  0.4896130000000  0.4257910000000  0.5295500000000 1.0
C      1  0.5368740000000  0.5332170000000  0.5073500000000 1.0
C      1  0.4749390000000  0.5019180000000  0.5746070000000 1.0
C      1  0.5772430000000  0.4637240000000  0.5006040000000 1.0
C      1  0.4923470000000  0.4746740000000  0.4246810000000 1.0
C      1  0.4250720000000  0.4493690000000  0.5610190000000 1.0
C      1  0.5009810000000  0.5634160000000  0.5646360000000 1.0
C      1  0.4531770000000  0.5515910000000  0.4703670000000 1.0
C      1  0.5751540000000  0.4915270000000  0.5320900000000 1.0
C      1  0.5352100000000  0.5238850000000  0.5345750000000 1.0
C      1  0.5547040000000  0.5768090000000  0.5474920000000 1.0
C      1  0.5618250000000  0.4894490000000  0.5064320000000 1.0
C      1  0.4248000000000  0.4569630000000  0.5041140000000 1.0
C      1  0.5156550000000  0.4197140000000  0.5150320000000 1.0
C      1  0.4715080000000  0.4910120000000  0.5338460000000 1.0
C      1  0.4123000000000  0.4731510000000  0.4832550000000 1.0
C      1  0.5066740000000  0.5617190000000  0.5891040000000 1.0
C      1  0.5473460000000  0.4326840000000  0.4310940000000 1.0
C      1  0.4740370000000  0.4725010000000  0.5765910000000 1.0
C      1  0.4848800000000  0.4468340000000  0.4661030000000 1.0
C      1  0.4455710000000  0.5068530000000  0.4887120000000 1.0
C      1  0.4262110000000  0.4680530000000  0.5337980000000 1.0
C      1  0.5302040000000  0.4276660000000  0.5398080000000 1.0
C      1  0.5339140000000  0.4639300000000  0.4844640000000 1.0
C      1  0.5650070000000  0.5127750000000  0.4521870000000 1.0
C      1  0.5047060000000  0.4327930000000  0.5537270000000 1.0
C      1  0.5179540000000  0.4766890000000  0.5652150000000 1.0
C      1  0.4143650000000  0.5008820000000  0.4512340000000 1.0
C      1  0.4724050000000  0.5496240000000  0.5573710000000 1.0
C      1  0.4656660000000  0.4409830000000  0.5218650000000 1.0
C      1  0.5591500000000  0.5371170000000  0.4649530000000 1.0
C      1  0.4480330000000  0.5392390000000  0.4400280000000 1.0
C      1  0.4610740000000  0.4457360000000  0.4507160000000 1.0
C      1  0.5360840000000  0.4721900000000  0.5428030000000 1.0
C      1  0.5114660000000  0.5407000000000  0.4961440000000 1.0
C      1  0.5536790000000  0.4567370000000  0.4332180000000 1.0
C      1  0.4574080000000  0.4669320000000  0.5323890000000 1.0
C      1  0.4835180000000  0.5009370000000  0.4200940000000 1.0
C      1  0.5393560000000  0.5838970000000  0.5228870000000 1.0
C      1  0.5091340000000  0.5700930000000  0.4908370000000 1.0
C      1  0.5121920000000  0.5164670000000  0.5461970000000 1.0
C      1  0.4955840000000  0.5069930000000  0.5225420000000 1.0
C      1  0.4614990000000  0.4835920000000  0.4781050000000 1.0
C      1  0.4561080000000  0.4944300000000  0.4284180000000 1.0
C      1  0.4606340000000  0.4321140000000  0.4744370000000 1.0
C      1  0.5234550000000  0.4163920000000  0.4743820000000 1.0
C      1  0.5263140000000  0.5722770000000  0.5462170000000 1.0
C      1  0.4183170000000  0.4720870000000  0.4540730000000 1.0
C      1  0.5628060000000  0.4493560000000  0.4808340000000 1.0
C      1  0.5268640000000  0.4826980000000  0.4625240000000 1.0
C      1  0.4356670000000  0.5138750000000  0.4339720000000 1.0
C      1  0.4894880000000  0.5628770000000  0.4393750000000 1.0
C      1  0.4161420000000  0.5027870000000  0.4803450000000 1.0
C      1  0.5039480000000  0.5024680000000  0.5705740000000 1.0
C      1  0.5045310000000  0.4862230000000  0.5035140000000 1.0
C      1  0.5210590000000  0.4319500000000  0.4273370000000 1.0
C      1  0.5383580000000  0.5541000000000  0.4543970000000 1.0
C      1  0.5519410000000  0.4482120000000  0.5434360000000 1.0
C      1  0.5506750000000  0.5737780000000  0.4976020000000 1.0
C      1  0.5822810000000  0.5419170000000  0.5209260000000 1.0
C      1  0.4693410000000  0.5636830000000  0.5351400000000 1.0
C      1  0.4863920000000  0.4739520000000  0.4853810000000 1.0
END
