TITL C-4164239-2837-663 -0.271804344862497 125000 -10294.0507931534 0 0 69 (C1) n - 1
REM
REM in /home/nfs/bkarasulu/CARBON/AIRSS/Generating-Clusters/ReaxFF-fromJPCA2015/Units_Real/with-SteepDescent/Only-C1/SD-CG/Try1-3A/FIRE-CG
REM
REM
REM
REM
REM
REM ./C.cell (11c1c37f851c82e70ff6c80c92926a4b)
REM
REM compiler GCC version 9.2.1 20190827 (Red Hat 9.2.1-1)
REM options -cpp -mtune=generic -march=x86-64 -g -O0 -fpre-include=/usr/include/finclude/math-vector-fortran.h
REM seed 1656803048 -2079680013 -1434417981 -1028036663 88818913 -493985391 -68707885 -107716734 -1432674087 -2144329507 -2085589385 -524065485 -1695934936 2143092362 -1473046857 -1085003983 193540624 530227726 1536661444 279308078 -987018712 1281193865 -1752764143 1096788472 1276173195 1609544258 -220305776 1435566130 915265291 1459747746 1586525594 560504238 1850083574
REM
CELL 1.54180   50.00000   50.00000   50.00000   90.00000   90.00000   90.00000
LATT -1
SFAC C  
C      1  0.5252750000000  0.5533690000000  0.4798060000000 1.0
C      1  0.4474800000000  0.5434090000000  0.5126020000000 1.0
C      1  0.4370400000000  0.5524670000000  0.4864290000000 1.0
C      1  0.5533510000000  0.4513850000000  0.4328910000000 1.0
C      1  0.4745080000000  0.4906740000000  0.4607750000000 1.0
C      1  0.5280590000000  0.4386590000000  0.4416840000000 1.0
C      1  0.4513660000000  0.5150060000000  0.5519330000000 1.0
C      1  0.4899230000000  0.4667250000000  0.5068320000000 1.0
C      1  0.4682140000000  0.5362530000000  0.5627870000000 1.0
C      1  0.4843950000000  0.5312770000000  0.4348510000000 1.0
C      1  0.5072470000000  0.5447020000000  0.4371140000000 1.0
C      1  0.4454210000000  0.4531200000000  0.4841150000000 1.0
C      1  0.5541200000000  0.4944450000000  0.5332880000000 1.0
C      1  0.4884200000000  0.5030960000000  0.4398220000000 1.0
C      1  0.5617050000000  0.5347150000000  0.4617570000000 1.0
C      1  0.4886170000000  0.5240790000000  0.5795040000000 1.0
C      1  0.4591080000000  0.5614980000000  0.4669100000000 1.0
C      1  0.4470710000000  0.4957610000000  0.4610720000000 1.0
C      1  0.4993110000000  0.5578900000000  0.5286050000000 1.0
C      1  0.4692110000000  0.5606660000000  0.5225530000000 1.0
C      1  0.5146690000000  0.4369080000000  0.5340050000000 1.0
C      1  0.5247360000000  0.4565130000000  0.5543190000000 1.0
C      1  0.5692640000000  0.4819540000000  0.4634690000000 1.0
C      1  0.5548930000000  0.5517500000000  0.4856380000000 1.0
C      1  0.5385940000000  0.5007250000000  0.4313700000000 1.0
C      1  0.5475270000000  0.5256480000000  0.5326710000000 1.0
C      1  0.4774390000000  0.5581010000000  0.5475710000000 1.0
C      1  0.4598840000000  0.5411220000000  0.4456530000000 1.0
C      1  0.5453360000000  0.5294800000000  0.4378300000000 1.0
C      1  0.4809860000000  0.5643530000000  0.4827530000000 1.0
C      1  0.4870210000000  0.4878950000000  0.4857660000000 1.0
C      1  0.4930190000000  0.4830740000000  0.5334750000000 1.0
C      1  0.4997530000000  0.5091570000000  0.5265180000000 1.0
C      1  0.4633220000000  0.4417210000000  0.4621170000000 1.0
C      1  0.5403970000000  0.5060980000000  0.4890420000000 1.0
C      1  0.5189670000000  0.5245110000000  0.4853510000000 1.0
C      1  0.5525100000000  0.4392410000000  0.4591430000000 1.0
C      1  0.4952500000000  0.5126140000000  0.4978350000000 1.0
C      1  0.4791440000000  0.4969260000000  0.5857570000000 1.0
C      1  0.5017220000000  0.5667530000000  0.4985840000000 1.0
C      1  0.5126440000000  0.4891870000000  0.4331130000000 1.0
C      1  0.4526970000000  0.4616660000000  0.5603890000000 1.0
C      1  0.5406920000000  0.4607040000000  0.5018910000000 1.0
C      1  0.5182330000000  0.5304380000000  0.5406600000000 1.0
C      1  0.4182170000000  0.5361900000000  0.4700660000000 1.0
C      1  0.4347530000000  0.4803610000000  0.4826320000000 1.0
C      1  0.4876620000000  0.4269150000000  0.5429640000000 1.0
C      1  0.4610680000000  0.4390620000000  0.5422080000000 1.0
C      1  0.5159360000000  0.5228750000000  0.5694310000000 1.0
C      1  0.4879270000000  0.4463570000000  0.4486790000000 1.0
C      1  0.5146410000000  0.4487480000000  0.5077340000000 1.0
C      1  0.5606040000000  0.4585640000000  0.4795430000000 1.0
C      1  0.5416170000000  0.4800190000000  0.5569360000000 1.0
C      1  0.4409870000000  0.4695080000000  0.5225290000000 1.0
C      1  0.4411530000000  0.5180400000000  0.5251010000000 1.0
C      1  0.5380280000000  0.4876190000000  0.5099600000000 1.0
C      1  0.5043890000000  0.4825220000000  0.5854590000000 1.0
C      1  0.4984560000000  0.4695600000000  0.5597850000000 1.0
C      1  0.4386230000000  0.5224540000000  0.4521090000000 1.0
C      1  0.5082160000000  0.4592920000000  0.4363080000000 1.0
C      1  0.4320960000000  0.4930210000000  0.5103420000000 1.0
C      1  0.5590010000000  0.4801700000000  0.4360400000000 1.0
C      1  0.5284790000000  0.4972500000000  0.5765380000000 1.0
C      1  0.5759690000000  0.4762020000000  0.5148810000000 1.0
C      1  0.5277410000000  0.5501870000000  0.4462480000000 1.0
C      1  0.4598790000000  0.4504830000000  0.5109670000000 1.0
C      1  0.5545800000000  0.5398640000000  0.5108490000000 1.0
C      1  0.4558550000000  0.4903280000000  0.5679520000000 1.0
C      1  0.5655830000000  0.5086740000000  0.4744860000000 1.0
END
