TITL C-4164235-1454-109 47.2085581440544 125000 -20743.0333465282 0 0 138 (C1) n - 1
REM
REM in /home/nfs/bkarasulu/CARBON/AIRSS/Generating-Clusters/ReaxFF-fromJPCA2015/Units_Real/with-SteepDescent/Only-C1/SD-CG/Try1-3A/FIRE-CG
REM
REM
REM
REM
REM
REM ./C.cell (11c1c37f851c82e70ff6c80c92926a4b)
REM
REM compiler GCC version 9.2.1 20190827 (Red Hat 9.2.1-1)
REM options -cpp -mtune=generic -march=x86-64 -g -O0 -fpre-include=/usr/include/finclude/math-vector-fortran.h
REM seed -124319816 1486821662 -603174872 -974844451 -83241648 1465330108 1170461965 262720522 -1319555172 -607419714 132912166 131721378 -1422668676 1250614933 -1755234164 -257922317 1452765419 364684487 1809680435 -947075904 601778572 1147118784 -464175980 -1783452818 -1125247172 -846866923 -1300109145 -1062889514 1355076506 -1522278225 -1615209807 -356275066 1416411693
REM
CELL 1.54180   50.00000   50.00000   50.00000   90.00000   90.00000   90.00000
LATT -1
SFAC C  
C      1  0.4662640000000  0.5413120000000  0.5268340000000 1.0
C      1  0.5318130000000  0.4462370000000  0.4851920000000 1.0
C      1  0.4699810000000  0.5563890000000  0.4339280000000 1.0
C      1  0.5220750000000  0.4866470000000  0.5499030000000 1.0
C      1  0.4695300000000  0.4868720000000  0.3996990000000 1.0
C      1  0.5908750000000  0.5144390000000  0.5433280000000 1.0
C      1  0.5566250000000  0.4115530000000  0.4873780000000 1.0
C      1  0.4172750000000  0.5532790000000  0.4946810000000 1.0
C      1  0.4866240000000  0.4164640000000  0.4529590000000 1.0
C      1  0.4164930000000  0.5403170000000  0.4712740000000 1.0
C      1  0.4607420000000  0.4177160000000  0.5273220000000 1.0
C      1  0.5396080000000  0.4898140000000  0.4105620000000 1.0
C      1  0.5271010000000  0.4401080000000  0.4294960000000 1.0
C      1  0.5394640000000  0.5335900000000  0.4185510000000 1.0
C      1  0.4128020000000  0.5169260000000  0.4584950000000 1.0
C      1  0.5510560000000  0.4332270000000  0.5587460000000 1.0
C      1  0.5225790000000  0.5129890000000  0.4978410000000 1.0
C      1  0.5740520000000  0.5648110000000  0.5496960000000 1.0
C      1  0.5703020000000  0.5069070000000  0.4445800000000 1.0
C      1  0.4522680000000  0.5872340000000  0.4762290000000 1.0
C      1  0.5927430000000  0.5462140000000  0.5396640000000 1.0
C      1  0.4102760000000  0.4678490000000  0.4654720000000 1.0
C      1  0.5332550000000  0.5906140000000  0.5315020000000 1.0
C      1  0.5708990000000  0.4596580000000  0.5329260000000 1.0
C      1  0.5204730000000  0.4943990000000  0.6048360000000 1.0
C      1  0.4794940000000  0.5483160000000  0.4829920000000 1.0
C      1  0.4307490000000  0.4719550000000  0.4210440000000 1.0
C      1  0.5051130000000  0.5319080000000  0.5825310000000 1.0
C      1  0.5521880000000  0.5621610000000  0.5062370000000 1.0
C      1  0.4672380000000  0.5654810000000  0.4625080000000 1.0
C      1  0.5367500000000  0.4695320000000  0.4344670000000 1.0
C      1  0.5658910000000  0.5279520000000  0.4665120000000 1.0
C      1  0.4923310000000  0.5799620000000  0.5593790000000 1.0
C      1  0.5075480000000  0.4456690000000  0.5866630000000 1.0
C      1  0.5544160000000  0.5309880000000  0.5803840000000 1.0
C      1  0.4733470000000  0.5889620000000  0.5341250000000 1.0
C      1  0.4779000000000  0.4066350000000  0.5064370000000 1.0
C      1  0.5614360000000  0.4825670000000  0.4797190000000 1.0
C      1  0.4257740000000  0.5163680000000  0.5696860000000 1.0
C      1  0.4404940000000  0.4357380000000  0.5220420000000 1.0
C      1  0.5191330000000  0.5993270000000  0.5070720000000 1.0
C      1  0.4792000000000  0.5170550000000  0.5869950000000 1.0
C      1  0.4543310000000  0.4640540000000  0.4057610000000 1.0
C      1  0.4522110000000  0.4957510000000  0.5278490000000 1.0
C      1  0.4275430000000  0.4564330000000  0.5364460000000 1.0
C      1  0.5380240000000  0.4758230000000  0.5728730000000 1.0
C      1  0.5661110000000  0.4837680000000  0.5743750000000 1.0
C      1  0.5803890000000  0.4609740000000  0.4846000000000 1.0
C      1  0.5345510000000  0.4089390000000  0.4689540000000 1.0
C      1  0.5632170000000  0.4801630000000  0.4512930000000 1.0
C      1  0.4716820000000  0.5985090000000  0.4922810000000 1.0
C      1  0.5000970000000  0.5584750000000  0.5017060000000 1.0
C      1  0.4130700000000  0.4604180000000  0.4934370000000 1.0
C      1  0.5530460000000  0.4102470000000  0.5171230000000 1.0
C      1  0.5185190000000  0.5481380000000  0.4662680000000 1.0
C      1  0.5851910000000  0.5226210000000  0.4935660000000 1.0
C      1  0.4973620000000  0.5524420000000  0.4236920000000 1.0
C      1  0.5581420000000  0.5108160000000  0.4181570000000 1.0
C      1  0.4502270000000  0.5376030000000  0.4238140000000 1.0
C      1  0.4913260000000  0.4354140000000  0.3931630000000 1.0
C      1  0.5872100000000  0.4721980000000  0.5112120000000 1.0
C      1  0.4242220000000  0.5271800000000  0.4325670000000 1.0
C      1  0.5227940000000  0.5437940000000  0.5409210000000 1.0
C      1  0.5001850000000  0.4066920000000  0.5260460000000 1.0
C      1  0.4663020000000  0.5396260000000  0.5709360000000 1.0
C      1  0.4143220000000  0.5215230000000  0.5922450000000 1.0
C      1  0.5360380000000  0.4458730000000  0.5787230000000 1.0
C      1  0.4134800000000  0.4765570000000  0.5178050000000 1.0
C      1  0.4796470000000  0.5262010000000  0.5468780000000 1.0
C      1  0.4724120000000  0.5001820000000  0.4482990000000 1.0
C      1  0.4949270000000  0.4745770000000  0.5500900000000 1.0
C      1  0.5271010000000  0.5449340000000  0.5118070000000 1.0
C      1  0.4440920000000  0.5787340000000  0.5266310000000 1.0
C      1  0.4901770000000  0.6046010000000  0.5113180000000 1.0
C      1  0.4327380000000  0.5530810000000  0.5378160000000 1.0
C      1  0.5601770000000  0.4398430000000  0.4790420000000 1.0
C      1  0.5598090000000  0.5786910000000  0.5289980000000 1.0
C      1  0.5881170000000  0.5010620000000  0.5130060000000 1.0
C      1  0.5256030000000  0.4480140000000  0.5140110000000 1.0
C      1  0.5342730000000  0.5264200000000  0.4732800000000 1.0
C      1  0.5392960000000  0.4718910000000  0.5258640000000 1.0
C      1  0.5028650000000  0.4692410000000  0.6027270000000 1.0
C      1  0.5083220000000  0.5204090000000  0.5508320000000 1.0
C      1  0.4300670000000  0.5012430000000  0.4195850000000 1.0
C      1  0.6083270000000  0.4904630000000  0.5550190000000 1.0
C      1  0.4998130000000  0.5024420000000  0.4448790000000 1.0
C      1  0.4748370000000  0.4913960000000  0.5728800000000 1.0
C      1  0.4403120000000  0.4307150000000  0.4476390000000 1.0
C      1  0.5264050000000  0.4200040000000  0.5242630000000 1.0
C      1  0.5454870000000  0.5582180000000  0.4326150000000 1.0
C      1  0.5181440000000  0.4377650000000  0.4025320000000 1.0
C      1  0.4868450000000  0.4433990000000  0.5638700000000 1.0
C      1  0.5141100000000  0.5763080000000  0.4609830000000 1.0
C      1  0.4901590000000  0.4603400000000  0.4957720000000 1.0
C      1  0.5666220000000  0.4276540000000  0.5366320000000 1.0
C      1  0.5385990000000  0.4867750000000  0.4989300000000 1.0
C      1  0.4230520000000  0.4540760000000  0.4424490000000 1.0
C      1  0.5152900000000  0.4799940000000  0.4528000000000 1.0
C      1  0.4743380000000  0.4704000000000  0.5945100000000 1.0
C      1  0.4958700000000  0.5027610000000  0.5072810000000 1.0
C      1  0.5160460000000  0.4689950000000  0.4793620000000 1.0
C      1  0.4891710000000  0.5594650000000  0.5781510000000 1.0
C      1  0.5920150000000  0.5420670000000  0.5116570000000 1.0
C      1  0.4960560000000  0.4836680000000  0.3910630000000 1.0
C      1  0.4664310000000  0.4260510000000  0.4346070000000 1.0
C      1  0.5871130000000  0.4710000000000  0.5576110000000 1.0
C      1  0.5617150000000  0.5516540000000  0.5673980000000 1.0
C      1  0.4348700000000  0.5439730000000  0.5657800000000 1.0
C      1  0.4351110000000  0.5786930000000  0.4998640000000 1.0
C      1  0.5189490000000  0.5719810000000  0.5502730000000 1.0
C      1  0.5608790000000  0.5561600000000  0.4573540000000 1.0
C      1  0.5095130000000  0.5245680000000  0.4212170000000 1.0
C      1  0.5166870000000  0.4202860000000  0.4490490000000 1.0
C      1  0.4460740000000  0.4919300000000  0.5563100000000 1.0
C      1  0.4657480000000  0.5052830000000  0.5026770000000 1.0
C      1  0.5290540000000  0.5208680000000  0.5970800000000 1.0
C      1  0.5699610000000  0.5111460000000  0.5664050000000 1.0
C      1  0.4152800000000  0.5346590000000  0.5182760000000 1.0
C      1  0.4128490000000  0.5062430000000  0.5185110000000 1.0
C      1  0.4826120000000  0.4193420000000  0.5457210000000 1.0
C      1  0.4454370000000  0.4210020000000  0.4739520000000 1.0
C      1  0.4629090000000  0.5329330000000  0.5006810000000 1.0
C      1  0.4683070000000  0.4390300000000  0.4087620000000 1.0
C      1  0.5184260000000  0.5712580000000  0.4318240000000 1.0
C      1  0.5300440000000  0.5912520000000  0.4809370000000 1.0
C      1  0.4913410000000  0.4776500000000  0.5207200000000 1.0
C      1  0.4599430000000  0.5075370000000  0.4195370000000 1.0
C      1  0.4253920000000  0.4921560000000  0.4698190000000 1.0
C      1  0.4607550000000  0.4511740000000  0.5772480000000 1.0
C      1  0.4396040000000  0.4435750000000  0.4939610000000 1.0
C      1  0.4828360000000  0.5632870000000  0.5238780000000 1.0
C      1  0.5539970000000  0.5740190000000  0.4796370000000 1.0
C      1  0.4388790000000  0.4627060000000  0.5620260000000 1.0
C      1  0.4720870000000  0.4104060000000  0.4776220000000 1.0
C      1  0.5055570000000  0.4572490000000  0.3853370000000 1.0
C      1  0.4642070000000  0.4630070000000  0.4845650000000 1.0
C      1  0.4564160000000  0.4890250000000  0.4721400000000 1.0
C      1  0.5161240000000  0.5026980000000  0.4000530000000 1.0
END
