TITL C-4164232-771-714 29.9155897780675 125000 -24618.8541378021 0 0 166 (C1) n - 1
REM
REM in /home/nfs/bkarasulu/CARBON/AIRSS/Generating-Clusters/ReaxFF-fromJPCA2015/Units_Real/with-SteepDescent/Only-C1/SD-CG/Try1-3A/FIRE-CG
REM
REM
REM
REM
REM
REM ./C.cell (11c1c37f851c82e70ff6c80c92926a4b)
REM
REM compiler GCC version 9.2.1 20190827 (Red Hat 9.2.1-1)
REM options -cpp -mtune=generic -march=x86-64 -g -O0 -fpre-include=/usr/include/finclude/math-vector-fortran.h
REM seed 1149129596 -908924482 -1640174534 -551368654 -1825643940 -147784390 59836860 876002964 -1429204142 -1155449426 -2111854402 1088380168 -1541810932 684335144 -1968118275 -435985338 1449344227 -2011931145 -669241134 -758130221 2068457574 -415824574 611666152 -1563133529 -622841426 -368339984 -426845754 -2097138624 1551231304 -740917147 -675181281 2050293607 -1527128339
REM
CELL 1.54180   50.00000   50.00000   50.00000   90.00000   90.00000   90.00000
LATT -1
SFAC C  
C      1  0.5716340000000  0.5018150000000  0.5126470000000 1.0
C      1  0.4281750000000  0.5509160000000  0.4669380000000 1.0
C      1  0.5372990000000  0.5923990000000  0.5094870000000 1.0
C      1  0.5077530000000  0.3991580000000  0.4671590000000 1.0
C      1  0.4401300000000  0.4793970000000  0.5876310000000 1.0
C      1  0.5892550000000  0.4288470000000  0.5031850000000 1.0
C      1  0.5336280000000  0.4333660000000  0.5022740000000 1.0
C      1  0.4897110000000  0.3860650000000  0.4875600000000 1.0
C      1  0.4898030000000  0.4306470000000  0.5048930000000 1.0
C      1  0.6085220000000  0.5215560000000  0.5156420000000 1.0
C      1  0.3863790000000  0.5718850000000  0.4938410000000 1.0
C      1  0.5763510000000  0.5093770000000  0.5413080000000 1.0
C      1  0.5317290000000  0.4874640000000  0.5350940000000 1.0
C      1  0.5381160000000  0.5180530000000  0.5304190000000 1.0
C      1  0.6096250000000  0.5325900000000  0.4872360000000 1.0
C      1  0.4641040000000  0.4823480000000  0.6046150000000 1.0
C      1  0.5100040000000  0.5107390000000  0.4893910000000 1.0
C      1  0.3981920000000  0.5124380000000  0.4486510000000 1.0
C      1  0.4434290000000  0.5068430000000  0.5450700000000 1.0
C      1  0.5604010000000  0.4472060000000  0.5747120000000 1.0
C      1  0.5196430000000  0.5271490000000  0.5105110000000 1.0
C      1  0.4605790000000  0.5204090000000  0.4828640000000 1.0
C      1  0.5541080000000  0.5727970000000  0.5526370000000 1.0
C      1  0.5155910000000  0.5368640000000  0.3997000000000 1.0
C      1  0.5608650000000  0.4633810000000  0.4745780000000 1.0
C      1  0.4675060000000  0.5996290000000  0.4523460000000 1.0
C      1  0.4820000000000  0.4895150000000  0.5114010000000 1.0
C      1  0.4198240000000  0.4897820000000  0.5100760000000 1.0
C      1  0.4595550000000  0.6075580000000  0.4803080000000 1.0
C      1  0.5027780000000  0.4833130000000  0.5307470000000 1.0
C      1  0.5068040000000  0.4433730000000  0.4340730000000 1.0
C      1  0.5568000000000  0.5207810000000  0.5993670000000 1.0
C      1  0.6035430000000  0.5174320000000  0.4595240000000 1.0
C      1  0.3831550000000  0.5040450000000  0.4735370000000 1.0
C      1  0.5663140000000  0.4789980000000  0.4192290000000 1.0
C      1  0.5660560000000  0.4730160000000  0.5070710000000 1.0
C      1  0.5679500000000  0.4176120000000  0.4859950000000 1.0
C      1  0.5299520000000  0.5106230000000  0.4011120000000 1.0
C      1  0.4170670000000  0.4432400000000  0.4647950000000 1.0
C      1  0.5374940000000  0.5765300000000  0.4536490000000 1.0
C      1  0.5354200000000  0.5050470000000  0.4469450000000 1.0
C      1  0.5205590000000  0.4462650000000  0.5595580000000 1.0
C      1  0.5642360000000  0.4354910000000  0.5484470000000 1.0
C      1  0.4920130000000  0.4050140000000  0.5534410000000 1.0
C      1  0.5631300000000  0.5509750000000  0.5121410000000 1.0
C      1  0.3807330000000  0.5543210000000  0.5178720000000 1.0
C      1  0.4694090000000  0.4907060000000  0.4066210000000 1.0
C      1  0.5925760000000  0.5340110000000  0.5373310000000 1.0
C      1  0.4507850000000  0.5001180000000  0.4316250000000 1.0
C      1  0.4180850000000  0.4947990000000  0.5385920000000 1.0
C      1  0.4590980000000  0.4605370000000  0.4729080000000 1.0
C      1  0.5262870000000  0.4870760000000  0.4891640000000 1.0
C      1  0.5181370000000  0.4814280000000  0.4054710000000 1.0
C      1  0.4802370000000  0.5151240000000  0.4018730000000 1.0
C      1  0.5034730000000  0.5883600000000  0.5421370000000 1.0
C      1  0.5855770000000  0.4696950000000  0.4397900000000 1.0
C      1  0.4926220000000  0.5887890000000  0.4629970000000 1.0
C      1  0.6029560000000  0.4880250000000  0.4585150000000 1.0
C      1  0.4634540000000  0.6057440000000  0.5094310000000 1.0
C      1  0.5890220000000  0.4851860000000  0.5551660000000 1.0
C      1  0.4873740000000  0.5245970000000  0.5414240000000 1.0
C      1  0.5546620000000  0.4252630000000  0.4464830000000 1.0
C      1  0.5666700000000  0.5255530000000  0.4985170000000 1.0
C      1  0.5809250000000  0.5306160000000  0.4467940000000 1.0
C      1  0.5240650000000  0.5596520000000  0.4120350000000 1.0
C      1  0.4991610000000  0.5414090000000  0.5205590000000 1.0
C      1  0.4844360000000  0.5404050000000  0.4022950000000 1.0
C      1  0.4378910000000  0.5978970000000  0.5252920000000 1.0
C      1  0.5181870000000  0.5979590000000  0.4721480000000 1.0
C      1  0.5392720000000  0.4323470000000  0.5407440000000 1.0
C      1  0.4380350000000  0.5585850000000  0.5606730000000 1.0
C      1  0.5159830000000  0.5642080000000  0.4378670000000 1.0
C      1  0.4914310000000  0.4256960000000  0.4756490000000 1.0
C      1  0.5299550000000  0.5386920000000  0.5475790000000 1.0
C      1  0.4143280000000  0.5169970000000  0.5025300000000 1.0
C      1  0.4718420000000  0.4482270000000  0.5755770000000 1.0
C      1  0.5010930000000  0.5453560000000  0.4537300000000 1.0
C      1  0.4638540000000  0.5594590000000  0.5461280000000 1.0
C      1  0.5355740000000  0.4391420000000  0.4271740000000 1.0
C      1  0.3975100000000  0.5304360000000  0.5226030000000 1.0
C      1  0.4148010000000  0.5718090000000  0.4859120000000 1.0
C      1  0.6117670000000  0.4912100000000  0.5130880000000 1.0
C      1  0.5464260000000  0.4070960000000  0.5049460000000 1.0
C      1  0.5429470000000  0.4630800000000  0.4126670000000 1.0
C      1  0.4335590000000  0.5739640000000  0.5081810000000 1.0
C      1  0.4598920000000  0.4361290000000  0.4349800000000 1.0
C      1  0.4176300000000  0.5333180000000  0.4423670000000 1.0
C      1  0.5334510000000  0.4064460000000  0.4575660000000 1.0
C      1  0.4766440000000  0.5445280000000  0.4997680000000 1.0
C      1  0.5105860000000  0.4426060000000  0.4909070000000 1.0
C      1  0.4735180000000  0.4401170000000  0.5256240000000 1.0
C      1  0.5481080000000  0.4397290000000  0.4821370000000 1.0
C      1  0.4363970000000  0.5087840000000  0.5878520000000 1.0
C      1  0.4962130000000  0.5169350000000  0.5687680000000 1.0
C      1  0.5422840000000  0.4850890000000  0.4674560000000 1.0
C      1  0.4309210000000  0.5831980000000  0.5487250000000 1.0
C      1  0.4931080000000  0.3841520000000  0.5171210000000 1.0
C      1  0.4826070000000  0.4435960000000  0.4170710000000 1.0
C      1  0.4913010000000  0.6014670000000  0.5184560000000 1.0
C      1  0.4664800000000  0.4345260000000  0.4626900000000 1.0
C      1  0.4650620000000  0.4660210000000  0.5151740000000 1.0
C      1  0.4410520000000  0.5290890000000  0.4264940000000 1.0
C      1  0.5731480000000  0.4731780000000  0.5766480000000 1.0
C      1  0.4833740000000  0.5292000000000  0.5924130000000 1.0
C      1  0.5397020000000  0.5531410000000  0.5702400000000 1.0
C      1  0.4882040000000  0.4689540000000  0.4044380000000 1.0
C      1  0.4424420000000  0.4110160000000  0.5008700000000 1.0
C      1  0.5206650000000  0.5283640000000  0.4666250000000 1.0
C      1  0.4284190000000  0.5275230000000  0.5638520000000 1.0
C      1  0.5748080000000  0.4467910000000  0.4526130000000 1.0
C      1  0.5423820000000  0.5542180000000  0.4727730000000 1.0
C      1  0.4711560000000  0.3949240000000  0.5352860000000 1.0
C      1  0.4341290000000  0.4493720000000  0.4410530000000 1.0
C      1  0.5497900000000  0.4904260000000  0.5839540000000 1.0
C      1  0.6085630000000  0.4860210000000  0.4856720000000 1.0
C      1  0.5293250000000  0.5223870000000  0.6061760000000 1.0
C      1  0.5021260000000  0.4691090000000  0.4484770000000 1.0
C      1  0.4290840000000  0.4472690000000  0.5441350000000 1.0
C      1  0.4663470000000  0.5089280000000  0.5282640000000 1.0
C      1  0.5329420000000  0.5876920000000  0.5385380000000 1.0
C      1  0.5829340000000  0.4487090000000  0.5252520000000 1.0
C      1  0.4610630000000  0.3938430000000  0.4856920000000 1.0
C      1  0.4429880000000  0.4646810000000  0.4967990000000 1.0
C      1  0.3965810000000  0.4628980000000  0.4623490000000 1.0
C      1  0.5586830000000  0.5735050000000  0.4311950000000 1.0
C      1  0.5758000000000  0.5512260000000  0.4267830000000 1.0
C      1  0.3979300000000  0.4714120000000  0.5121420000000 1.0
C      1  0.5753340000000  0.5581170000000  0.5373000000000 1.0
C      1  0.5369740000000  0.4748800000000  0.5116820000000 1.0
C      1  0.5974960000000  0.5575330000000  0.4825080000000 1.0
C      1  0.4255760000000  0.4370030000000  0.4936600000000 1.0
C      1  0.4441420000000  0.4563140000000  0.5679720000000 1.0
C      1  0.5459240000000  0.5672680000000  0.4977900000000 1.0
C      1  0.4574460000000  0.5588320000000  0.5168730000000 1.0
C      1  0.4995400000000  0.4894040000000  0.5593930000000 1.0
C      1  0.5208150000000  0.5488190000000  0.5930270000000 1.0
C      1  0.4935860000000  0.5563930000000  0.5853580000000 1.0
C      1  0.5131520000000  0.3930170000000  0.5367690000000 1.0
C      1  0.4895300000000  0.4351450000000  0.5557080000000 1.0
C      1  0.4039730000000  0.4838480000000  0.4419740000000 1.0
C      1  0.4609510000000  0.5126650000000  0.6028280000000 1.0
C      1  0.5407610000000  0.4051110000000  0.5334390000000 1.0
C      1  0.4796290000000  0.4791280000000  0.4647400000000 1.0
C      1  0.4813470000000  0.5589620000000  0.4706850000000 1.0
C      1  0.5692200000000  0.5406060000000  0.4728860000000 1.0
C      1  0.4036750000000  0.5184710000000  0.5485440000000 1.0
C      1  0.5288730000000  0.4902930000000  0.6045840000000 1.0
C      1  0.4303020000000  0.4774850000000  0.4330890000000 1.0
C      1  0.5267300000000  0.4779890000000  0.5622530000000 1.0
C      1  0.4548960000000  0.5613230000000  0.4593120000000 1.0
C      1  0.3850770000000  0.4769370000000  0.4859250000000 1.0
C      1  0.5514220000000  0.5047160000000  0.4194250000000 1.0
C      1  0.4531600000000  0.4165410000000  0.5270440000000 1.0
C      1  0.5329060000000  0.4462990000000  0.5863230000000 1.0
C      1  0.5135090000000  0.6063230000000  0.4991530000000 1.0
C      1  0.5150530000000  0.4650280000000  0.6006680000000 1.0
C      1  0.5511930000000  0.5565700000000  0.4088690000000 1.0
C      1  0.4124010000000  0.4471570000000  0.5201660000000 1.0
C      1  0.4667070000000  0.5049610000000  0.4598970000000 1.0
C      1  0.4850090000000  0.4634640000000  0.5964960000000 1.0
C      1  0.6017600000000  0.4716460000000  0.5333720000000 1.0
C      1  0.4609670000000  0.5504660000000  0.4195610000000 1.0
C      1  0.4881640000000  0.5703720000000  0.5595990000000 1.0
C      1  0.5130610000000  0.4907200000000  0.4333680000000 1.0
C      1  0.4571860000000  0.5755790000000  0.4348070000000 1.0
C      1  0.4333300000000  0.5285750000000  0.4856660000000 1.0
END
