TITL C-4164240-4114-548 15.2914110992448 125000 -8714.3408495413 0 0 60 (C1) n - 1
REM
REM in /home/nfs/bkarasulu/CARBON/AIRSS/Generating-Clusters/ReaxFF-fromJPCA2015/Units_Real/with-SteepDescent/Only-C1/SD-CG/Try1-3A/FIRE-CG
REM
REM
REM
REM
REM
REM ./C.cell (11c1c37f851c82e70ff6c80c92926a4b)
REM
REM compiler GCC version 9.2.1 20190827 (Red Hat 9.2.1-1)
REM options -cpp -mtune=generic -march=x86-64 -g -O0 -fpre-include=/usr/include/finclude/math-vector-fortran.h
REM seed 1900052543 -1066481612 -1388980846 -854343285 -392315116 -1277477733 -793926293 -296838327 -1296948251 -1740967513 833082981 -432753575 -899545687 1818973620 -1435031810 -1358440443 166448024 -248767786 987257456 375010254 -120674231 -466849284 671752437 -1518406756 -1984041923 1501597055 -1692389643 1869282158 -905255984 1756801250 140512363 1970615649 -1472383765
REM
CELL 1.54180   50.00000   50.00000   50.00000   90.00000   90.00000   90.00000
LATT -1
SFAC C  
C      1  0.4433310000000  0.4880290000000  0.5224880000000 1.0
C      1  0.5569470000000  0.4955840000000  0.5330140000000 1.0
C      1  0.5322940000000  0.4469990000000  0.5188690000000 1.0
C      1  0.4307270000000  0.4880730000000  0.4755390000000 1.0
C      1  0.4913240000000  0.4836100000000  0.4546600000000 1.0
C      1  0.4714630000000  0.5208550000000  0.4308140000000 1.0
C      1  0.4658240000000  0.4796770000000  0.5390840000000 1.0
C      1  0.5266550000000  0.4571370000000  0.5570180000000 1.0
C      1  0.5410790000000  0.5271690000000  0.5574440000000 1.0
C      1  0.5111360000000  0.4467440000000  0.5365100000000 1.0
C      1  0.5301400000000  0.4805840000000  0.5727720000000 1.0
C      1  0.5514190000000  0.4796560000000  0.4802400000000 1.0
C      1  0.5195760000000  0.5234340000000  0.4821110000000 1.0
C      1  0.4810930000000  0.4585590000000  0.5261950000000 1.0
C      1  0.5749480000000  0.5011370000000  0.4850020000000 1.0
C      1  0.4568280000000  0.5451460000000  0.4440180000000 1.0
C      1  0.4985550000000  0.5216040000000  0.4350090000000 1.0
C      1  0.5196860000000  0.5577950000000  0.5203500000000 1.0
C      1  0.4815350000000  0.4415770000000  0.4597450000000 1.0
C      1  0.4693360000000  0.4929210000000  0.4404410000000 1.0
C      1  0.4913620000000  0.5566900000000  0.5149310000000 1.0
C      1  0.4548320000000  0.4513800000000  0.4648730000000 1.0
C      1  0.4954870000000  0.4385770000000  0.4848790000000 1.0
C      1  0.4366150000000  0.5350880000000  0.4629710000000 1.0
C      1  0.4603590000000  0.4451660000000  0.5166670000000 1.0
C      1  0.4476410000000  0.4775440000000  0.4545110000000 1.0
C      1  0.5511330000000  0.5013910000000  0.5609930000000 1.0
C      1  0.5309550000000  0.4973250000000  0.4900720000000 1.0
C      1  0.5501930000000  0.5261910000000  0.4495550000000 1.0
C      1  0.4782310000000  0.5649770000000  0.4901840000000 1.0
C      1  0.4842850000000  0.5276890000000  0.5196440000000 1.0
C      1  0.5777470000000  0.5328100000000  0.5099880000000 1.0
C      1  0.4911510000000  0.4647490000000  0.4982840000000 1.0
C      1  0.4374890000000  0.5149620000000  0.5135580000000 1.0
C      1  0.5018040000000  0.5383560000000  0.5633350000000 1.0
C      1  0.4328590000000  0.4717140000000  0.5002250000000 1.0
C      1  0.4787150000000  0.5241110000000  0.5692850000000 1.0
C      1  0.5278970000000  0.4492050000000  0.4556730000000 1.0
C      1  0.5058990000000  0.5103850000000  0.5290390000000 1.0
C      1  0.5020550000000  0.4589880000000  0.4462390000000 1.0
C      1  0.4775840000000  0.4943080000000  0.5630780000000 1.0
C      1  0.5309610000000  0.4970690000000  0.5191530000000 1.0
C      1  0.5386660000000  0.4721260000000  0.4592280000000 1.0
C      1  0.4290380000000  0.5160760000000  0.4838830000000 1.0
C      1  0.4752950000000  0.5595280000000  0.4618240000000 1.0
C      1  0.5428450000000  0.4482380000000  0.4929360000000 1.0
C      1  0.5328140000000  0.5467680000000  0.4972220000000 1.0
C      1  0.4726860000000  0.5394730000000  0.4799730000000 1.0
C      1  0.5247130000000  0.5491910000000  0.5501610000000 1.0
C      1  0.4453200000000  0.4462470000000  0.4930630000000 1.0
C      1  0.4471380000000  0.5343650000000  0.5315960000000 1.0
C      1  0.5227370000000  0.5264800000000  0.4488690000000 1.0
C      1  0.4898290000000  0.5174690000000  0.4889870000000 1.0
C      1  0.5232410000000  0.4329060000000  0.4780220000000 1.0
C      1  0.5788220000000  0.5047860000000  0.5137360000000 1.0
C      1  0.5704030000000  0.5260530000000  0.4697980000000 1.0
C      1  0.5031360000000  0.4885250000000  0.5709130000000 1.0
C      1  0.4878140000000  0.4881860000000  0.4816590000000 1.0
C      1  0.4547560000000  0.5417040000000  0.5578020000000 1.0
C      1  0.5615960000000  0.5469130000000  0.4918660000000 1.0
END
