TITL C-4164246-3563-290 25.2776781435225 125000 -18114.0012166928 0 0 123 (C1) n - 1
REM
REM in /home/nfs/bkarasulu/CARBON/AIRSS/Generating-Clusters/ReaxFF-fromJPCA2015/Units_Real/with-SteepDescent/Only-C1/SD-CG/Try1-3A/FIRE-CG
REM
REM
REM
REM
REM
REM ./C.cell (11c1c37f851c82e70ff6c80c92926a4b)
REM
REM compiler GCC version 9.2.1 20190827 (Red Hat 9.2.1-1)
REM options -cpp -mtune=generic -march=x86-64 -g -O0 -fpre-include=/usr/include/finclude/math-vector-fortran.h
REM seed -1278749162 916602 650595049 328213993 412202499 -1492886345 1058026991 -135108658 1095163363 -1291417988 -920223891 -404381920 -1769259224 -376397546 93053053 2142889344 -1990070335 -837077296 831215118 1183496100 1336505940 -917841524 2114749731 790631691 -912299793 -897354342 1807624018 -1203324217 736822131 456835596 -1566064476 -1046498000 387056551
REM
CELL 1.54180   50.00000   50.00000   50.00000   90.00000   90.00000   90.00000
LATT -1
SFAC C  
C      1  0.5234600000000  0.5018880000000  0.4103970000000 1.0
C      1  0.5169770000000  0.4135260000000  0.4704830000000 1.0
C      1  0.5742990000000  0.5122570000000  0.4506650000000 1.0
C      1  0.5718220000000  0.5619390000000  0.5085350000000 1.0
C      1  0.4105790000000  0.5227890000000  0.5675830000000 1.0
C      1  0.5915040000000  0.4833670000000  0.5104290000000 1.0
C      1  0.4709810000000  0.4625110000000  0.4496920000000 1.0
C      1  0.5632110000000  0.5685230000000  0.4807090000000 1.0
C      1  0.4332600000000  0.4285110000000  0.5067890000000 1.0
C      1  0.5531460000000  0.4941570000000  0.4472260000000 1.0
C      1  0.5409630000000  0.4731390000000  0.5454170000000 1.0
C      1  0.5183790000000  0.5484890000000  0.5797510000000 1.0
C      1  0.5118310000000  0.5217210000000  0.5916650000000 1.0
C      1  0.5922110000000  0.4818660000000  0.4809670000000 1.0
C      1  0.4925770000000  0.4265230000000  0.5411680000000 1.0
C      1  0.4331650000000  0.4373650000000  0.4787110000000 1.0
C      1  0.5287650000000  0.4736530000000  0.5747330000000 1.0
C      1  0.4482840000000  0.5483080000000  0.4596170000000 1.0
C      1  0.5307830000000  0.4996930000000  0.5871700000000 1.0
C      1  0.5225160000000  0.5708960000000  0.4530840000000 1.0
C      1  0.4707350000000  0.4865490000000  0.5361310000000 1.0
C      1  0.4250490000000  0.5387340000000  0.5479150000000 1.0
C      1  0.4777980000000  0.5197600000000  0.4850410000000 1.0
C      1  0.5216840000000  0.5162640000000  0.5441550000000 1.0
C      1  0.4698880000000  0.4899590000000  0.5890800000000 1.0
C      1  0.5484540000000  0.4583200000000  0.4197580000000 1.0
C      1  0.4148960000000  0.5165160000000  0.5071940000000 1.0
C      1  0.4807400000000  0.5489260000000  0.5198550000000 1.0
C      1  0.4991700000000  0.4973570000000  0.5294600000000 1.0
C      1  0.4770870000000  0.5129700000000  0.4285460000000 1.0
C      1  0.4764010000000  0.5455450000000  0.4685850000000 1.0
C      1  0.5573820000000  0.4621080000000  0.5022850000000 1.0
C      1  0.5145100000000  0.4491820000000  0.4718210000000 1.0
C      1  0.4813050000000  0.4623690000000  0.5841960000000 1.0
C      1  0.4199930000000  0.5435000000000  0.5193810000000 1.0
C      1  0.4773080000000  0.5397960000000  0.5720070000000 1.0
C      1  0.5156990000000  0.4737550000000  0.5222240000000 1.0
C      1  0.4375390000000  0.5559420000000  0.4831580000000 1.0
C      1  0.5035430000000  0.4568520000000  0.5017140000000 1.0
C      1  0.5955660000000  0.5074100000000  0.4668610000000 1.0
C      1  0.5598960000000  0.4521310000000  0.5426030000000 1.0
C      1  0.4669870000000  0.4627740000000  0.5212480000000 1.0
C      1  0.5249770000000  0.4953120000000  0.4561300000000 1.0
C      1  0.3966310000000  0.5001070000000  0.5549190000000 1.0
C      1  0.4718060000000  0.6201170000000  0.4719980000000 1.0
C      1  0.4475940000000  0.5200390000000  0.5434030000000 1.0
C      1  0.5362460000000  0.5817220000000  0.4768320000000 1.0
C      1  0.4609930000000  0.4458480000000  0.4725200000000 1.0
C      1  0.4288160000000  0.5020830000000  0.4859250000000 1.0
C      1  0.4180830000000  0.4952680000000  0.5750010000000 1.0
C      1  0.5776980000000  0.5412680000000  0.5278480000000 1.0
C      1  0.4376730000000  0.4672730000000  0.4263030000000 1.0
C      1  0.5408840000000  0.3951510000000  0.4737620000000 1.0
C      1  0.5298650000000  0.5565940000000  0.5282870000000 1.0
C      1  0.5373870000000  0.5280000000000  0.5232870000000 1.0
C      1  0.4375620000000  0.5250700000000  0.4392480000000 1.0
C      1  0.5360560000000  0.5332290000000  0.4325890000000 1.0
C      1  0.5402830000000  0.4300050000000  0.5422520000000 1.0
C      1  0.5792900000000  0.4591830000000  0.5212150000000 1.0
C      1  0.5795220000000  0.4610920000000  0.4639720000000 1.0
C      1  0.4931200000000  0.5384600000000  0.4259080000000 1.0
C      1  0.4013510000000  0.4976330000000  0.5257430000000 1.0
C      1  0.5003130000000  0.4662570000000  0.4504800000000 1.0
C      1  0.5009450000000  0.4566180000000  0.4218120000000 1.0
C      1  0.5150760000000  0.4328420000000  0.5575400000000 1.0
C      1  0.5248220000000  0.4740650000000  0.4098550000000 1.0
C      1  0.4557890000000  0.5239800000000  0.4113740000000 1.0
C      1  0.4834590000000  0.5162910000000  0.5891910000000 1.0
C      1  0.5043730000000  0.6054570000000  0.5089300000000 1.0
C      1  0.4758150000000  0.4177960000000  0.4713830000000 1.0
C      1  0.5094110000000  0.4531890000000  0.5778970000000 1.0
C      1  0.5671900000000  0.5562010000000  0.5519690000000 1.0
C      1  0.5415380000000  0.4460340000000  0.4610640000000 1.0
C      1  0.4821960000000  0.5948750000000  0.5285650000000 1.0
C      1  0.5333720000000  0.4170170000000  0.5175320000000 1.0
C      1  0.5512310000000  0.4134180000000  0.4951400000000 1.0
C      1  0.5369610000000  0.5526360000000  0.5576250000000 1.0
C      1  0.4740890000000  0.5328380000000  0.5436750000000 1.0
C      1  0.4935960000000  0.5648190000000  0.5742360000000 1.0
C      1  0.5630240000000  0.4416280000000  0.4810350000000 1.0
C      1  0.5660880000000  0.5854000000000  0.5481470000000 1.0
C      1  0.5670410000000  0.4704710000000  0.4387830000000 1.0
C      1  0.4965410000000  0.5565270000000  0.4487510000000 1.0
C      1  0.5032410000000  0.4245860000000  0.5140590000000 1.0
C      1  0.4145840000000  0.4830180000000  0.4422710000000 1.0
C      1  0.5092950000000  0.4293120000000  0.4286790000000 1.0
C      1  0.4961810000000  0.4133230000000  0.4503270000000 1.0
C      1  0.4872720000000  0.6131560000000  0.4895430000000 1.0
C      1  0.5511400000000  0.5817410000000  0.5205450000000 1.0
C      1  0.4136500000000  0.4816720000000  0.4719020000000 1.0
C      1  0.5375120000000  0.4353420000000  0.4335150000000 1.0
C      1  0.4133970000000  0.4563460000000  0.4843710000000 1.0
C      1  0.4157690000000  0.4519820000000  0.5128910000000 1.0
C      1  0.5073660000000  0.5506550000000  0.5066610000000 1.0
C      1  0.4664500000000  0.4395420000000  0.5413000000000 1.0
C      1  0.4571590000000  0.5045450000000  0.4491740000000 1.0
C      1  0.4442310000000  0.4929800000000  0.5367780000000 1.0
C      1  0.5778260000000  0.5068160000000  0.5263040000000 1.0
C      1  0.4789630000000  0.4128560000000  0.4997310000000 1.0
C      1  0.4981600000000  0.5035940000000  0.4983710000000 1.0
C      1  0.4636050000000  0.4593350000000  0.4226940000000 1.0
C      1  0.4890480000000  0.5819330000000  0.5522330000000 1.0
C      1  0.4363080000000  0.5662190000000  0.5087520000000 1.0
C      1  0.4443860000000  0.4811820000000  0.5760900000000 1.0
C      1  0.5234880000000  0.5248610000000  0.4581320000000 1.0
C      1  0.5305410000000  0.5947470000000  0.5015120000000 1.0
C      1  0.4096270000000  0.5104680000000  0.4352490000000 1.0
C      1  0.5447080000000  0.5584670000000  0.4398120000000 1.0
C      1  0.4733030000000  0.4666990000000  0.4936670000000 1.0
C      1  0.4588860000000  0.4974400000000  0.4788740000000 1.0
C      1  0.4640510000000  0.5728170000000  0.5189500000000 1.0
C      1  0.4201650000000  0.4758950000000  0.5295690000000 1.0
C      1  0.4575380000000  0.4555850000000  0.5695620000000 1.0
C      1  0.5170390000000  0.5392800000000  0.4824290000000 1.0
C      1  0.5811250000000  0.5331780000000  0.4683250000000 1.0
C      1  0.5622460000000  0.4928510000000  0.5477460000000 1.0
C      1  0.5206500000000  0.4919690000000  0.4851380000000 1.0
C      1  0.5692690000000  0.5564630000000  0.4556490000000 1.0
C      1  0.5438610000000  0.5098100000000  0.5627140000000 1.0
C      1  0.5565960000000  0.5124650000000  0.5082840000000 1.0
C      1  0.5176960000000  0.5292520000000  0.4115540000000 1.0
C      1  0.5464470000000  0.4880830000000  0.4975160000000 1.0
C      1  0.4581710000000  0.4198830000000  0.5189970000000 1.0
END
