TITL C-4164247-2821-113 5.52619547626567 125000 -3151.78522118465 0 0 23 (C1) n - 1
REM
REM in /home/nfs/bkarasulu/CARBON/AIRSS/Generating-Clusters/ReaxFF-fromJPCA2015/Units_Real/with-SteepDescent/Only-C1/SD-CG/Try1-3A/FIRE-CG
REM
REM
REM
REM
REM
REM ./C.cell (11c1c37f851c82e70ff6c80c92926a4b)
REM
REM compiler GCC version 9.2.1 20190827 (Red Hat 9.2.1-1)
REM options -cpp -mtune=generic -march=x86-64 -g -O0 -fpre-include=/usr/include/finclude/math-vector-fortran.h
REM seed -1166731426 -2082692345 495899579 1873745571 -1774694474 -2023288648 -1201614294 -680946805 1216562848 1067000673 1108512754 2096503627 1518483894 -6021718 1381163466 -383977194 232979364 1365645396 1767101616 1945388581 1511822565 -110084693 -165376815 989391573 -1450167943 -1647144400 815388328 -749525578 1316629584 1077244100 1077852077 -1447902770 -2128562627
REM
CELL 1.54180   50.00000   50.00000   50.00000   90.00000   90.00000   90.00000
LATT -1
SFAC C  
C      1  0.4758740000000  0.5077140000000  0.5405890000000 1.0
C      1  0.5399790000000  0.5497500000000  0.4729650000000 1.0
C      1  0.5146950000000  0.4713380000000  0.4871760000000 1.0
C      1  0.5090840000000  0.4683760000000  0.5489110000000 1.0
C      1  0.5191020000000  0.5307080000000  0.5145850000000 1.0
C      1  0.5447910000000  0.4998790000000  0.4842920000000 1.0
C      1  0.4496950000000  0.5022710000000  0.5290240000000 1.0
C      1  0.5231450000000  0.4898010000000  0.4659230000000 1.0
C      1  0.5011910000000  0.4853440000000  0.5098400000000 1.0
C      1  0.4628440000000  0.4620710000000  0.5232070000000 1.0
C      1  0.5203250000000  0.5625070000000  0.4569340000000 1.0
C      1  0.5405160000000  0.5271850000000  0.4939700000000 1.0
C      1  0.5247850000000  0.4790240000000  0.5270550000000 1.0
C      1  0.4630210000000  0.4787890000000  0.4858430000000 1.0
C      1  0.5405460000000  0.4756730000000  0.5019010000000 1.0
C      1  0.4990450000000  0.5020580000000  0.4530110000000 1.0
C      1  0.4809120000000  0.4859030000000  0.4677520000000 1.0
C      1  0.4885400000000  0.5576430000000  0.4553450000000 1.0
C      1  0.4864060000000  0.4844150000000  0.5564800000000 1.0
C      1  0.4458400000000  0.4787100000000  0.5086270000000 1.0
C      1  0.4804810000000  0.4577850000000  0.5447330000000 1.0
C      1  0.4938170000000  0.5297230000000  0.4541730000000 1.0
C      1  0.4953670000000  0.5133300000000  0.5176620000000 1.0
END
