TITL C-4164245-3996-2 5.11469980663084 125000 -13481.410121271 0 0 91 (C1) n - 1
REM
REM in /home/nfs/bkarasulu/CARBON/AIRSS/Generating-Clusters/ReaxFF-fromJPCA2015/Units_Real/with-SteepDescent/Only-C1/SD-CG/Try1-3A/FIRE-CG
REM
REM
REM
REM
REM
REM ./C.cell (11c1c37f851c82e70ff6c80c92926a4b)
REM
REM compiler GCC version 9.2.1 20190827 (Red Hat 9.2.1-1)
REM options -cpp -mtune=generic -march=x86-64 -g -O0 -fpre-include=/usr/include/finclude/math-vector-fortran.h
REM seed 729864851 -638265473 -2085187987 255039020 -270729350 -960475329 -1894389301 -1915958908 318946989 -480560110 -350597641 -1312230489 711647251 -1368260905 -1126717537 1981392199 -1691893281 -131401047 1974059019 240316502 1695197523 1325647305 215938255 1670039177 -108292742 -1558763224 -1789916699 111773675 -322688537 930900618 -1257296546 -453982763 1247193343
REM
CELL 1.54180   50.00000   50.00000   50.00000   90.00000   90.00000   90.00000
LATT -1
SFAC C  
C      1  0.4248980000000  0.5604190000000  0.4889500000000 1.0
C      1  0.5095900000000  0.5262580000000  0.5355950000000 1.0
C      1  0.4435400000000  0.4345550000000  0.4880320000000 1.0
C      1  0.4679220000000  0.5420750000000  0.5490230000000 1.0
C      1  0.5195820000000  0.4823440000000  0.4774580000000 1.0
C      1  0.5217880000000  0.5114740000000  0.4106800000000 1.0
C      1  0.5643680000000  0.5269810000000  0.4567980000000 1.0
C      1  0.4711760000000  0.4965170000000  0.5067520000000 1.0
C      1  0.4462830000000  0.4440560000000  0.5362690000000 1.0
C      1  0.4295210000000  0.5076750000000  0.4511700000000 1.0
C      1  0.5359050000000  0.4959930000000  0.5145550000000 1.0
C      1  0.4917640000000  0.5105400000000  0.4471090000000 1.0
C      1  0.4843360000000  0.5026710000000  0.5324440000000 1.0
C      1  0.4712070000000  0.4271000000000  0.5384280000000 1.0
C      1  0.4999590000000  0.4363030000000  0.4415320000000 1.0
C      1  0.5663680000000  0.5389050000000  0.5378360000000 1.0
C      1  0.4604030000000  0.4711250000000  0.4457470000000 1.0
C      1  0.5192700000000  0.4726370000000  0.5176900000000 1.0
C      1  0.4941670000000  0.4332020000000  0.5558070000000 1.0
C      1  0.4395260000000  0.4942760000000  0.5557030000000 1.0
C      1  0.4600710000000  0.5409300000000  0.4230950000000 1.0
C      1  0.4964190000000  0.5740920000000  0.5232490000000 1.0
C      1  0.5092200000000  0.5292330000000  0.4309080000000 1.0
C      1  0.4504880000000  0.5541310000000  0.5292910000000 1.0
C      1  0.4828210000000  0.5186930000000  0.4736660000000 1.0
C      1  0.5100560000000  0.5192080000000  0.5857690000000 1.0
C      1  0.4696680000000  0.4432920000000  0.4800660000000 1.0
C      1  0.5805290000000  0.5056950000000  0.5007170000000 1.0
C      1  0.5321940000000  0.4994060000000  0.4634300000000 1.0
C      1  0.5562850000000  0.4755280000000  0.4366490000000 1.0
C      1  0.4727540000000  0.5613900000000  0.4855530000000 1.0
C      1  0.5758480000000  0.4825210000000  0.4840580000000 1.0
C      1  0.5529200000000  0.5226290000000  0.5588700000000 1.0
C      1  0.5131380000000  0.4202830000000  0.5145650000000 1.0
C      1  0.5424330000000  0.4700300000000  0.5670430000000 1.0
C      1  0.5427960000000  0.4489680000000  0.5461320000000 1.0
C      1  0.4947130000000  0.5519190000000  0.5429510000000 1.0
C      1  0.5232550000000  0.5270210000000  0.4687900000000 1.0
C      1  0.4665900000000  0.5130450000000  0.5585680000000 1.0
C      1  0.5283970000000  0.4221380000000  0.4880340000000 1.0
C      1  0.4944900000000  0.4748640000000  0.5322830000000 1.0
C      1  0.5516430000000  0.5633080000000  0.4718910000000 1.0
C      1  0.4849920000000  0.5054270000000  0.5809140000000 1.0
C      1  0.5587470000000  0.4863400000000  0.5303430000000 1.0
C      1  0.5205550000000  0.4311400000000  0.5398120000000 1.0
C      1  0.5700690000000  0.5423440000000  0.4813050000000 1.0
C      1  0.5140430000000  0.4193490000000  0.4624620000000 1.0
C      1  0.4566510000000  0.5082740000000  0.4850030000000 1.0
C      1  0.4432180000000  0.4670740000000  0.5515040000000 1.0
C      1  0.4325840000000  0.5170290000000  0.5007800000000 1.0
C      1  0.4739720000000  0.4474680000000  0.4517050000000 1.0
C      1  0.5615840000000  0.4579130000000  0.5252060000000 1.0
C      1  0.4621960000000  0.5135840000000  0.4182890000000 1.0
C      1  0.4801530000000  0.4692560000000  0.5067420000000 1.0
C      1  0.4228100000000  0.4964020000000  0.5340170000000 1.0
C      1  0.4466200000000  0.5694430000000  0.4753640000000 1.0
C      1  0.5262190000000  0.5232380000000  0.5097820000000 1.0
C      1  0.5404200000000  0.5781990000000  0.4950830000000 1.0
C      1  0.5477430000000  0.4504000000000  0.4495660000000 1.0
C      1  0.5616140000000  0.5292500000000  0.5079320000000 1.0
C      1  0.4922170000000  0.4550940000000  0.5724590000000 1.0
C      1  0.5245580000000  0.4748080000000  0.5905480000000 1.0
C      1  0.4750490000000  0.4915180000000  0.4303850000000 1.0
C      1  0.5065770000000  0.4647720000000  0.4919330000000 1.0
C      1  0.4668070000000  0.4177350000000  0.4916510000000 1.0
C      1  0.4930070000000  0.4774580000000  0.5877510000000 1.0
C      1  0.4333460000000  0.4482340000000  0.5091840000000 1.0
C      1  0.5642300000000  0.4961310000000  0.4578090000000 1.0
C      1  0.5030330000000  0.5330090000000  0.4885710000000 1.0
C      1  0.5497340000000  0.4404830000000  0.4785920000000 1.0
C      1  0.5544970000000  0.5747990000000  0.5201930000000 1.0
C      1  0.4881470000000  0.5512190000000  0.4274960000000 1.0
C      1  0.5276390000000  0.5012600000000  0.6035730000000 1.0
C      1  0.4955610000000  0.5734760000000  0.4450040000000 1.0
C      1  0.5247140000000  0.5290850000000  0.5620670000000 1.0
C      1  0.4402470000000  0.4838610000000  0.4651010000000 1.0
C      1  0.4269280000000  0.5564270000000  0.4607010000000 1.0
C      1  0.4838030000000  0.4155520000000  0.5153380000000 1.0
C      1  0.4299020000000  0.5439160000000  0.5113190000000 1.0
C      1  0.4946190000000  0.5777820000000  0.4746680000000 1.0
C      1  0.4279610000000  0.4715140000000  0.4944330000000 1.0
C      1  0.5650740000000  0.5669220000000  0.5391880000000 1.0
C      1  0.5236620000000  0.4508040000000  0.4358020000000 1.0
C      1  0.4696560000000  0.5699350000000  0.5136540000000 1.0
C      1  0.5118010000000  0.5802400000000  0.4985960000000 1.0
C      1  0.4356600000000  0.5349540000000  0.4420350000000 1.0
C      1  0.5577180000000  0.4934990000000  0.5584930000000 1.0
C      1  0.5402830000000  0.5436100000000  0.4519850000000 1.0
C      1  0.4206120000000  0.4939190000000  0.5090130000000 1.0
C      1  0.5351470000000  0.4854620000000  0.4175340000000 1.0
C      1  0.5653150000000  0.4569580000000  0.4959630000000 1.0
END
