TITL C-4164247-2821-532 9.68044228703697 125000 -11282.8803605304 0 0 78 (C1) n - 1
REM
REM in /home/nfs/bkarasulu/CARBON/AIRSS/Generating-Clusters/ReaxFF-fromJPCA2015/Units_Real/with-SteepDescent/Only-C1/SD-CG/Try1-3A/FIRE-CG
REM
REM
REM
REM
REM
REM ./C.cell (11c1c37f851c82e70ff6c80c92926a4b)
REM
REM compiler GCC version 9.2.1 20190827 (Red Hat 9.2.1-1)
REM options -cpp -mtune=generic -march=x86-64 -g -O0 -fpre-include=/usr/include/finclude/math-vector-fortran.h
REM seed 531895684 473502641 186862728 111070976 -873734603 711856498 -39548982 -1705278083 -1903582022 -1493708888 -658721514 1843696668 923118295 1006260107 976610210 -1574506123 -308663023 -781312400 -1752358254 463587122 1106411053 1148663345 -1506095462 807493365 1510600718 -1070030411 -1423239513 1069933951 1977387790 587077122 -1276155055 -1737468781 -1266076031
REM
CELL 1.54180   50.00000   50.00000   50.00000   90.00000   90.00000   90.00000
LATT -1
SFAC C  
C      1  0.5207800000000  0.4278240000000  0.4878840000000 1.0
C      1  0.4704990000000  0.4303170000000  0.4493120000000 1.0
C      1  0.5187090000000  0.4518450000000  0.4346360000000 1.0
C      1  0.5270320000000  0.5036140000000  0.5350270000000 1.0
C      1  0.5029120000000  0.5535620000000  0.5413770000000 1.0
C      1  0.5381860000000  0.4627270000000  0.4698830000000 1.0
C      1  0.4967580000000  0.4327090000000  0.5310950000000 1.0
C      1  0.5413790000000  0.5261160000000  0.5744390000000 1.0
C      1  0.5075310000000  0.5254160000000  0.5334930000000 1.0
C      1  0.4701880000000  0.5387930000000  0.4606820000000 1.0
C      1  0.4624840000000  0.4407010000000  0.4728140000000 1.0
C      1  0.4307090000000  0.5348160000000  0.4781900000000 1.0
C      1  0.5331570000000  0.4792000000000  0.5864650000000 1.0
C      1  0.4847780000000  0.4774840000000  0.5317880000000 1.0
C      1  0.4705540000000  0.4987200000000  0.5139540000000 1.0
C      1  0.4392840000000  0.4927850000000  0.5381290000000 1.0
C      1  0.5669260000000  0.4770670000000  0.5086220000000 1.0
C      1  0.5614110000000  0.5338860000000  0.5562620000000 1.0
C      1  0.4394810000000  0.4836680000000  0.4695710000000 1.0
C      1  0.4468680000000  0.4960300000000  0.4973770000000 1.0
C      1  0.4254170000000  0.5156050000000  0.5019250000000 1.0
C      1  0.5476430000000  0.4947770000000  0.4248940000000 1.0
C      1  0.5171620000000  0.4659210000000  0.5663690000000 1.0
C      1  0.4575480000000  0.5534140000000  0.5381770000000 1.0
C      1  0.4936410000000  0.4821090000000  0.5632440000000 1.0
C      1  0.5396690000000  0.5223670000000  0.4289480000000 1.0
C      1  0.5740130000000  0.5156460000000  0.4901490000000 1.0
C      1  0.5145260000000  0.5729740000000  0.4684720000000 1.0
C      1  0.4885820000000  0.4863880000000  0.4631210000000 1.0
C      1  0.4930920000000  0.5017590000000  0.4149780000000 1.0
C      1  0.5275830000000  0.5099850000000  0.4743730000000 1.0
C      1  0.5036790000000  0.4819320000000  0.4126330000000 1.0
C      1  0.4366220000000  0.5357790000000  0.5482630000000 1.0
C      1  0.5604880000000  0.4532850000000  0.5015220000000 1.0
C      1  0.4474940000000  0.5187690000000  0.5698940000000 1.0
C      1  0.5667340000000  0.5540590000000  0.5354360000000 1.0
C      1  0.5261190000000  0.4381490000000  0.4578570000000 1.0
C      1  0.4818640000000  0.5162800000000  0.4520390000000 1.0
C      1  0.5378230000000  0.4379520000000  0.5101060000000 1.0
C      1  0.4945670000000  0.5065670000000  0.5785870000000 1.0
C      1  0.5170090000000  0.5396980000000  0.4280430000000 1.0
C      1  0.5556170000000  0.5096880000000  0.5395960000000 1.0
C      1  0.4432880000000  0.4902880000000  0.5663320000000 1.0
C      1  0.4728720000000  0.4489190000000  0.5277660000000 1.0
C      1  0.5672370000000  0.4701060000000  0.4650090000000 1.0
C      1  0.4334560000000  0.4685790000000  0.5502880000000 1.0
C      1  0.4891550000000  0.5230450000000  0.5097910000000 1.0
C      1  0.4909880000000  0.5277370000000  0.4273290000000 1.0
C      1  0.4701850000000  0.5525500000000  0.5100360000000 1.0
C      1  0.4565490000000  0.5508470000000  0.4814510000000 1.0
C      1  0.5152990000000  0.5727650000000  0.4964960000000 1.0
C      1  0.5283500000000  0.4721190000000  0.4172730000000 1.0
C      1  0.5520890000000  0.5492670000000  0.4565940000000 1.0
C      1  0.5475170000000  0.5210170000000  0.4550190000000 1.0
C      1  0.5221260000000  0.4498900000000  0.5347790000000 1.0
C      1  0.4047690000000  0.4611250000000  0.5032480000000 1.0
C      1  0.5607490000000  0.5459090000000  0.4866290000000 1.0
C      1  0.4662690000000  0.4693550000000  0.4612950000000 1.0
C      1  0.4346730000000  0.4394530000000  0.4854450000000 1.0
C      1  0.5698920000000  0.4872310000000  0.4419020000000 1.0
C      1  0.4444920000000  0.4467960000000  0.5341530000000 1.0
C      1  0.5232640000000  0.5091010000000  0.5873680000000 1.0
C      1  0.5162680000000  0.4835140000000  0.4704600000000 1.0
C      1  0.4292760000000  0.5130460000000  0.4596560000000 1.0
C      1  0.4786240000000  0.5512800000000  0.5580980000000 1.0
C      1  0.5267530000000  0.5613410000000  0.4457990000000 1.0
C      1  0.4237960000000  0.5169610000000  0.5305100000000 1.0
C      1  0.5320110000000  0.5474930000000  0.4974670000000 1.0
C      1  0.5142110000000  0.5265000000000  0.4915490000000 1.0
C      1  0.5738720000000  0.5027280000000  0.5162840000000 1.0
C      1  0.5669780000000  0.5610390000000  0.5111850000000 1.0
C      1  0.5795290000000  0.4973060000000  0.4688110000000 1.0
C      1  0.5151080000000  0.4776340000000  0.5264100000000 1.0
C      1  0.4942330000000  0.5683850000000  0.5174600000000 1.0
C      1  0.4196390000000  0.4611120000000  0.4773480000000 1.0
C      1  0.4985060000000  0.4271620000000  0.5038450000000 1.0
C      1  0.4743900000000  0.5277550000000  0.5755030000000 1.0
C      1  0.4270720000000  0.4402680000000  0.5117860000000 1.0
END
