TITL C-4164239-2837-229 28.2178726068167 125000 -25578.5717215996 0 0 172 (C1) n - 1
REM
REM in /home/nfs/bkarasulu/CARBON/AIRSS/Generating-Clusters/ReaxFF-fromJPCA2015/Units_Real/with-SteepDescent/Only-C1/SD-CG/Try1-3A/FIRE-CG
REM
REM
REM
REM
REM
REM ./C.cell (11c1c37f851c82e70ff6c80c92926a4b)
REM
REM compiler GCC version 9.2.1 20190827 (Red Hat 9.2.1-1)
REM options -cpp -mtune=generic -march=x86-64 -g -O0 -fpre-include=/usr/include/finclude/math-vector-fortran.h
REM seed -1181983403 -284391496 -202294798 1475202736 -886099228 1081337801 -2055580649 363937548 -2113041532 1751912817 -1230876383 2055001841 1693973390 1846437120 1861205729 1073427332 2005585210 -1448726001 -1140094826 1844942021 522644890 -538919194 851359735 1940320529 950634722 -994508279 1712816834 -516835460 848527029 1016995397 -66644480 295889966 784717186
REM
CELL 1.54180   50.00000   50.00000   50.00000   90.00000   90.00000   90.00000
LATT -1
SFAC C  
C      1  0.4486740000000  0.4627380000000  0.4183640000000 1.0
C      1  0.5184040000000  0.5232050000000  0.4359290000000 1.0
C      1  0.5814380000000  0.5384790000000  0.4628510000000 1.0
C      1  0.5975870000000  0.4795650000000  0.4677830000000 1.0
C      1  0.5802050000000  0.5142570000000  0.5338730000000 1.0
C      1  0.4029360000000  0.5343210000000  0.5287040000000 1.0
C      1  0.4369870000000  0.4733620000000  0.5130610000000 1.0
C      1  0.4855680000000  0.4494080000000  0.5390650000000 1.0
C      1  0.4491480000000  0.4020410000000  0.4829220000000 1.0
C      1  0.4624350000000  0.5136720000000  0.5921820000000 1.0
C      1  0.5392800000000  0.4810080000000  0.5471290000000 1.0
C      1  0.4854650000000  0.4894150000000  0.5127990000000 1.0
C      1  0.4359950000000  0.5507760000000  0.4625160000000 1.0
C      1  0.5429700000000  0.5840160000000  0.5824690000000 1.0
C      1  0.4455640000000  0.4221770000000  0.5285850000000 1.0
C      1  0.4472000000000  0.5110610000000  0.5030720000000 1.0
C      1  0.5041380000000  0.5711090000000  0.4096900000000 1.0
C      1  0.5060810000000  0.5404750000000  0.5185750000000 1.0
C      1  0.4726500000000  0.5800980000000  0.5728140000000 1.0
C      1  0.4275600000000  0.5070870000000  0.4280100000000 1.0
C      1  0.4687460000000  0.5524190000000  0.4992220000000 1.0
C      1  0.4708550000000  0.5000250000000  0.3957740000000 1.0
C      1  0.5696850000000  0.4773750000000  0.4270450000000 1.0
C      1  0.5243550000000  0.5923760000000  0.5607590000000 1.0
C      1  0.5839710000000  0.4498510000000  0.5107740000000 1.0
C      1  0.5290770000000  0.3958250000000  0.5416750000000 1.0
C      1  0.5310970000000  0.5451590000000  0.4500460000000 1.0
C      1  0.5324220000000  0.5153170000000  0.6113260000000 1.0
C      1  0.6083460000000  0.5201400000000  0.5347920000000 1.0
C      1  0.4679770000000  0.5406890000000  0.4200640000000 1.0
C      1  0.5470220000000  0.4104990000000  0.5226540000000 1.0
C      1  0.5503750000000  0.4726190000000  0.4050470000000 1.0
C      1  0.4637430000000  0.6004140000000  0.4646610000000 1.0
C      1  0.5037090000000  0.4295610000000  0.5776520000000 1.0
C      1  0.4709350000000  0.4239290000000  0.5457800000000 1.0
C      1  0.4761420000000  0.5220740000000  0.6176340000000 1.0
C      1  0.4820990000000  0.5827260000000  0.5311670000000 1.0
C      1  0.4462510000000  0.5377150000000  0.4982740000000 1.0
C      1  0.4807900000000  0.5694120000000  0.5994680000000 1.0
C      1  0.3926150000000  0.5059510000000  0.4823110000000 1.0
C      1  0.5697030000000  0.4294730000000  0.5266860000000 1.0
C      1  0.4569160000000  0.5931210000000  0.5193700000000 1.0
C      1  0.5193100000000  0.5486450000000  0.4038600000000 1.0
C      1  0.5967990000000  0.4691080000000  0.5282390000000 1.0
C      1  0.5434520000000  0.4681710000000  0.5224140000000 1.0
C      1  0.5365130000000  0.5959170000000  0.4411760000000 1.0
C      1  0.4362730000000  0.5749620000000  0.5328900000000 1.0
C      1  0.4940550000000  0.5957370000000  0.4642080000000 1.0
C      1  0.5547610000000  0.4518910000000  0.4611520000000 1.0
C      1  0.4264510000000  0.4778700000000  0.4318740000000 1.0
C      1  0.5727160000000  0.5101960000000  0.5620740000000 1.0
C      1  0.4942930000000  0.5900210000000  0.5561680000000 1.0
C      1  0.4814290000000  0.5519450000000  0.5247410000000 1.0
C      1  0.5229270000000  0.4270850000000  0.5166800000000 1.0
C      1  0.5255880000000  0.3846580000000  0.4814090000000 1.0
C      1  0.4757800000000  0.4338420000000  0.5780010000000 1.0
C      1  0.4256710000000  0.4189010000000  0.4766140000000 1.0
C      1  0.4650720000000  0.4545250000000  0.6122960000000 1.0
C      1  0.4572680000000  0.4758090000000  0.4681420000000 1.0
C      1  0.4335500000000  0.4438680000000  0.5134790000000 1.0
C      1  0.3978770000000  0.5110450000000  0.5113030000000 1.0
C      1  0.5270640000000  0.4515620000000  0.5040960000000 1.0
C      1  0.5246820000000  0.4886000000000  0.4392340000000 1.0
C      1  0.4460780000000  0.4731300000000  0.5528260000000 1.0
C      1  0.5244470000000  0.4855060000000  0.4072710000000 1.0
C      1  0.5426900000000  0.4445230000000  0.4101250000000 1.0
C      1  0.5256080000000  0.5294030000000  0.5368780000000 1.0
C      1  0.5608870000000  0.5328410000000  0.4202440000000 1.0
C      1  0.4247030000000  0.5711830000000  0.4459300000000 1.0
C      1  0.4866750000000  0.5504130000000  0.4769370000000 1.0
C      1  0.5298990000000  0.5740490000000  0.4922100000000 1.0
C      1  0.4924290000000  0.4603180000000  0.5117760000000 1.0
C      1  0.5694760000000  0.5858950000000  0.4748240000000 1.0
C      1  0.5025980000000  0.4657840000000  0.4036440000000 1.0
C      1  0.5745740000000  0.5654470000000  0.4547250000000 1.0
C      1  0.5825600000000  0.5566110000000  0.5613560000000 1.0
C      1  0.4542080000000  0.4514400000000  0.4561960000000 1.0
C      1  0.5532140000000  0.5570600000000  0.4349570000000 1.0
C      1  0.5332210000000  0.5479500000000  0.4784900000000 1.0
C      1  0.4724810000000  0.5123700000000  0.4489000000000 1.0
C      1  0.5269760000000  0.4974490000000  0.4854150000000 1.0
C      1  0.4474340000000  0.5261850000000  0.4421820000000 1.0
C      1  0.3974250000000  0.4762030000000  0.4774030000000 1.0
C      1  0.5715920000000  0.5345370000000  0.5779640000000 1.0
C      1  0.4362220000000  0.5244510000000  0.5822370000000 1.0
C      1  0.4625880000000  0.5017450000000  0.5254050000000 1.0
C      1  0.4756430000000  0.5691440000000  0.4275630000000 1.0
C      1  0.4502700000000  0.5838960000000  0.4417920000000 1.0
C      1  0.5917870000000  0.4238560000000  0.4768390000000 1.0
C      1  0.4665600000000  0.5265660000000  0.3898410000000 1.0
C      1  0.5632530000000  0.4824440000000  0.5641640000000 1.0
C      1  0.4276390000000  0.4409740000000  0.4579720000000 1.0
C      1  0.4528470000000  0.4350590000000  0.4183640000000 1.0
C      1  0.5044870000000  0.5299790000000  0.6169510000000 1.0
C      1  0.5249800000000  0.4126800000000  0.5683760000000 1.0
C      1  0.5136880000000  0.4390510000000  0.4098860000000 1.0
C      1  0.4712710000000  0.4048590000000  0.4628980000000 1.0
C      1  0.4904310000000  0.5687060000000  0.4542020000000 1.0
C      1  0.4587310000000  0.5975340000000  0.4916170000000 1.0
C      1  0.4625140000000  0.4130700000000  0.4238140000000 1.0
C      1  0.5076990000000  0.5564180000000  0.6075730000000 1.0
C      1  0.4182700000000  0.5576900000000  0.5171620000000 1.0
C      1  0.5651090000000  0.5805010000000  0.5624940000000 1.0
C      1  0.4777100000000  0.3956800000000  0.5318510000000 1.0
C      1  0.5386630000000  0.4907190000000  0.6177740000000 1.0
C      1  0.4421210000000  0.4869000000000  0.4884910000000 1.0
C      1  0.5094780000000  0.4161630000000  0.4283880000000 1.0
C      1  0.4808530000000  0.4893750000000  0.4627230000000 1.0
C      1  0.5659230000000  0.4412380000000  0.5547880000000 1.0
C      1  0.4073530000000  0.5183110000000  0.5521850000000 1.0
C      1  0.4556880000000  0.4000980000000  0.5119560000000 1.0
C      1  0.4843630000000  0.4014380000000  0.4361390000000 1.0
C      1  0.4559430000000  0.4548770000000  0.5892540000000 1.0
C      1  0.5450860000000  0.6029590000000  0.4667600000000 1.0
C      1  0.5474840000000  0.5453540000000  0.5278370000000 1.0
C      1  0.4739980000000  0.4339980000000  0.4670240000000 1.0
C      1  0.5211510000000  0.5025140000000  0.5481420000000 1.0
C      1  0.5522770000000  0.4332760000000  0.4350710000000 1.0
C      1  0.5564000000000  0.4895140000000  0.5113670000000 1.0
C      1  0.5361520000000  0.4404120000000  0.4788210000000 1.0
C      1  0.4067430000000  0.5259630000000  0.4269140000000 1.0
C      1  0.4761850000000  0.4725270000000  0.5534890000000 1.0
C      1  0.3996180000000  0.5474420000000  0.4434870000000 1.0
C      1  0.5840920000000  0.4648330000000  0.5542760000000 1.0
C      1  0.5709180000000  0.5358810000000  0.5159230000000 1.0
C      1  0.5082560000000  0.5368850000000  0.4907830000000 1.0
C      1  0.5024840000000  0.4717230000000  0.4497650000000 1.0
C      1  0.4238740000000  0.5495580000000  0.4894660000000 1.0
C      1  0.4955800000000  0.4947180000000  0.5592800000000 1.0
C      1  0.5888770000000  0.4931410000000  0.4422590000000 1.0
C      1  0.5341040000000  0.5244530000000  0.4092590000000 1.0
C      1  0.4436960000000  0.5418040000000  0.5590930000000 1.0
C      1  0.4195000000000  0.4582830000000  0.5506540000000 1.0
C      1  0.5702400000000  0.4085410000000  0.4893330000000 1.0
C      1  0.4469110000000  0.5705010000000  0.5598360000000 1.0
C      1  0.5031900000000  0.3859980000000  0.4990270000000 1.0
C      1  0.5625420000000  0.5315530000000  0.4845490000000 1.0
C      1  0.4994060000000  0.5025930000000  0.4892460000000 1.0
C      1  0.4896750000000  0.5253120000000  0.4332530000000 1.0
C      1  0.5918170000000  0.5596330000000  0.5137030000000 1.0
C      1  0.5549910000000  0.5014820000000  0.4856840000000 1.0
C      1  0.5011630000000  0.4161950000000  0.5027850000000 1.0
C      1  0.5749070000000  0.5794270000000  0.5024120000000 1.0
C      1  0.4659880000000  0.5276940000000  0.5440830000000 1.0
C      1  0.4851710000000  0.4372140000000  0.4926270000000 1.0
C      1  0.5503800000000  0.4767540000000  0.4486080000000 1.0
C      1  0.5804690000000  0.5210380000000  0.4389830000000 1.0
C      1  0.4127410000000  0.4883480000000  0.5232130000000 1.0
C      1  0.5187030000000  0.5978830000000  0.4804410000000 1.0
C      1  0.5405170000000  0.4110880000000  0.4733720000000 1.0
C      1  0.4742010000000  0.4745770000000  0.4030860000000 1.0
C      1  0.5350460000000  0.4122280000000  0.4418200000000 1.0
C      1  0.4179050000000  0.5037650000000  0.5736070000000 1.0
C      1  0.6010420000000  0.5491820000000  0.5391820000000 1.0
C      1  0.3990010000000  0.4638940000000  0.5297270000000 1.0
C      1  0.5359610000000  0.5609800000000  0.5994750000000 1.0
C      1  0.6113000000000  0.4935260000000  0.4892140000000 1.0
C      1  0.5463620000000  0.5908260000000  0.5420860000000 1.0
C      1  0.3932360000000  0.5281480000000  0.4642530000000 1.0
C      1  0.5419130000000  0.4339020000000  0.5684870000000 1.0
C      1  0.4795480000000  0.5168980000000  0.5686190000000 1.0
C      1  0.3957340000000  0.4575720000000  0.4999960000000 1.0
C      1  0.5839350000000  0.4541640000000  0.4795640000000 1.0
C      1  0.5464630000000  0.5727310000000  0.5167190000000 1.0
C      1  0.5272580000000  0.5849580000000  0.4190350000000 1.0
C      1  0.4280510000000  0.4723730000000  0.5760050000000 1.0
C      1  0.4110740000000  0.4327740000000  0.4982460000000 1.0
C      1  0.6122210000000  0.4942710000000  0.5192410000000 1.0
C      1  0.4671350000000  0.5487000000000  0.6131820000000 1.0
C      1  0.4118120000000  0.4652390000000  0.4539300000000 1.0
C      1  0.5047390000000  0.3849770000000  0.5299140000000 1.0
C      1  0.5508640000000  0.5368060000000  0.5982100000000 1.0
END
