TITL C-4164239-2837-310 43.0811373230783 125000 -17227.5356213365 0 0 116 (C1) n - 1
REM
REM in /home/nfs/bkarasulu/CARBON/AIRSS/Generating-Clusters/ReaxFF-fromJPCA2015/Units_Real/with-SteepDescent/Only-C1/SD-CG/Try1-3A/FIRE-CG
REM
REM
REM
REM
REM
REM ./C.cell (11c1c37f851c82e70ff6c80c92926a4b)
REM
REM compiler GCC version 9.2.1 20190827 (Red Hat 9.2.1-1)
REM options -cpp -mtune=generic -march=x86-64 -g -O0 -fpre-include=/usr/include/finclude/math-vector-fortran.h
REM seed 1237666954 -1476442913 2141789388 789309909 -163274266 -613936338 -660635000 -1229407929 -1341003951 11975439 -1285936612 1191768930 1907200910 -771827508 -1184204518 1659424037 1075640840 1593323906 1836460408 1535998808 -1870729418 920143412 -492708948 454988316 588331426 -1094297034 845372133 -1395670559 -862589487 -1219108436 287459377 1394314540 859147081
REM
CELL 1.54180   50.00000   50.00000   50.00000   90.00000   90.00000   90.00000
LATT -1
SFAC C  
C      1  0.4763430000000  0.4865810000000  0.4475270000000 1.0
C      1  0.5692460000000  0.5614070000000  0.5272090000000 1.0
C      1  0.5470800000000  0.5454610000000  0.4449800000000 1.0
C      1  0.5526030000000  0.4182850000000  0.5115940000000 1.0
C      1  0.4426430000000  0.4707350000000  0.4352980000000 1.0
C      1  0.5781220000000  0.4736810000000  0.4740610000000 1.0
C      1  0.5240040000000  0.4129170000000  0.5154740000000 1.0
C      1  0.4391670000000  0.4870890000000  0.5471610000000 1.0
C      1  0.5597640000000  0.4247890000000  0.4589010000000 1.0
C      1  0.5076880000000  0.4968570000000  0.4221650000000 1.0
C      1  0.4738940000000  0.4587920000000  0.5140110000000 1.0
C      1  0.4973360000000  0.4032400000000  0.5064410000000 1.0
C      1  0.4510190000000  0.4784610000000  0.5735920000000 1.0
C      1  0.4802970000000  0.4373560000000  0.5362080000000 1.0
C      1  0.4458240000000  0.5494210000000  0.4407860000000 1.0
C      1  0.4240070000000  0.5176180000000  0.5788790000000 1.0
C      1  0.5661870000000  0.4266990000000  0.4862950000000 1.0
C      1  0.4578150000000  0.5094180000000  0.4739040000000 1.0
C      1  0.4891060000000  0.4463700000000  0.4255110000000 1.0
C      1  0.4172300000000  0.5077390000000  0.5526740000000 1.0
C      1  0.4955130000000  0.5757990000000  0.5102530000000 1.0
C      1  0.4354230000000  0.4765150000000  0.4633970000000 1.0
C      1  0.5198090000000  0.4492940000000  0.5689790000000 1.0
C      1  0.5038210000000  0.4493420000000  0.4022500000000 1.0
C      1  0.4934240000000  0.4024330000000  0.4767880000000 1.0
C      1  0.5395370000000  0.5648990000000  0.4885900000000 1.0
C      1  0.5164780000000  0.4462490000000  0.4412330000000 1.0
C      1  0.4108400000000  0.5343380000000  0.4819860000000 1.0
C      1  0.4672210000000  0.5606180000000  0.4235330000000 1.0
C      1  0.4392150000000  0.5787390000000  0.5017040000000 1.0
C      1  0.4730400000000  0.4141020000000  0.5202920000000 1.0
C      1  0.4823160000000  0.5031740000000  0.4082320000000 1.0
C      1  0.4734120000000  0.5233140000000  0.4944870000000 1.0
C      1  0.4447640000000  0.5726990000000  0.5299510000000 1.0
C      1  0.5501560000000  0.5798470000000  0.5125940000000 1.0
C      1  0.5352480000000  0.4938300000000  0.5568990000000 1.0
C      1  0.6000480000000  0.5025500000000  0.5115110000000 1.0
C      1  0.4941870000000  0.5032880000000  0.5021110000000 1.0
C      1  0.4918940000000  0.4466210000000  0.5609700000000 1.0
C      1  0.4905120000000  0.4821130000000  0.5179740000000 1.0
C      1  0.4457250000000  0.4187940000000  0.5084980000000 1.0
C      1  0.4589280000000  0.4465680000000  0.4355220000000 1.0
C      1  0.5893590000000  0.5202800000000  0.4645110000000 1.0
C      1  0.4224330000000  0.5624510000000  0.4832140000000 1.0
C      1  0.4290160000000  0.4387370000000  0.5226780000000 1.0
C      1  0.4390850000000  0.5698480000000  0.4606480000000 1.0
C      1  0.5855980000000  0.4957290000000  0.5577290000000 1.0
C      1  0.5544420000000  0.4741120000000  0.4559940000000 1.0
C      1  0.4571860000000  0.5254990000000  0.5215080000000 1.0
C      1  0.5235180000000  0.4770600000000  0.5779790000000 1.0
C      1  0.4589100000000  0.5836590000000  0.4796590000000 1.0
C      1  0.5528300000000  0.5652770000000  0.5523220000000 1.0
C      1  0.4851290000000  0.4938550000000  0.5414900000000 1.0
C      1  0.5109290000000  0.5448660000000  0.4121000000000 1.0
C      1  0.5006990000000  0.5361790000000  0.4774350000000 1.0
C      1  0.5357160000000  0.5324260000000  0.4215210000000 1.0
C      1  0.4775230000000  0.5641970000000  0.5704390000000 1.0
C      1  0.5799120000000  0.4570000000000  0.5222900000000 1.0
C      1  0.4674650000000  0.5801010000000  0.5476000000000 1.0
C      1  0.4997410000000  0.4910930000000  0.5869780000000 1.0
C      1  0.5139230000000  0.4606350000000  0.4881750000000 1.0
C      1  0.4154840000000  0.4915450000000  0.4791150000000 1.0
C      1  0.5595590000000  0.5255880000000  0.4635600000000 1.0
C      1  0.4442400000000  0.5195210000000  0.4489130000000 1.0
C      1  0.5238450000000  0.5248020000000  0.5648420000000 1.0
C      1  0.5790520000000  0.4521440000000  0.4936000000000 1.0
C      1  0.4418760000000  0.4652720000000  0.5194120000000 1.0
C      1  0.5260260000000  0.4638020000000  0.5147950000000 1.0
C      1  0.4990710000000  0.5194250000000  0.5841950000000 1.0
C      1  0.4102270000000  0.5133780000000  0.5016900000000 1.0
C      1  0.4581580000000  0.4962140000000  0.4274720000000 1.0
C      1  0.5213230000000  0.5436120000000  0.4965040000000 1.0
C      1  0.4160740000000  0.5142810000000  0.4608070000000 1.0
C      1  0.4379260000000  0.5444230000000  0.5317210000000 1.0
C      1  0.5357010000000  0.4522860000000  0.4194710000000 1.0
C      1  0.5360160000000  0.5030540000000  0.4173640000000 1.0
C      1  0.4848960000000  0.4543900000000  0.4852170000000 1.0
C      1  0.5901280000000  0.4831520000000  0.5317930000000 1.0
C      1  0.4754750000000  0.5370610000000  0.5826110000000 1.0
C      1  0.4602410000000  0.5048750000000  0.5387670000000 1.0
C      1  0.5364820000000  0.4882240000000  0.5261700000000 1.0
C      1  0.4905530000000  0.5283600000000  0.3960950000000 1.0
C      1  0.4872950000000  0.5800580000000  0.4823960000000 1.0
C      1  0.5630460000000  0.4355140000000  0.5333540000000 1.0
C      1  0.5108080000000  0.5449880000000  0.5471690000000 1.0
C      1  0.4956520000000  0.5869550000000  0.5377960000000 1.0
C      1  0.4961530000000  0.5622600000000  0.4301480000000 1.0
C      1  0.5508080000000  0.5395090000000  0.5676220000000 1.0
C      1  0.4808920000000  0.4286460000000  0.4688480000000 1.0
C      1  0.5416300000000  0.5104060000000  0.4813590000000 1.0
C      1  0.5612550000000  0.4935010000000  0.5726460000000 1.0
C      1  0.4245570000000  0.4538820000000  0.4972490000000 1.0
C      1  0.5721650000000  0.5207150000000  0.5706350000000 1.0
C      1  0.5663330000000  0.5326160000000  0.5190890000000 1.0
C      1  0.5944660000000  0.4968100000000  0.4819970000000 1.0
C      1  0.5463750000000  0.5087820000000  0.5093400000000 1.0
C      1  0.5052730000000  0.5703810000000  0.5619620000000 1.0
C      1  0.5225690000000  0.4384670000000  0.5297410000000 1.0
C      1  0.4419700000000  0.4980200000000  0.5924300000000 1.0
C      1  0.5900520000000  0.5278740000000  0.5185030000000 1.0
C      1  0.5408060000000  0.4363650000000  0.5527480000000 1.0
C      1  0.4366000000000  0.4303380000000  0.4825860000000 1.0
C      1  0.5048500000000  0.5493110000000  0.5196620000000 1.0
C      1  0.5340220000000  0.5666000000000  0.4602110000000 1.0
C      1  0.4802580000000  0.4745330000000  0.5691780000000 1.0
C      1  0.5535270000000  0.4278550000000  0.4317580000000 1.0
C      1  0.5037260000000  0.5650510000000  0.4599950000000 1.0
C      1  0.4534660000000  0.4290910000000  0.4580080000000 1.0
C      1  0.4493860000000  0.5264330000000  0.5915610000000 1.0
C      1  0.5489320000000  0.4786610000000  0.4275100000000 1.0
C      1  0.4640650000000  0.4806830000000  0.4718620000000 1.0
C      1  0.4158000000000  0.5243940000000  0.5288060000000 1.0
C      1  0.5342920000000  0.5815590000000  0.5366950000000 1.0
C      1  0.5115740000000  0.5075910000000  0.4748070000000 1.0
C      1  0.5015460000000  0.4953510000000  0.4496930000000 1.0
C      1  0.5292000000000  0.4603400000000  0.4638310000000 1.0
END
