TITL C-4164243-3780-486 7.76496328895613 125000 -26698.9525923574 0 0 178 (C1) n - 1
REM
REM in /home/nfs/bkarasulu/CARBON/AIRSS/Generating-Clusters/ReaxFF-fromJPCA2015/Units_Real/with-SteepDescent/Only-C1/SD-CG/Try1-3A/FIRE-CG
REM
REM
REM
REM
REM
REM ./C.cell (11c1c37f851c82e70ff6c80c92926a4b)
REM
REM compiler GCC version 9.2.1 20190827 (Red Hat 9.2.1-1)
REM options -cpp -mtune=generic -march=x86-64 -g -O0 -fpre-include=/usr/include/finclude/math-vector-fortran.h
REM seed -2067110768 -1811913298 1684742642 -1185726651 -69055398 -1618336107 -1765251202 -121626015 1716285210 331880765 -290710535 -847041172 -195681871 1109503540 -494370600 -1054398608 2101382042 1030018484 2128334928 2052890249 -1511826404 1997691589 -980313362 -615683234 552406815 -1160321724 1754882055 -1167819649 787760643 2071942663 480242407 133200532 888815321
REM
CELL 1.54180   50.00000   50.00000   50.00000   90.00000   90.00000   90.00000
LATT -1
SFAC C  
C      1  0.4891680000000  0.5486970000000  0.4079730000000 1.0
C      1  0.4977230000000  0.3880950000000  0.4951310000000 1.0
C      1  0.4090950000000  0.4698140000000  0.5420570000000 1.0
C      1  0.4232370000000  0.4950820000000  0.5864900000000 1.0
C      1  0.5078880000000  0.5600170000000  0.5242680000000 1.0
C      1  0.4827280000000  0.4512470000000  0.5471190000000 1.0
C      1  0.5453160000000  0.3980290000000  0.4789750000000 1.0
C      1  0.4412500000000  0.5763190000000  0.4603760000000 1.0
C      1  0.4633270000000  0.5448100000000  0.5031120000000 1.0
C      1  0.4068940000000  0.4750950000000  0.5708190000000 1.0
C      1  0.4352600000000  0.5880250000000  0.4860730000000 1.0
C      1  0.5601250000000  0.4646390000000  0.4244990000000 1.0
C      1  0.5111330000000  0.5741660000000  0.5813390000000 1.0
C      1  0.5108010000000  0.4958550000000  0.4790570000000 1.0
C      1  0.4479500000000  0.4844530000000  0.5993860000000 1.0
C      1  0.5443070000000  0.5047690000000  0.4076560000000 1.0
C      1  0.5843210000000  0.5378580000000  0.5549270000000 1.0
C      1  0.5141220000000  0.4967850000000  0.4501490000000 1.0
C      1  0.5175670000000  0.5077420000000  0.5816880000000 1.0
C      1  0.4412610000000  0.5066550000000  0.5139380000000 1.0
C      1  0.5308860000000  0.4834000000000  0.5910310000000 1.0
C      1  0.5903970000000  0.5128570000000  0.5678350000000 1.0
C      1  0.4462040000000  0.5005370000000  0.4624920000000 1.0
C      1  0.5096710000000  0.5920210000000  0.5589000000000 1.0
C      1  0.5379610000000  0.5381390000000  0.4747240000000 1.0
C      1  0.5041760000000  0.5064410000000  0.3904410000000 1.0
C      1  0.3965710000000  0.4438260000000  0.4965080000000 1.0
C      1  0.5479810000000  0.5318770000000  0.4484730000000 1.0
C      1  0.4919570000000  0.4546340000000  0.5940990000000 1.0
C      1  0.6016560000000  0.5217470000000  0.5121640000000 1.0
C      1  0.5231450000000  0.6018500000000  0.4691350000000 1.0
C      1  0.5234360000000  0.4315580000000  0.4078550000000 1.0
C      1  0.4711260000000  0.3914400000000  0.4833420000000 1.0
C      1  0.4726530000000  0.5054370000000  0.4635100000000 1.0
C      1  0.5125040000000  0.5163070000000  0.6099580000000 1.0
C      1  0.5095140000000  0.5469200000000  0.4723610000000 1.0
C      1  0.4961790000000  0.4935210000000  0.6190050000000 1.0
C      1  0.4830560000000  0.5215220000000  0.4026030000000 1.0
C      1  0.4921730000000  0.4080590000000  0.4411310000000 1.0
C      1  0.4212340000000  0.5791410000000  0.5326290000000 1.0
C      1  0.5338450000000  0.4776140000000  0.5457740000000 1.0
C      1  0.5185380000000  0.3925080000000  0.4763790000000 1.0
C      1  0.4106260000000  0.5458280000000  0.5019790000000 1.0
C      1  0.4558950000000  0.5584260000000  0.5893190000000 1.0
C      1  0.4260600000000  0.4697080000000  0.4292280000000 1.0
C      1  0.5011550000000  0.5628730000000  0.4948810000000 1.0
C      1  0.4722160000000  0.5694110000000  0.4930400000000 1.0
C      1  0.4593890000000  0.5053970000000  0.4033260000000 1.0
C      1  0.5639660000000  0.5730580000000  0.4659740000000 1.0
C      1  0.6002040000000  0.5274040000000  0.4443910000000 1.0
C      1  0.3876770000000  0.5167900000000  0.4750060000000 1.0
C      1  0.5695750000000  0.5044640000000  0.4845260000000 1.0
C      1  0.5514070000000  0.4599460000000  0.4668260000000 1.0
C      1  0.5545360000000  0.4135300000000  0.4531400000000 1.0
C      1  0.4707080000000  0.4740990000000  0.5058020000000 1.0
C      1  0.6029790000000  0.4643690000000  0.4586840000000 1.0
C      1  0.5218520000000  0.4601600000000  0.3966560000000 1.0
C      1  0.4426930000000  0.4782670000000  0.5079210000000 1.0
C      1  0.5126510000000  0.4143250000000  0.4608880000000 1.0
C      1  0.4904990000000  0.5907580000000  0.4471760000000 1.0
C      1  0.5679650000000  0.5133110000000  0.5863120000000 1.0
C      1  0.5660240000000  0.4620030000000  0.5686850000000 1.0
C      1  0.5489250000000  0.4079100000000  0.5062370000000 1.0
C      1  0.4200150000000  0.5210200000000  0.5727110000000 1.0
C      1  0.5692380000000  0.4361590000000  0.5303220000000 1.0
C      1  0.4927900000000  0.4624000000000  0.4597120000000 1.0
C      1  0.6033160000000  0.4917260000000  0.5515750000000 1.0
C      1  0.5171310000000  0.5891150000000  0.4427030000000 1.0
C      1  0.5091600000000  0.4863490000000  0.5265280000000 1.0
C      1  0.5888790000000  0.4360250000000  0.4864410000000 1.0
C      1  0.5277180000000  0.4254470000000  0.5515780000000 1.0
C      1  0.5264900000000  0.5238890000000  0.3956560000000 1.0
C      1  0.4285500000000  0.5250600000000  0.4973460000000 1.0
C      1  0.5624580000000  0.5514540000000  0.4852230000000 1.0
C      1  0.5384180000000  0.5082170000000  0.4365730000000 1.0
C      1  0.5858180000000  0.4540570000000  0.5478750000000 1.0
C      1  0.4326830000000  0.4553710000000  0.5299940000000 1.0
C      1  0.5180860000000  0.5504180000000  0.4082840000000 1.0
C      1  0.4859690000000  0.5958380000000  0.5409160000000 1.0
C      1  0.4695800000000  0.4789330000000  0.4004180000000 1.0
C      1  0.4154920000000  0.5571480000000  0.5521740000000 1.0
C      1  0.5637290000000  0.5505910000000  0.5171400000000 1.0
C      1  0.4586180000000  0.5988300000000  0.5047250000000 1.0
C      1  0.4888230000000  0.4673090000000  0.5256440000000 1.0
C      1  0.5597730000000  0.4852140000000  0.5868390000000 1.0
C      1  0.4168850000000  0.4961130000000  0.4302990000000 1.0
C      1  0.4944910000000  0.4314040000000  0.4214100000000 1.0
C      1  0.4789960000000  0.4699310000000  0.5715620000000 1.0
C      1  0.3941540000000  0.5010340000000  0.4528330000000 1.0
C      1  0.4569440000000  0.4349600000000  0.5732760000000 1.0
C      1  0.5569050000000  0.5455860000000  0.5607440000000 1.0
C      1  0.5392840000000  0.4530550000000  0.5594800000000 1.0
C      1  0.4859080000000  0.5553550000000  0.5892360000000 1.0
C      1  0.4725780000000  0.4996580000000  0.6030270000000 1.0
C      1  0.6017930000000  0.4710730000000  0.5299920000000 1.0
C      1  0.5076330000000  0.5445460000000  0.6101940000000 1.0
C      1  0.4429820000000  0.4729850000000  0.4727090000000 1.0
C      1  0.5512550000000  0.5974620000000  0.4756620000000 1.0
C      1  0.4904780000000  0.5391190000000  0.4513380000000 1.0
C      1  0.4709890000000  0.5545380000000  0.4301520000000 1.0
C      1  0.4863180000000  0.6080820000000  0.5131900000000 1.0
C      1  0.4702280000000  0.4090230000000  0.5278890000000 1.0
C      1  0.6028740000000  0.4624830000000  0.4897020000000 1.0
C      1  0.4648750000000  0.5824710000000  0.4432120000000 1.0
C      1  0.5873050000000  0.5433960000000  0.4277850000000 1.0
C      1  0.4506940000000  0.4631450000000  0.5794790000000 1.0
C      1  0.5369080000000  0.4594390000000  0.4405200000000 1.0
C      1  0.4844590000000  0.4286530000000  0.5825440000000 1.0
C      1  0.4998960000000  0.4259120000000  0.5579400000000 1.0
C      1  0.5536490000000  0.4560800000000  0.5156140000000 1.0
C      1  0.4812000000000  0.5670070000000  0.5361920000000 1.0
C      1  0.4326210000000  0.5245290000000  0.4703990000000 1.0
C      1  0.5475080000000  0.5269650000000  0.5239190000000 1.0
C      1  0.4446700000000  0.5970650000000  0.5328610000000 1.0
C      1  0.4570340000000  0.4343340000000  0.5438690000000 1.0
C      1  0.5565350000000  0.4818010000000  0.5280550000000 1.0
C      1  0.4361460000000  0.5151030000000  0.4181360000000 1.0
C      1  0.4163420000000  0.4591990000000  0.4580000000000 1.0
C      1  0.5353500000000  0.4583550000000  0.4928360000000 1.0
C      1  0.4312330000000  0.5494350000000  0.5772980000000 1.0
C      1  0.4957750000000  0.5123080000000  0.5245210000000 1.0
C      1  0.3878450000000  0.4718470000000  0.4969000000000 1.0
C      1  0.3861170000000  0.5295050000000  0.5006760000000 1.0
C      1  0.4641870000000  0.4568230000000  0.4594380000000 1.0
C      1  0.4427070000000  0.5411450000000  0.4285030000000 1.0
C      1  0.5261600000000  0.4853800000000  0.4995290000000 1.0
C      1  0.4986800000000  0.4780600000000  0.3934680000000 1.0
C      1  0.3917810000000  0.5147400000000  0.5262110000000 1.0
C      1  0.4900030000000  0.5119800000000  0.4412700000000 1.0
C      1  0.5563850000000  0.5753910000000  0.5386290000000 1.0
C      1  0.3927320000000  0.4765880000000  0.4683280000000 1.0
C      1  0.4163290000000  0.5742200000000  0.5034830000000 1.0
C      1  0.5936600000000  0.4975330000000  0.5255300000000 1.0
C      1  0.4319060000000  0.5491150000000  0.4535430000000 1.0
C      1  0.4839510000000  0.4968100000000  0.4881000000000 1.0
C      1  0.5273370000000  0.5854960000000  0.5352030000000 1.0
C      1  0.5587360000000  0.5594520000000  0.4384060000000 1.0
C      1  0.5323610000000  0.5679880000000  0.4260340000000 1.0
C      1  0.5410290000000  0.4196570000000  0.4275550000000 1.0
C      1  0.5087260000000  0.6109630000000  0.4946800000000 1.0
C      1  0.4981890000000  0.4008310000000  0.5211850000000 1.0
C      1  0.4875720000000  0.5037660000000  0.5769990000000 1.0
C      1  0.5458300000000  0.4759280000000  0.4013650000000 1.0
C      1  0.4848950000000  0.5327100000000  0.5645610000000 1.0
C      1  0.4644240000000  0.4368810000000  0.4209780000000 1.0
C      1  0.5359910000000  0.5261490000000  0.5499430000000 1.0
C      1  0.4682880000000  0.4040240000000  0.4567320000000 1.0
C      1  0.4663450000000  0.5435510000000  0.5450410000000 1.0
C      1  0.5558180000000  0.6078730000000  0.5034560000000 1.0
C      1  0.3930190000000  0.4864870000000  0.5220320000000 1.0
C      1  0.5299560000000  0.5549740000000  0.5948950000000 1.0
C      1  0.4568280000000  0.4304000000000  0.4484010000000 1.0
C      1  0.4605390000000  0.4413550000000  0.4998200000000 1.0
C      1  0.5107830000000  0.4412580000000  0.4757980000000 1.0
C      1  0.4874470000000  0.4336910000000  0.4938180000000 1.0
C      1  0.5504720000000  0.5031910000000  0.5072100000000 1.0
C      1  0.5290730000000  0.6093540000000  0.5147630000000 1.0
C      1  0.5912600000000  0.5431560000000  0.5277960000000 1.0
C      1  0.4345300000000  0.4241700000000  0.4947740000000 1.0
C      1  0.5704930000000  0.4347600000000  0.4639680000000 1.0
C      1  0.5730790000000  0.5962350000000  0.5256110000000 1.0
C      1  0.5253620000000  0.4110870000000  0.5263450000000 1.0
C      1  0.4544230000000  0.4003170000000  0.5054250000000 1.0
C      1  0.5536590000000  0.5394300000000  0.5875080000000 1.0
C      1  0.5756910000000  0.4189840000000  0.5077940000000 1.0
C      1  0.5668810000000  0.4860390000000  0.4643490000000 1.0
C      1  0.4507300000000  0.4610730000000  0.4141120000000 1.0
C      1  0.6093480000000  0.5134920000000  0.4665400000000 1.0
C      1  0.6153930000000  0.4845870000000  0.4740930000000 1.0
C      1  0.4163380000000  0.4351020000000  0.5162220000000 1.0
C      1  0.4662230000000  0.5201370000000  0.5236820000000 1.0
C      1  0.5086930000000  0.4570910000000  0.4366280000000 1.0
C      1  0.4055510000000  0.5295630000000  0.5487210000000 1.0
C      1  0.5906230000000  0.5234630000000  0.4860810000000 1.0
C      1  0.5086130000000  0.5315850000000  0.5407240000000 1.0
C      1  0.5112310000000  0.4700640000000  0.6091170000000 1.0
C      1  0.4132720000000  0.4346390000000  0.4747550000000 1.0
C      1  0.5815350000000  0.4761840000000  0.4416380000000 1.0
END
