TITL C-4164244-2836-473 26.9199562776789 125000 -27611.7603955762 0 0 184 (C1) n - 1
REM
REM in /home/nfs/bkarasulu/CARBON/AIRSS/Generating-Clusters/ReaxFF-fromJPCA2015/Units_Real/with-SteepDescent/Only-C1/SD-CG/Try1-3A/FIRE-CG
REM
REM
REM
REM
REM
REM ./C.cell (11c1c37f851c82e70ff6c80c92926a4b)
REM
REM compiler GCC version 9.2.1 20190827 (Red Hat 9.2.1-1)
REM options -cpp -mtune=generic -march=x86-64 -g -O0 -fpre-include=/usr/include/finclude/math-vector-fortran.h
REM seed -1465040754 1423345191 -1290565716 2089300229 -1775121351 -459357032 681048543 -524609092 1430193500 -1986875405 -532185899 -1908758562 -2038984684 1459425103 560945209 -642597353 1970208968 1865926797 557328347 -772603103 -2050807228 -2112278416 816976818 -1078332136 2031177224 555825129 1926071781 -1305253580 -1810742359 -395931669 1391747314 461132840 2111780461
REM
CELL 1.54180   50.00000   50.00000   50.00000   90.00000   90.00000   90.00000
LATT -1
SFAC C  
C      1  0.4921740000000  0.5649690000000  0.4935180000000 1.0
C      1  0.5823130000000  0.5686420000000  0.4649630000000 1.0
C      1  0.4413150000000  0.5109640000000  0.5257380000000 1.0
C      1  0.4086300000000  0.5528170000000  0.4366660000000 1.0
C      1  0.5578730000000  0.4217190000000  0.5541160000000 1.0
C      1  0.5084570000000  0.4586510000000  0.6005180000000 1.0
C      1  0.3972710000000  0.5276270000000  0.5517680000000 1.0
C      1  0.4515030000000  0.5394900000000  0.5212290000000 1.0
C      1  0.4649060000000  0.4102880000000  0.4493500000000 1.0
C      1  0.5890750000000  0.4528210000000  0.4672250000000 1.0
C      1  0.4914590000000  0.5062840000000  0.6152560000000 1.0
C      1  0.5067130000000  0.6057020000000  0.5737170000000 1.0
C      1  0.4614110000000  0.4015310000000  0.5286390000000 1.0
C      1  0.4506190000000  0.4641270000000  0.5324200000000 1.0
C      1  0.4399900000000  0.5388520000000  0.5655130000000 1.0
C      1  0.4735280000000  0.5610880000000  0.4098660000000 1.0
C      1  0.4811350000000  0.6073240000000  0.4830640000000 1.0
C      1  0.5663240000000  0.4937640000000  0.4548200000000 1.0
C      1  0.4009620000000  0.4873090000000  0.4335000000000 1.0
C      1  0.6195460000000  0.5029780000000  0.4812370000000 1.0
C      1  0.5016700000000  0.5524020000000  0.4049100000000 1.0
C      1  0.5625160000000  0.3997590000000  0.4596700000000 1.0
C      1  0.5089740000000  0.4838370000000  0.5495290000000 1.0
C      1  0.4576170000000  0.4813840000000  0.5938100000000 1.0
C      1  0.5992850000000  0.4400610000000  0.4923240000000 1.0
C      1  0.4516700000000  0.5349780000000  0.5927880000000 1.0
C      1  0.5713570000000  0.5119890000000  0.5220000000000 1.0
C      1  0.5100080000000  0.5001830000000  0.4069850000000 1.0
C      1  0.5276160000000  0.4395470000000  0.5890940000000 1.0
C      1  0.5426880000000  0.4233800000000  0.4069780000000 1.0
C      1  0.5002000000000  0.5295500000000  0.6045730000000 1.0
C      1  0.4613430000000  0.4540260000000  0.4150940000000 1.0
C      1  0.4730370000000  0.5525850000000  0.5091810000000 1.0
C      1  0.4539910000000  0.4930530000000  0.4472680000000 1.0
C      1  0.3993170000000  0.5583290000000  0.4630230000000 1.0
C      1  0.4844810000000  0.4138650000000  0.5454420000000 1.0
C      1  0.5114050000000  0.4458500000000  0.3905390000000 1.0
C      1  0.4614730000000  0.4412050000000  0.5834280000000 1.0
C      1  0.5173020000000  0.5954770000000  0.4445140000000 1.0
C      1  0.4850280000000  0.5074020000000  0.5048420000000 1.0
C      1  0.5552750000000  0.5240670000000  0.5921520000000 1.0
C      1  0.4225070000000  0.4994240000000  0.5065040000000 1.0
C      1  0.4673310000000  0.4850490000000  0.5016300000000 1.0
C      1  0.4717440000000  0.4571730000000  0.5108470000000 1.0
C      1  0.4550450000000  0.5201320000000  0.4559400000000 1.0
C      1  0.5221520000000  0.4845250000000  0.4934680000000 1.0
C      1  0.5085830000000  0.5434980000000  0.5607330000000 1.0
C      1  0.4476150000000  0.5872680000000  0.4458630000000 1.0
C      1  0.4058540000000  0.5821360000000  0.5085120000000 1.0
C      1  0.5379380000000  0.5777980000000  0.4358650000000 1.0
C      1  0.4535030000000  0.6057040000000  0.4892900000000 1.0
C      1  0.5076320000000  0.5127300000000  0.5219060000000 1.0
C      1  0.5623780000000  0.5199450000000  0.4108360000000 1.0
C      1  0.3865410000000  0.4582830000000  0.5043070000000 1.0
C      1  0.4815780000000  0.4966130000000  0.4092170000000 1.0
C      1  0.5759720000000  0.4070880000000  0.4805970000000 1.0
C      1  0.5526200000000  0.5761620000000  0.5810010000000 1.0
C      1  0.5320260000000  0.5404170000000  0.4897930000000 1.0
C      1  0.4678750000000  0.4161800000000  0.5728890000000 1.0
C      1  0.4987080000000  0.5161160000000  0.4592600000000 1.0
C      1  0.5056830000000  0.4560960000000  0.3681980000000 1.0
C      1  0.6070440000000  0.4789920000000  0.5538860000000 1.0
C      1  0.5401710000000  0.5281560000000  0.4658670000000 1.0
C      1  0.6128370000000  0.4970140000000  0.4540040000000 1.0
C      1  0.4822600000000  0.4608240000000  0.5818370000000 1.0
C      1  0.5348020000000  0.3671060000000  0.5029440000000 1.0
C      1  0.4798170000000  0.4188330000000  0.4272810000000 1.0
C      1  0.4051390000000  0.4744060000000  0.5787100000000 1.0
C      1  0.5248600000000  0.4921020000000  0.4311130000000 1.0
C      1  0.4931770000000  0.4417000000000  0.5313340000000 1.0
C      1  0.5361960000000  0.5005910000000  0.5951820000000 1.0
C      1  0.4884560000000  0.5908980000000  0.4545700000000 1.0
C      1  0.6015160000000  0.4798700000000  0.5249010000000 1.0
C      1  0.5515980000000  0.4624620000000  0.5305860000000 1.0
C      1  0.4886080000000  0.4624960000000  0.4575440000000 1.0
C      1  0.5193840000000  0.5800380000000  0.4935920000000 1.0
C      1  0.5723850000000  0.5575010000000  0.5076790000000 1.0
C      1  0.5113240000000  0.4014980000000  0.5546940000000 1.0
C      1  0.4831730000000  0.4992900000000  0.5524550000000 1.0
C      1  0.5173760000000  0.4578670000000  0.4532870000000 1.0
C      1  0.4197390000000  0.4643520000000  0.4415360000000 1.0
C      1  0.4498590000000  0.6033440000000  0.5176800000000 1.0
C      1  0.5609860000000  0.4149160000000  0.5248770000000 1.0
C      1  0.5142240000000  0.4342200000000  0.5102350000000 1.0
C      1  0.4821260000000  0.5997650000000  0.5588220000000 1.0
C      1  0.4722440000000  0.4194000000000  0.4789620000000 1.0
C      1  0.5468570000000  0.3834560000000  0.5206540000000 1.0
C      1  0.5929810000000  0.4918120000000  0.5751690000000 1.0
C      1  0.4960900000000  0.4603070000000  0.5526910000000 1.0
C      1  0.5643700000000  0.5165970000000  0.4711860000000 1.0
C      1  0.4403950000000  0.4841700000000  0.4895230000000 1.0
C      1  0.4695970000000  0.5876350000000  0.5846010000000 1.0
C      1  0.5786240000000  0.5283940000000  0.4959270000000 1.0
C      1  0.4628920000000  0.5435820000000  0.5481890000000 1.0
C      1  0.5622480000000  0.4664630000000  0.4102720000000 1.0
C      1  0.6054000000000  0.5239270000000  0.4427590000000 1.0
C      1  0.5539890000000  0.4922270000000  0.4260770000000 1.0
C      1  0.4679040000000  0.5830850000000  0.4290750000000 1.0
C      1  0.5048350000000  0.4219290000000  0.4856820000000 1.0
C      1  0.5413010000000  0.5381220000000  0.4003130000000 1.0
C      1  0.4798920000000  0.5356440000000  0.4552250000000 1.0
C      1  0.5470250000000  0.4049410000000  0.4246810000000 1.0
C      1  0.4324510000000  0.4780370000000  0.5865690000000 1.0
C      1  0.4647160000000  0.5084430000000  0.6024420000000 1.0
C      1  0.4240740000000  0.5949110000000  0.5264930000000 1.0
C      1  0.4049550000000  0.5292410000000  0.4751800000000 1.0
C      1  0.5004050000000  0.5004370000000  0.4816590000000 1.0
C      1  0.4839980000000  0.5624890000000  0.4655580000000 1.0
C      1  0.4338430000000  0.5940850000000  0.4691620000000 1.0
C      1  0.3883330000000  0.4779200000000  0.5531460000000 1.0
C      1  0.5146430000000  0.4857880000000  0.6093900000000 1.0
C      1  0.4057560000000  0.4251760000000  0.4729650000000 1.0
C      1  0.5541880000000  0.5643920000000  0.4584100000000 1.0
C      1  0.4138500000000  0.5496150000000  0.5542270000000 1.0
C      1  0.5438660000000  0.5505220000000  0.5933970000000 1.0
C      1  0.5216080000000  0.5368720000000  0.5159310000000 1.0
C      1  0.4930090000000  0.5998240000000  0.6002940000000 1.0
C      1  0.4370300000000  0.4774520000000  0.4612640000000 1.0
C      1  0.5224730000000  0.5158370000000  0.4477790000000 1.0
C      1  0.6077280000000  0.5299020000000  0.4852290000000 1.0
C      1  0.6138550000000  0.4586800000000  0.5087650000000 1.0
C      1  0.4842380000000  0.4373510000000  0.4083820000000 1.0
C      1  0.5454300000000  0.4601570000000  0.5799970000000 1.0
C      1  0.5368750000000  0.4056850000000  0.4503880000000 1.0
C      1  0.4108420000000  0.5131260000000  0.4236650000000 1.0
C      1  0.5234620000000  0.3865240000000  0.5355900000000 1.0
C      1  0.4532060000000  0.4122660000000  0.5033400000000 1.0
C      1  0.5425020000000  0.4380730000000  0.5165600000000 1.0
C      1  0.3899740000000  0.5054860000000  0.5519010000000 1.0
C      1  0.4273170000000  0.4240740000000  0.5145430000000 1.0
C      1  0.5354780000000  0.4653850000000  0.4758850000000 1.0
C      1  0.4722640000000  0.4774100000000  0.4330550000000 1.0
C      1  0.3826180000000  0.4832880000000  0.4868460000000 1.0
C      1  0.5141840000000  0.5484190000000  0.5894330000000 1.0
C      1  0.6024530000000  0.5473760000000  0.4630750000000 1.0
C      1  0.6040130000000  0.4690080000000  0.4468350000000 1.0
C      1  0.4298370000000  0.5300270000000  0.4647910000000 1.0
C      1  0.5905300000000  0.4644350000000  0.5685680000000 1.0
C      1  0.5569290000000  0.6025510000000  0.4994310000000 1.0
C      1  0.5190850000000  0.4286200000000  0.4612180000000 1.0
C      1  0.5260290000000  0.4905540000000  0.5215530000000 1.0
C      1  0.3991150000000  0.4330790000000  0.4981290000000 1.0
C      1  0.4739290000000  0.4493400000000  0.4787110000000 1.0
C      1  0.5843440000000  0.5246710000000  0.4246140000000 1.0
C      1  0.4662030000000  0.5193090000000  0.4072060000000 1.0
C      1  0.5325700000000  0.4184640000000  0.5676010000000 1.0
C      1  0.5221490000000  0.5557230000000  0.5386830000000 1.0
C      1  0.5677850000000  0.5724720000000  0.5576490000000 1.0
C      1  0.5414080000000  0.5650310000000  0.4850080000000 1.0
C      1  0.4946980000000  0.6089800000000  0.5079480000000 1.0
C      1  0.5329650000000  0.4850840000000  0.5712500000000 1.0
C      1  0.4209540000000  0.5378280000000  0.4155980000000 1.0
C      1  0.4760220000000  0.6049210000000  0.5304050000000 1.0
C      1  0.5848890000000  0.4170910000000  0.5040170000000 1.0
C      1  0.5426490000000  0.4475120000000  0.3975250000000 1.0
C      1  0.5287620000000  0.6003650000000  0.5124770000000 1.0
C      1  0.6213110000000  0.4844770000000  0.5035930000000 1.0
C      1  0.4616270000000  0.5611160000000  0.5920320000000 1.0
C      1  0.4108660000000  0.5796430000000  0.4800400000000 1.0
C      1  0.4413720000000  0.4139180000000  0.5643770000000 1.0
C      1  0.5646160000000  0.4688470000000  0.4698220000000 1.0
C      1  0.5847360000000  0.4643270000000  0.4265160000000 1.0
C      1  0.4161510000000  0.4197530000000  0.4528020000000 1.0
C      1  0.3887090000000  0.4862790000000  0.4594590000000 1.0
C      1  0.5764380000000  0.5161370000000  0.5732620000000 1.0
C      1  0.5672590000000  0.4836830000000  0.5192560000000 1.0
C      1  0.4260680000000  0.4504260000000  0.5297350000000 1.0
C      1  0.4519670000000  0.5411420000000  0.4054840000000 1.0
C      1  0.5760780000000  0.5268090000000  0.5459450000000 1.0
C      1  0.4336420000000  0.4041600000000  0.5393900000000 1.0
C      1  0.5762340000000  0.5828160000000  0.4921670000000 1.0
C      1  0.5663280000000  0.4507590000000  0.5589010000000 1.0
C      1  0.4118160000000  0.5714810000000  0.5348120000000 1.0
C      1  0.5145240000000  0.5268590000000  0.3951900000000 1.0
C      1  0.4389690000000  0.4166710000000  0.4365900000000 1.0
C      1  0.5286940000000  0.5626730000000  0.4110360000000 1.0
C      1  0.4869440000000  0.5275140000000  0.5519780000000 1.0
C      1  0.3977230000000  0.4605150000000  0.5309840000000 1.0
C      1  0.5339620000000  0.5949180000000  0.5657170000000 1.0
C      1  0.3967290000000  0.5079520000000  0.4949410000000 1.0
C      1  0.5320370000000  0.5831700000000  0.5392010000000 1.0
C      1  0.4357000000000  0.4448580000000  0.4257310000000 1.0
C      1  0.4570600000000  0.4919210000000  0.5407570000000 1.0
C      1  0.5775050000000  0.5557250000000  0.5370190000000 1.0
END
