TITL C-4164244-2836-324 -2.57991650166151 125000 -12925.9617115251 0 0 88 (C1) n - 1
REM
REM in /home/nfs/bkarasulu/CARBON/AIRSS/Generating-Clusters/ReaxFF-fromJPCA2015/Units_Real/with-SteepDescent/Only-C1/SD-CG/Try1-3A/FIRE-CG
REM
REM
REM
REM
REM
REM ./C.cell (11c1c37f851c82e70ff6c80c92926a4b)
REM
REM compiler GCC version 9.2.1 20190827 (Red Hat 9.2.1-1)
REM options -cpp -mtune=generic -march=x86-64 -g -O0 -fpre-include=/usr/include/finclude/math-vector-fortran.h
REM seed 1219357729 1855097788 1209625837 -1749411290 1648435249 -290312403 -1076356090 -1668682189 -280519955 1330598186 1308995210 849303006 483187743 1146054184 1386134144 365190630 1025726867 -1010154243 1298693464 -595966262 2077896764 -534922473 -1390235890 -939834405 -1818559488 1920870422 -125260889 2136868286 -413027742 -1896185730 -838803865 -1983023626 -789377851
REM
CELL 1.54180   50.00000   50.00000   50.00000   90.00000   90.00000   90.00000
LATT -1
SFAC C  
C      1  0.5024530000000  0.5456500000000  0.5649070000000 1.0
C      1  0.4776570000000  0.5037200000000  0.5535580000000 1.0
C      1  0.4730990000000  0.5670560000000  0.5127310000000 1.0
C      1  0.4675880000000  0.4446590000000  0.4369270000000 1.0
C      1  0.5363360000000  0.4971560000000  0.5255660000000 1.0
C      1  0.5281370000000  0.5680180000000  0.4836430000000 1.0
C      1  0.4482310000000  0.5682620000000  0.5359160000000 1.0
C      1  0.4286200000000  0.5369370000000  0.5012050000000 1.0
C      1  0.5786070000000  0.4734750000000  0.5304120000000 1.0
C      1  0.5783020000000  0.5246100000000  0.4595510000000 1.0
C      1  0.4464610000000  0.4413520000000  0.5586290000000 1.0
C      1  0.5476080000000  0.4487580000000  0.5449600000000 1.0
C      1  0.5825140000000  0.5289090000000  0.4870420000000 1.0
C      1  0.4747630000000  0.4634210000000  0.4153510000000 1.0
C      1  0.5349110000000  0.5209120000000  0.5683820000000 1.0
C      1  0.5037460000000  0.4565240000000  0.4193880000000 1.0
C      1  0.5207620000000  0.5186240000000  0.4300920000000 1.0
C      1  0.5238710000000  0.5028990000000  0.4981270000000 1.0
C      1  0.5205300000000  0.4569810000000  0.4652720000000 1.0
C      1  0.5658020000000  0.4487100000000  0.5213970000000 1.0
C      1  0.4646120000000  0.4692260000000  0.4863760000000 1.0
C      1  0.5260140000000  0.5187880000000  0.5419330000000 1.0
C      1  0.4587680000000  0.4916470000000  0.5327760000000 1.0
C      1  0.5607160000000  0.4546840000000  0.4922730000000 1.0
C      1  0.4989380000000  0.5164780000000  0.5366750000000 1.0
C      1  0.4157220000000  0.4849880000000  0.5068700000000 1.0
C      1  0.5565660000000  0.5008460000000  0.4628340000000 1.0
C      1  0.4894150000000  0.5216800000000  0.4400280000000 1.0
C      1  0.4946170000000  0.4333230000000  0.4354960000000 1.0
C      1  0.5005040000000  0.5198780000000  0.5091840000000 1.0
C      1  0.5082350000000  0.4774720000000  0.4877570000000 1.0
C      1  0.5821890000000  0.5232830000000  0.5138800000000 1.0
C      1  0.4231240000000  0.4657630000000  0.4858100000000 1.0
C      1  0.5671200000000  0.5368990000000  0.5366110000000 1.0
C      1  0.4481370000000  0.4966250000000  0.4442740000000 1.0
C      1  0.5431350000000  0.5523420000000  0.5306190000000 1.0
C      1  0.5029700000000  0.4089500000000  0.4929390000000 1.0
C      1  0.4628100000000  0.4907560000000  0.4151350000000 1.0
C      1  0.5057260000000  0.4328030000000  0.4607850000000 1.0
C      1  0.5358190000000  0.5413510000000  0.4413430000000 1.0
C      1  0.5010560000000  0.4643570000000  0.5136390000000 1.0
C      1  0.5196040000000  0.4393860000000  0.5490660000000 1.0
C      1  0.5550380000000  0.4991100000000  0.5709490000000 1.0
C      1  0.4334260000000  0.4383270000000  0.4947520000000 1.0
C      1  0.4170200000000  0.5119630000000  0.5122570000000 1.0
C      1  0.4629870000000  0.5521510000000  0.5550620000000 1.0
C      1  0.5805420000000  0.4933180000000  0.5080630000000 1.0
C      1  0.4761810000000  0.5204110000000  0.4951150000000 1.0
C      1  0.4343720000000  0.4735360000000  0.4591920000000 1.0
C      1  0.4243170000000  0.5616450000000  0.5222430000000 1.0
C      1  0.4884330000000  0.4794870000000  0.5712930000000 1.0
C      1  0.4239310000000  0.5373670000000  0.4695600000000 1.0
C      1  0.4986680000000  0.5750000000000  0.5266180000000 1.0
C      1  0.5121830000000  0.5961640000000  0.5107480000000 1.0
C      1  0.4806680000000  0.4910720000000  0.4788920000000 1.0
C      1  0.5594080000000  0.4758910000000  0.5532590000000 1.0
C      1  0.5243340000000  0.4164030000000  0.4756860000000 1.0
C      1  0.5060550000000  0.5868360000000  0.4835350000000 1.0
C      1  0.4780200000000  0.5783030000000  0.4831840000000 1.0
C      1  0.5425710000000  0.5992030000000  0.5155610000000 1.0
C      1  0.5178280000000  0.4768440000000  0.5335300000000 1.0
C      1  0.5287270000000  0.5442180000000  0.4685860000000 1.0
C      1  0.4521530000000  0.4436490000000  0.5318030000000 1.0
C      1  0.5674690000000  0.4820160000000  0.4848410000000 1.0
C      1  0.5663130000000  0.5427140000000  0.4395830000000 1.0
C      1  0.4559290000000  0.4544300000000  0.4624780000000 1.0
C      1  0.5356040000000  0.4952560000000  0.4379700000000 1.0
C      1  0.5116110000000  0.4660120000000  0.5602850000000 1.0
C      1  0.4490860000000  0.4481720000000  0.5826550000000 1.0
C      1  0.4407210000000  0.5279230000000  0.4494100000000 1.0
C      1  0.5470430000000  0.5711120000000  0.5071610000000 1.0
C      1  0.4595670000000  0.5397910000000  0.5055580000000 1.0
C      1  0.5369440000000  0.5193660000000  0.4768440000000 1.0
C      1  0.4716480000000  0.5608450000000  0.4638290000000 1.0
C      1  0.4655670000000  0.5441670000000  0.4453680000000 1.0
C      1  0.4849970000000  0.5081210000000  0.4148660000000 1.0
C      1  0.4670420000000  0.4683540000000  0.5164650000000 1.0
C      1  0.5233880000000  0.4697970000000  0.4364730000000 1.0
C      1  0.4679840000000  0.4644630000000  0.5835640000000 1.0
C      1  0.4305470000000  0.4953950000000  0.5295440000000 1.0
C      1  0.4842180000000  0.4169760000000  0.5122860000000 1.0
C      1  0.5159930000000  0.5602420000000  0.5450890000000 1.0
C      1  0.4757730000000  0.4979630000000  0.4529280000000 1.0
C      1  0.4772510000000  0.5335070000000  0.5688000000000 1.0
C      1  0.5039490000000  0.4355970000000  0.5243680000000 1.0
C      1  0.5639200000000  0.5256890000000  0.5634080000000 1.0
C      1  0.4525310000000  0.4233930000000  0.5107400000000 1.0
C      1  0.5422500000000  0.4396430000000  0.4762320000000 1.0
END
