TITL C-4164237-1827-434 9.70614562219763 125000 -5661.00600214722 0 0 40 (C1) n - 1
REM
REM in /home/nfs/bkarasulu/CARBON/AIRSS/Generating-Clusters/ReaxFF-fromJPCA2015/Units_Real/with-SteepDescent/Only-C1/SD-CG/Try1-3A/FIRE-CG
REM
REM
REM
REM
REM
REM ./C.cell (11c1c37f851c82e70ff6c80c92926a4b)
REM
REM compiler GCC version 9.2.1 20190827 (Red Hat 9.2.1-1)
REM options -cpp -mtune=generic -march=x86-64 -g -O0 -fpre-include=/usr/include/finclude/math-vector-fortran.h
REM seed -1289943190 -697024482 122918137 -372532127 824465294 -1106040383 228758736 -1115971886 1030602874 -889321541 135008157 400902265 -1962838260 -1417363434 -444134588 45182999 -274639918 1686622383 317962068 -1935379430 64732406 -100468499 1169807602 -740985132 1911162039 -2112499308 -2075879296 -618613902 1592226333 1507420192 783336444 -537963544 485166017
REM
CELL 1.54180   50.00000   50.00000   50.00000   90.00000   90.00000   90.00000
LATT -1
SFAC C  
C      1  0.5413870000000  0.4629770000000  0.5299250000000 1.0
C      1  0.4741290000000  0.4989270000000  0.4445310000000 1.0
C      1  0.4733300000000  0.4735060000000  0.5225890000000 1.0
C      1  0.5198250000000  0.4449750000000  0.5330100000000 1.0
C      1  0.5036700000000  0.4309100000000  0.5118740000000 1.0
C      1  0.5227590000000  0.5197030000000  0.4304380000000 1.0
C      1  0.5305470000000  0.5022100000000  0.4852640000000 1.0
C      1  0.4552940000000  0.4795410000000  0.4571460000000 1.0
C      1  0.4713440000000  0.4968190000000  0.4738970000000 1.0
C      1  0.4862920000000  0.5491840000000  0.4815660000000 1.0
C      1  0.5281780000000  0.4802360000000  0.4651700000000 1.0
C      1  0.4855220000000  0.4892280000000  0.4986200000000 1.0
C      1  0.5600560000000  0.4785640000000  0.5272540000000 1.0
C      1  0.5004480000000  0.4356920000000  0.4819520000000 1.0
C      1  0.4905900000000  0.4485610000000  0.5292430000000 1.0
C      1  0.5091370000000  0.5045650000000  0.5055670000000 1.0
C      1  0.4366930000000  0.4996750000000  0.5018930000000 1.0
C      1  0.5042570000000  0.5668920000000  0.4946360000000 1.0
C      1  0.4754450000000  0.4914920000000  0.5484690000000 1.0
C      1  0.5464110000000  0.5263710000000  0.4782310000000 1.0
C      1  0.5514420000000  0.5458440000000  0.5008770000000 1.0
C      1  0.5054740000000  0.5220550000000  0.5288820000000 1.0
C      1  0.5238730000000  0.4906670000000  0.4365200000000 1.0
C      1  0.4436810000000  0.5291540000000  0.5063260000000 1.0
C      1  0.4542500000000  0.5333090000000  0.5334590000000 1.0
C      1  0.4705950000000  0.4365340000000  0.4755250000000 1.0
C      1  0.4589570000000  0.5475820000000  0.4885620000000 1.0
C      1  0.5580310000000  0.5022470000000  0.5267120000000 1.0
C      1  0.4514910000000  0.4581550000000  0.4774150000000 1.0
C      1  0.5362350000000  0.5280780000000  0.4524940000000 1.0
C      1  0.5266830000000  0.5411830000000  0.5337180000000 1.0
C      1  0.5144660000000  0.4578320000000  0.4732140000000 1.0
C      1  0.4946460000000  0.4883980000000  0.5673930000000 1.0
C      1  0.4793570000000  0.5203390000000  0.5440640000000 1.0
C      1  0.5121520000000  0.4876290000000  0.5844320000000 1.0
C      1  0.5540550000000  0.5304470000000  0.5260970000000 1.0
C      1  0.4470790000000  0.4732920000000  0.5041470000000 1.0
C      1  0.4981230000000  0.5000660000000  0.4285960000000 1.0
C      1  0.4762200000000  0.5671640000000  0.4994660000000 1.0
C      1  0.5278760000000  0.5599980000000  0.5108320000000 1.0
END
