TITL C-4164243-3780-454 2.22846613492555 125000 -20716.0065105592 0 0 139 (C1) n - 1
REM
REM in /home/nfs/bkarasulu/CARBON/AIRSS/Generating-Clusters/ReaxFF-fromJPCA2015/Units_Real/with-SteepDescent/Only-C1/SD-CG/Try1-3A/FIRE-CG
REM
REM
REM
REM
REM
REM ./C.cell (11c1c37f851c82e70ff6c80c92926a4b)
REM
REM compiler GCC version 9.2.1 20190827 (Red Hat 9.2.1-1)
REM options -cpp -mtune=generic -march=x86-64 -g -O0 -fpre-include=/usr/include/finclude/math-vector-fortran.h
REM seed 419356988 106887742 -1589113506 1636109929 659899462 -1347936529 -1766531884 -89949496 -1459171716 -865854178 768776722 -1662028221 512814390 -125405300 509208988 -419829166 936120072 -242915070 -2122605214 -1993275189 -1432281011 -113681166 2069050566 -1658458686 -2086476814 -337558378 -837940523 -1627823173 -1089159554 1010202236 1348663152 1453081388 1526578000
REM
CELL 1.54180   50.00000   50.00000   50.00000   90.00000   90.00000   90.00000
LATT -1
SFAC C  
C      1  0.5026310000000  0.5506470000000  0.5637420000000 1.0
C      1  0.5364870000000  0.4267310000000  0.4458900000000 1.0
C      1  0.4102400000000  0.5288210000000  0.5275090000000 1.0
C      1  0.5461610000000  0.4946310000000  0.5008400000000 1.0
C      1  0.5095740000000  0.4128420000000  0.5347620000000 1.0
C      1  0.4844690000000  0.4158970000000  0.5505890000000 1.0
C      1  0.5466430000000  0.4911430000000  0.4712850000000 1.0
C      1  0.4900820000000  0.5425940000000  0.4217340000000 1.0
C      1  0.5147120000000  0.4123480000000  0.5054930000000 1.0
C      1  0.5186910000000  0.5479000000000  0.4269350000000 1.0
C      1  0.5345560000000  0.5070070000000  0.4066890000000 1.0
C      1  0.4700680000000  0.5569520000000  0.4364750000000 1.0
C      1  0.5338230000000  0.5227480000000  0.4314020000000 1.0
C      1  0.4859740000000  0.5151080000000  0.4110250000000 1.0
C      1  0.4091320000000  0.5102160000000  0.4709190000000 1.0
C      1  0.4366980000000  0.5201420000000  0.5157980000000 1.0
C      1  0.5266260000000  0.5731410000000  0.4398370000000 1.0
C      1  0.4360970000000  0.5212100000000  0.4179130000000 1.0
C      1  0.5466300000000  0.4427020000000  0.4234690000000 1.0
C      1  0.5386250000000  0.5621330000000  0.5257620000000 1.0
C      1  0.4869820000000  0.4560540000000  0.5303850000000 1.0
C      1  0.4510680000000  0.4911790000000  0.4614070000000 1.0
C      1  0.5499070000000  0.4823880000000  0.4028720000000 1.0
C      1  0.5322610000000  0.5110000000000  0.4578180000000 1.0
C      1  0.5067460000000  0.5907510000000  0.5402120000000 1.0
C      1  0.4694220000000  0.5353440000000  0.4800350000000 1.0
C      1  0.5103850000000  0.4751980000000  0.4920170000000 1.0
C      1  0.4829370000000  0.4614520000000  0.5796600000000 1.0
C      1  0.4397370000000  0.4843250000000  0.5645070000000 1.0
C      1  0.4946790000000  0.5308840000000  0.5453910000000 1.0
C      1  0.4574310000000  0.5195260000000  0.4597370000000 1.0
C      1  0.5740340000000  0.5368720000000  0.4984080000000 1.0
C      1  0.4632830000000  0.4414610000000  0.4518290000000 1.0
C      1  0.5019240000000  0.5005500000000  0.6051870000000 1.0
C      1  0.5533120000000  0.4793770000000  0.5250360000000 1.0
C      1  0.4896610000000  0.4818140000000  0.4351930000000 1.0
C      1  0.5701210000000  0.4549800000000  0.4356910000000 1.0
C      1  0.5414390000000  0.4216370000000  0.4970830000000 1.0
C      1  0.4435950000000  0.5391030000000  0.4414400000000 1.0
C      1  0.4776310000000  0.4709990000000  0.4105100000000 1.0
C      1  0.5940020000000  0.5802960000000  0.4996430000000 1.0
C      1  0.4761710000000  0.5427270000000  0.6062970000000 1.0
C      1  0.4072950000000  0.4840180000000  0.5224460000000 1.0
C      1  0.4047810000000  0.5010670000000  0.4976670000000 1.0
C      1  0.5496410000000  0.4321320000000  0.5230200000000 1.0
C      1  0.5783180000000  0.5511920000000  0.4530420000000 1.0
C      1  0.4531710000000  0.5284980000000  0.5947340000000 1.0
C      1  0.4627400000000  0.4937430000000  0.5476440000000 1.0
C      1  0.5374100000000  0.4177800000000  0.5459720000000 1.0
C      1  0.5314120000000  0.4604010000000  0.4038540000000 1.0
C      1  0.5229120000000  0.5491480000000  0.4840060000000 1.0
C      1  0.4828060000000  0.4209530000000  0.4424350000000 1.0
C      1  0.5075820000000  0.5000930000000  0.3977760000000 1.0
C      1  0.5186650000000  0.5135600000000  0.5415900000000 1.0
C      1  0.5115120000000  0.4591180000000  0.5156740000000 1.0
C      1  0.4153880000000  0.4562170000000  0.5179100000000 1.0
C      1  0.4818530000000  0.4699000000000  0.4859770000000 1.0
C      1  0.4270810000000  0.4944250000000  0.4238970000000 1.0
C      1  0.5520240000000  0.5745960000000  0.5485260000000 1.0
C      1  0.4764420000000  0.5884390000000  0.5427400000000 1.0
C      1  0.5278220000000  0.5401850000000  0.5962810000000 1.0
C      1  0.5083030000000  0.4350550000000  0.4407680000000 1.0
C      1  0.5185950000000  0.5818640000000  0.5152590000000 1.0
C      1  0.5654440000000  0.4852200000000  0.5508200000000 1.0
C      1  0.4520560000000  0.4146720000000  0.4967540000000 1.0
C      1  0.5174380000000  0.4856720000000  0.5495380000000 1.0
C      1  0.5296930000000  0.4739820000000  0.5739850000000 1.0
C      1  0.4678120000000  0.4111420000000  0.5282670000000 1.0
C      1  0.4134750000000  0.4925200000000  0.5500500000000 1.0
C      1  0.5412930000000  0.5690240000000  0.4823380000000 1.0
C      1  0.4136350000000  0.5465020000000  0.5501650000000 1.0
C      1  0.4599850000000  0.5847200000000  0.5203570000000 1.0
C      1  0.4545320000000  0.5001030000000  0.5878480000000 1.0
C      1  0.5864980000000  0.5211330000000  0.4497410000000 1.0
C      1  0.5471440000000  0.4373720000000  0.5639450000000 1.0
C      1  0.4359380000000  0.4454860000000  0.5360660000000 1.0
C      1  0.5791900000000  0.5247910000000  0.5448430000000 1.0
C      1  0.4666510000000  0.5656060000000  0.4783790000000 1.0
C      1  0.5641860000000  0.5110730000000  0.5649090000000 1.0
C      1  0.5026930000000  0.5292850000000  0.6073890000000 1.0
C      1  0.4209590000000  0.5385790000000  0.4660620000000 1.0
C      1  0.4809130000000  0.5767240000000  0.4549380000000 1.0
C      1  0.4548790000000  0.4991100000000  0.5220530000000 1.0
C      1  0.4402870000000  0.5565170000000  0.5442030000000 1.0
C      1  0.5271740000000  0.4712920000000  0.4678880000000 1.0
C      1  0.4698390000000  0.4386650000000  0.5687640000000 1.0
C      1  0.4599450000000  0.4806100000000  0.5025060000000 1.0
C      1  0.5364330000000  0.4578800000000  0.5279430000000 1.0
C      1  0.4247010000000  0.5593710000000  0.4852220000000 1.0
C      1  0.4824800000000  0.5379450000000  0.5189410000000 1.0
C      1  0.5751680000000  0.4791930000000  0.4188190000000 1.0
C      1  0.5861770000000  0.4728030000000  0.4802990000000 1.0
C      1  0.5088210000000  0.5849140000000  0.4600030000000 1.0
C      1  0.4318310000000  0.4262300000000  0.4928810000000 1.0
C      1  0.5551340000000  0.5641030000000  0.4418360000000 1.0
C      1  0.5513550000000  0.4314460000000  0.4709870000000 1.0
C      1  0.4451520000000  0.4522360000000  0.5625010000000 1.0
C      1  0.5442760000000  0.5179090000000  0.5866950000000 1.0
C      1  0.5571430000000  0.4631010000000  0.5699570000000 1.0
C      1  0.5952050000000  0.4779450000000  0.5099050000000 1.0
C      1  0.5727830000000  0.4514850000000  0.4648520000000 1.0
C      1  0.4031930000000  0.5189340000000  0.5545350000000 1.0
C      1  0.5113900000000  0.4643750000000  0.4440290000000 1.0
C      1  0.4121310000000  0.4895440000000  0.4486390000000 1.0
C      1  0.4193460000000  0.4515450000000  0.4882980000000 1.0
C      1  0.4511080000000  0.4835530000000  0.4067430000000 1.0
C      1  0.4539370000000  0.5416280000000  0.5234630000000 1.0
C      1  0.5924210000000  0.5093250000000  0.5234980000000 1.0
C      1  0.5512740000000  0.5223400000000  0.5068720000000 1.0
C      1  0.4570970000000  0.3993910000000  0.4773440000000 1.0
C      1  0.5043590000000  0.4710010000000  0.3971680000000 1.0
C      1  0.4384960000000  0.4780240000000  0.4837740000000 1.0
C      1  0.5287390000000  0.4947590000000  0.5950630000000 1.0
C      1  0.4740120000000  0.4372450000000  0.4823060000000 1.0
C      1  0.5176180000000  0.5651410000000  0.5819350000000 1.0
C      1  0.4137500000000  0.4608830000000  0.4552330000000 1.0
C      1  0.4603360000000  0.5567450000000  0.5862220000000 1.0
C      1  0.4466560000000  0.5788060000000  0.4958160000000 1.0
C      1  0.4908670000000  0.5262390000000  0.4942330000000 1.0
C      1  0.5858030000000  0.5008760000000  0.4732060000000 1.0
C      1  0.5868820000000  0.5702670000000  0.5244260000000 1.0
C      1  0.6061610000000  0.4592960000000  0.5232670000000 1.0
C      1  0.4870790000000  0.4760920000000  0.5509780000000 1.0
C      1  0.4725860000000  0.4745440000000  0.4577780000000 1.0
C      1  0.4635680000000  0.4397350000000  0.5250680000000 1.0
C      1  0.4332420000000  0.4433560000000  0.4439290000000 1.0
C      1  0.5161090000000  0.5241920000000  0.4796430000000 1.0
C      1  0.4814480000000  0.3998470000000  0.4626710000000 1.0
C      1  0.5267670000000  0.5847110000000  0.5611260000000 1.0
C      1  0.5732350000000  0.5614670000000  0.4811300000000 1.0
C      1  0.4949830000000  0.4163080000000  0.4837770000000 1.0
C      1  0.5215660000000  0.5906120000000  0.4863440000000 1.0
C      1  0.5964520000000  0.5181900000000  0.4967300000000 1.0
C      1  0.4779800000000  0.4850170000000  0.5963630000000 1.0
C      1  0.5756610000000  0.5566930000000  0.5457530000000 1.0
C      1  0.4591030000000  0.5717950000000  0.5608940000000 1.0
C      1  0.5361870000000  0.5319240000000  0.5268410000000 1.0
C      1  0.5815900000000  0.5028530000000  0.4317240000000 1.0
C      1  0.4581520000000  0.5111660000000  0.4008890000000 1.0
END
