TITL C-4164245-3996-265 72.3536390249801 125000 -18600.3389083691 0 0 126 (C1) n - 1
REM
REM in /home/nfs/bkarasulu/CARBON/AIRSS/Generating-Clusters/ReaxFF-fromJPCA2015/Units_Real/with-SteepDescent/Only-C1/SD-CG/Try1-3A/FIRE-CG
REM
REM
REM
REM
REM
REM ./C.cell (11c1c37f851c82e70ff6c80c92926a4b)
REM
REM compiler GCC version 9.2.1 20190827 (Red Hat 9.2.1-1)
REM options -cpp -mtune=generic -march=x86-64 -g -O0 -fpre-include=/usr/include/finclude/math-vector-fortran.h
REM seed -2008904997 539668883 -2040902856 1279292595 -1368461107 -1362745875 1903513596 187811565 -1927072480 1777294085 -215147683 741990508 -2135179983 -1231575936 800158077 -779469159 43307644 101106603 968349729 35667468 415732085 1503207524 567570022 301166159 -2020383995 904256142 148255563 249031325 1854534620 1257329181 -1194825893 366247024 -1643347900
REM
CELL 1.54180   50.00000   50.00000   50.00000   90.00000   90.00000   90.00000
LATT -1
SFAC C  
C      1  0.5200550000000  0.4518410000000  0.4233950000000 1.0
C      1  0.5469310000000  0.4600470000000  0.5157130000000 1.0
C      1  0.4309270000000  0.5228790000000  0.5596230000000 1.0
C      1  0.5208930000000  0.4046020000000  0.5072530000000 1.0
C      1  0.4534730000000  0.4109610000000  0.4730450000000 1.0
C      1  0.5437340000000  0.5386360000000  0.5779000000000 1.0
C      1  0.4602120000000  0.4985480000000  0.5940550000000 1.0
C      1  0.5195810000000  0.5165770000000  0.5421870000000 1.0
C      1  0.4825320000000  0.4876090000000  0.5257060000000 1.0
C      1  0.4644240000000  0.5931980000000  0.4842760000000 1.0
C      1  0.5275980000000  0.5383630000000  0.4071680000000 1.0
C      1  0.4532990000000  0.5854900000000  0.5096730000000 1.0
C      1  0.5019290000000  0.5262660000000  0.5626070000000 1.0
C      1  0.5620520000000  0.4250040000000  0.4987010000000 1.0
C      1  0.5876170000000  0.4691640000000  0.4884960000000 1.0
C      1  0.4147480000000  0.5270140000000  0.4608600000000 1.0
C      1  0.4694850000000  0.5321740000000  0.4533510000000 1.0
C      1  0.5351160000000  0.5729910000000  0.4842480000000 1.0
C      1  0.4731620000000  0.5196600000000  0.5573950000000 1.0
C      1  0.4652970000000  0.4919160000000  0.5465410000000 1.0
C      1  0.5203930000000  0.5482840000000  0.4942350000000 1.0
C      1  0.5155630000000  0.5855400000000  0.4645180000000 1.0
C      1  0.5318310000000  0.5606460000000  0.5611910000000 1.0
C      1  0.4148240000000  0.4907860000000  0.5255460000000 1.0
C      1  0.4920730000000  0.4148920000000  0.5035510000000 1.0
C      1  0.4999820000000  0.4668960000000  0.4662510000000 1.0
C      1  0.4368840000000  0.5609860000000  0.5151490000000 1.0
C      1  0.5669420000000  0.4414180000000  0.5556380000000 1.0
C      1  0.4150740000000  0.5212810000000  0.4890810000000 1.0
C      1  0.4592970000000  0.4445620000000  0.5575610000000 1.0
C      1  0.5224380000000  0.4804240000000  0.4217880000000 1.0
C      1  0.4134380000000  0.4575360000000  0.4762470000000 1.0
C      1  0.4153910000000  0.5183420000000  0.5363960000000 1.0
C      1  0.5058500000000  0.5703560000000  0.5666200000000 1.0
C      1  0.4837640000000  0.5569000000000  0.5250610000000 1.0
C      1  0.4787890000000  0.4815810000000  0.4738620000000 1.0
C      1  0.5208320000000  0.5001450000000  0.4944410000000 1.0
C      1  0.4623490000000  0.4633670000000  0.4892460000000 1.0
C      1  0.4715420000000  0.4880600000000  0.4113410000000 1.0
C      1  0.5165510000000  0.5760380000000  0.4374710000000 1.0
C      1  0.4422310000000  0.4835010000000  0.4911020000000 1.0
C      1  0.5284950000000  0.4899570000000  0.5523960000000 1.0
C      1  0.4893090000000  0.5704400000000  0.4249430000000 1.0
C      1  0.4262750000000  0.4406750000000  0.5267200000000 1.0
C      1  0.4905090000000  0.4602370000000  0.5283510000000 1.0
C      1  0.5653930000000  0.5074530000000  0.5222170000000 1.0
C      1  0.5070940000000  0.5162450000000  0.4558420000000 1.0
C      1  0.4153530000000  0.5382910000000  0.5129050000000 1.0
C      1  0.4984720000000  0.5401970000000  0.5087340000000 1.0
C      1  0.4391930000000  0.4668310000000  0.4287730000000 1.0
C      1  0.5394730000000  0.4871140000000  0.4458240000000 1.0
C      1  0.4829760000000  0.4026470000000  0.4765410000000 1.0
C      1  0.5726630000000  0.5292650000000  0.5021360000000 1.0
C      1  0.5797360000000  0.4956760000000  0.5631100000000 1.0
C      1  0.5841210000000  0.4925400000000  0.4700840000000 1.0
C      1  0.5007110000000  0.5262330000000  0.4116410000000 1.0
C      1  0.4877790000000  0.4451160000000  0.5579590000000 1.0
C      1  0.5027230000000  0.5096890000000  0.5146890000000 1.0
C      1  0.5305420000000  0.4159420000000  0.4586340000000 1.0
C      1  0.4632620000000  0.5787650000000  0.4308630000000 1.0
C      1  0.5732860000000  0.4681230000000  0.5651620000000 1.0
C      1  0.4980410000000  0.4474490000000  0.5040160000000 1.0
C      1  0.4463190000000  0.4707370000000  0.5586780000000 1.0
C      1  0.5629950000000  0.5447000000000  0.4294820000000 1.0
C      1  0.5678910000000  0.4790110000000  0.4500070000000 1.0
C      1  0.4236360000000  0.5451300000000  0.4390580000000 1.0
C      1  0.4511120000000  0.5254490000000  0.5788280000000 1.0
C      1  0.4678190000000  0.4599970000000  0.4161120000000 1.0
C      1  0.4834670000000  0.5100200000000  0.4672380000000 1.0
C      1  0.5331500000000  0.5246690000000  0.4900880000000 1.0
C      1  0.4253670000000  0.4615470000000  0.4524500000000 1.0
C      1  0.4619500000000  0.4390820000000  0.4707900000000 1.0
C      1  0.5623180000000  0.5571630000000  0.4717600000000 1.0
C      1  0.4288990000000  0.5172610000000  0.4347870000000 1.0
C      1  0.5535200000000  0.5271470000000  0.5400530000000 1.0
C      1  0.4997330000000  0.4972570000000  0.4128990000000 1.0
C      1  0.4675770000000  0.5587900000000  0.5654630000000 1.0
C      1  0.4210200000000  0.4911030000000  0.4966710000000 1.0
C      1  0.4914190000000  0.4456030000000  0.4238600000000 1.0
C      1  0.5234130000000  0.4771120000000  0.4759870000000 1.0
C      1  0.4187090000000  0.4477860000000  0.5011130000000 1.0
C      1  0.5804400000000  0.4706550000000  0.5163140000000 1.0
C      1  0.5470890000000  0.5326690000000  0.4700810000000 1.0
C      1  0.5126970000000  0.5010980000000  0.5966740000000 1.0
C      1  0.5310970000000  0.4840290000000  0.5816160000000 1.0
C      1  0.5247310000000  0.4563820000000  0.4957400000000 1.0
C      1  0.4447570000000  0.4950620000000  0.4238500000000 1.0
C      1  0.5433810000000  0.4405560000000  0.5694230000000 1.0
C      1  0.5489550000000  0.5222010000000  0.4183580000000 1.0
C      1  0.5806690000000  0.5440970000000  0.4539820000000 1.0
C      1  0.5397300000000  0.4379030000000  0.4420260000000 1.0
C      1  0.4533090000000  0.5414670000000  0.5024600000000 1.0
C      1  0.5168550000000  0.5292080000000  0.5869930000000 1.0
C      1  0.4516130000000  0.4268480000000  0.5375760000000 1.0
C      1  0.4224940000000  0.4668750000000  0.5390300000000 1.0
C      1  0.4581540000000  0.5483320000000  0.4751350000000 1.0
C      1  0.5518740000000  0.4312200000000  0.5288850000000 1.0
C      1  0.5649040000000  0.5222900000000  0.5669570000000 1.0
C      1  0.4377510000000  0.5722520000000  0.4406120000000 1.0
C      1  0.4804220000000  0.5866910000000  0.5260890000000 1.0
C      1  0.5379250000000  0.5613360000000  0.4232880000000 1.0
C      1  0.5410640000000  0.4101570000000  0.4865380000000 1.0
C      1  0.4816380000000  0.5416200000000  0.4274740000000 1.0
C      1  0.4463950000000  0.5756480000000  0.4689050000000 1.0
C      1  0.4400140000000  0.4794340000000  0.5904130000000 1.0
C      1  0.4882200000000  0.4855100000000  0.5939390000000 1.0
C      1  0.5633900000000  0.5492420000000  0.5218060000000 1.0
C      1  0.5636480000000  0.4502040000000  0.4533160000000 1.0
C      1  0.5254450000000  0.4147650000000  0.5333290000000 1.0
C      1  0.5046570000000  0.5955350000000  0.5094590000000 1.0
C      1  0.4967640000000  0.4594550000000  0.5841430000000 1.0
C      1  0.4900070000000  0.4418950000000  0.4546360000000 1.0
C      1  0.5889080000000  0.4912910000000  0.5347620000000 1.0
C      1  0.5352760000000  0.5175610000000  0.4472710000000 1.0
C      1  0.4818990000000  0.5820020000000  0.5588830000000 1.0
C      1  0.5019940000000  0.4132100000000  0.4577640000000 1.0
C      1  0.5442120000000  0.4855120000000  0.5290270000000 1.0
C      1  0.5745350000000  0.4434720000000  0.4801590000000 1.0
C      1  0.4760760000000  0.4126990000000  0.5301250000000 1.0
C      1  0.5843030000000  0.5219350000000  0.4763750000000 1.0
C      1  0.5429600000000  0.5672620000000  0.5324730000000 1.0
C      1  0.4992430000000  0.4184990000000  0.5460430000000 1.0
C      1  0.5256570000000  0.4546540000000  0.5865110000000 1.0
C      1  0.4946010000000  0.5955970000000  0.4824130000000 1.0
C      1  0.5313280000000  0.5846510000000  0.5126510000000 1.0
C      1  0.4640960000000  0.5440960000000  0.5411420000000 1.0
END
