TITL C-4164233-775-13 3.97665631222314 125000 -19183.5114563721 0 0 130 (C1) n - 1
REM
REM in /home/nfs/bkarasulu/CARBON/AIRSS/Generating-Clusters/ReaxFF-fromJPCA2015/Units_Real/with-SteepDescent/Only-C1/SD-CG/Try1-3A/FIRE-CG
REM
REM
REM
REM
REM
REM ./C.cell (11c1c37f851c82e70ff6c80c92926a4b)
REM
REM compiler GCC version 9.2.1 20190827 (Red Hat 9.2.1-1)
REM options -cpp -mtune=generic -march=x86-64 -g -O0 -fpre-include=/usr/include/finclude/math-vector-fortran.h
REM seed 739882282 -1515893324 1702507485 -667036182 1320071593 -165225509 -333504038 -1106991801 304932570 1406704146 1200699812 -1801495736 916297644 -1473755055 -500700553 373726900 2004278766 1107208657 -1604780140 -1708199991 -946189165 1022621848 -339871638 1546847471 -59367504 1642163620 1050198146 186060185 1104403807 -1766710616 -1722419642 -1763024539 312400664
REM
CELL 1.54180   50.00000   50.00000   50.00000   90.00000   90.00000   90.00000
LATT -1
SFAC C  
C      1  0.4501440000000  0.4723700000000  0.4160960000000 1.0
C      1  0.4149630000000  0.4887810000000  0.4529740000000 1.0
C      1  0.5710750000000  0.4375790000000  0.4940880000000 1.0
C      1  0.5841270000000  0.5563710000000  0.5402420000000 1.0
C      1  0.4509320000000  0.4134920000000  0.4333500000000 1.0
C      1  0.4548630000000  0.5435210000000  0.4908850000000 1.0
C      1  0.4865830000000  0.5262230000000  0.4644180000000 1.0
C      1  0.4815720000000  0.4787050000000  0.5444630000000 1.0
C      1  0.4023780000000  0.5160610000000  0.5310440000000 1.0
C      1  0.6045140000000  0.4916080000000  0.4617710000000 1.0
C      1  0.4697980000000  0.5053980000000  0.5054050000000 1.0
C      1  0.4729170000000  0.4626950000000  0.4050070000000 1.0
C      1  0.5275080000000  0.4486240000000  0.5194620000000 1.0
C      1  0.4123970000000  0.5417120000000  0.5271130000000 1.0
C      1  0.5605930000000  0.4353200000000  0.4658340000000 1.0
C      1  0.5887330000000  0.5749120000000  0.5168290000000 1.0
C      1  0.4759110000000  0.5860620000000  0.4933620000000 1.0
C      1  0.4653530000000  0.4056500000000  0.5155100000000 1.0
C      1  0.5355320000000  0.5798150000000  0.5324100000000 1.0
C      1  0.5792740000000  0.5275470000000  0.5391370000000 1.0
C      1  0.5954550000000  0.4658580000000  0.4501410000000 1.0
C      1  0.5597430000000  0.5021660000000  0.4261770000000 1.0
C      1  0.5556080000000  0.4306990000000  0.5433850000000 1.0
C      1  0.4991370000000  0.4997090000000  0.5437600000000 1.0
C      1  0.4296800000000  0.4458160000000  0.5243830000000 1.0
C      1  0.4790930000000  0.5713810000000  0.5741560000000 1.0
C      1  0.5537660000000  0.5558640000000  0.4293690000000 1.0
C      1  0.4907440000000  0.5624660000000  0.4273780000000 1.0
C      1  0.5012220000000  0.4791670000000  0.4105940000000 1.0
C      1  0.4410400000000  0.4237340000000  0.4577480000000 1.0
C      1  0.4320870000000  0.4894630000000  0.4290380000000 1.0
C      1  0.5030410000000  0.5443090000000  0.4485230000000 1.0
C      1  0.4715820000000  0.4745370000000  0.5724080000000 1.0
C      1  0.4876740000000  0.5242070000000  0.5508620000000 1.0
C      1  0.5191850000000  0.4104970000000  0.4885650000000 1.0
C      1  0.4806510000000  0.5297620000000  0.4932450000000 1.0
C      1  0.5175640000000  0.4049010000000  0.5180950000000 1.0
C      1  0.4792030000000  0.4619620000000  0.5205870000000 1.0
C      1  0.4147770000000  0.4680360000000  0.5132400000000 1.0
C      1  0.5342160000000  0.5262630000000  0.4878910000000 1.0
C      1  0.5665520000000  0.5011490000000  0.4953020000000 1.0
C      1  0.5189520000000  0.5712400000000  0.5088810000000 1.0
C      1  0.4758920000000  0.5057090000000  0.4468490000000 1.0
C      1  0.5800310000000  0.5450790000000  0.4710210000000 1.0
C      1  0.5432490000000  0.5763630000000  0.4477810000000 1.0
C      1  0.4692290000000  0.4044370000000  0.4881550000000 1.0
C      1  0.5293510000000  0.4643210000000  0.4111910000000 1.0
C      1  0.5062070000000  0.4612200000000  0.5080090000000 1.0
C      1  0.4245450000000  0.5583470000000  0.5484210000000 1.0
C      1  0.5046780000000  0.5863200000000  0.4881180000000 1.0
C      1  0.5331300000000  0.5106020000000  0.4635420000000 1.0
C      1  0.4326350000000  0.5652480000000  0.4632280000000 1.0
C      1  0.5831330000000  0.4797070000000  0.5547310000000 1.0
C      1  0.4579700000000  0.5685550000000  0.4777390000000 1.0
C      1  0.5712350000000  0.5654160000000  0.4517760000000 1.0
C      1  0.5320600000000  0.5209770000000  0.5179500000000 1.0
C      1  0.4525660000000  0.5114140000000  0.4293080000000 1.0
C      1  0.4315730000000  0.4557100000000  0.5484610000000 1.0
C      1  0.5416540000000  0.4834880000000  0.5781830000000 1.0
C      1  0.4999720000000  0.4351040000000  0.5607470000000 1.0
C      1  0.4368340000000  0.5438580000000  0.5717430000000 1.0
C      1  0.5557690000000  0.5424550000000  0.4814100000000 1.0
C      1  0.4311160000000  0.5551130000000  0.4362530000000 1.0
C      1  0.5032730000000  0.4677880000000  0.4618800000000 1.0
C      1  0.5200890000000  0.5195040000000  0.6132100000000 1.0
C      1  0.5075930000000  0.5749830000000  0.5808500000000 1.0
C      1  0.5826140000000  0.5119430000000  0.4721450000000 1.0
C      1  0.5249600000000  0.4267450000000  0.5401940000000 1.0
C      1  0.4863420000000  0.5283690000000  0.3969370000000 1.0
C      1  0.5707000000000  0.4261180000000  0.5199290000000 1.0
C      1  0.4718790000000  0.5496680000000  0.4069950000000 1.0
C      1  0.5156470000000  0.4251510000000  0.4448990000000 1.0
C      1  0.5248030000000  0.4429590000000  0.4265790000000 1.0
C      1  0.5196580000000  0.4698100000000  0.5938950000000 1.0
C      1  0.5031490000000  0.5839510000000  0.4377400000000 1.0
C      1  0.4419370000000  0.5149300000000  0.5652400000000 1.0
C      1  0.6151650000000  0.4674750000000  0.4744890000000 1.0
C      1  0.5234180000000  0.5250480000000  0.4402860000000 1.0
C      1  0.5635820000000  0.4603400000000  0.5425360000000 1.0
C      1  0.4478630000000  0.4118230000000  0.4792660000000 1.0
C      1  0.4701040000000  0.4777880000000  0.4971600000000 1.0
C      1  0.5002180000000  0.5054610000000  0.3915400000000 1.0
C      1  0.5170240000000  0.4765280000000  0.4858090000000 1.0
C      1  0.5187800000000  0.5883740000000  0.4608540000000 1.0
C      1  0.4813850000000  0.5740550000000  0.5448630000000 1.0
C      1  0.4119040000000  0.5157070000000  0.4633600000000 1.0
C      1  0.4207670000000  0.5088700000000  0.4883420000000 1.0
C      1  0.4517080000000  0.4516400000000  0.5676180000000 1.0
C      1  0.5462540000000  0.4807910000000  0.4882420000000 1.0
C      1  0.4687910000000  0.5243180000000  0.5983140000000 1.0
C      1  0.4959310000000  0.4853180000000  0.4397770000000 1.0
C      1  0.5242970000000  0.4974490000000  0.5332220000000 1.0
C      1  0.5594360000000  0.5029830000000  0.4551970000000 1.0
C      1  0.4601090000000  0.4333060000000  0.5271770000000 1.0
C      1  0.5773910000000  0.5082340000000  0.5619880000000 1.0
C      1  0.5324350000000  0.5589770000000  0.5836510000000 1.0
C      1  0.4590810000000  0.5010420000000  0.5844040000000 1.0
C      1  0.5539760000000  0.4729420000000  0.4252030000000 1.0
C      1  0.4904740000000  0.4398870000000  0.4600330000000 1.0
C      1  0.5358070000000  0.4204970000000  0.4664330000000 1.0
C      1  0.4052470000000  0.4909310000000  0.5254000000000 1.0
C      1  0.5295270000000  0.5785830000000  0.5613310000000 1.0
C      1  0.5503840000000  0.4571540000000  0.5035830000000 1.0
C      1  0.4647820000000  0.5846960000000  0.5217400000000 1.0
C      1  0.4602940000000  0.5232090000000  0.5466420000000 1.0
C      1  0.5146700000000  0.4928160000000  0.6086970000000 1.0
C      1  0.5457810000000  0.5283190000000  0.4221900000000 1.0
C      1  0.4904880000000  0.5248010000000  0.6190080000000 1.0
C      1  0.5685660000000  0.4555630000000  0.4456170000000 1.0
C      1  0.4242880000000  0.4801390000000  0.4810630000000 1.0
C      1  0.4586950000000  0.4459300000000  0.4594500000000 1.0
C      1  0.5408310000000  0.4790160000000  0.5489040000000 1.0
C      1  0.4149010000000  0.5434950000000  0.4549500000000 1.0
C      1  0.5376650000000  0.5314630000000  0.5913670000000 1.0
C      1  0.4964500000000  0.5493380000000  0.5393040000000 1.0
C      1  0.4483190000000  0.5391820000000  0.4205890000000 1.0
C      1  0.4976670000000  0.4552910000000  0.5800350000000 1.0
C      1  0.4416920000000  0.5721460000000  0.5311190000000 1.0
C      1  0.5067310000000  0.5445540000000  0.5124400000000 1.0
C      1  0.5620970000000  0.5196220000000  0.5168650000000 1.0
C      1  0.5647060000000  0.5797330000000  0.5346740000000 1.0
C      1  0.4330620000000  0.5287520000000  0.5061650000000 1.0
C      1  0.4594810000000  0.4046790000000  0.4122690000000 1.0
C      1  0.4919000000000  0.3935730000000  0.5251650000000 1.0
C      1  0.4515900000000  0.4676510000000  0.4776780000000 1.0
C      1  0.4495810000000  0.5116550000000  0.5251980000000 1.0
C      1  0.4602870000000  0.5516420000000  0.5855800000000 1.0
C      1  0.4932820000000  0.4173640000000  0.4786430000000 1.0
C      1  0.5542850000000  0.5100550000000  0.5808290000000 1.0
C      1  0.4712400000000  0.4328020000000  0.5554960000000 1.0
END
