TITL C-4164233-775-544 103.590027370622 125000 -28910.6591586824 0 0 197 (C1) n - 1
REM
REM in /home/nfs/bkarasulu/CARBON/AIRSS/Generating-Clusters/ReaxFF-fromJPCA2015/Units_Real/with-SteepDescent/Only-C1/SD-CG/Try1-3A/FIRE-CG
REM
REM
REM
REM
REM
REM ./C.cell (11c1c37f851c82e70ff6c80c92926a4b)
REM
REM compiler GCC version 9.2.1 20190827 (Red Hat 9.2.1-1)
REM options -cpp -mtune=generic -march=x86-64 -g -O0 -fpre-include=/usr/include/finclude/math-vector-fortran.h
REM seed 2113106067 -1128930725 1456774259 -2127280913 926950010 168611193 -1774045961 -644124490 251330228 1632251072 -1094721011 -1056430313 -34591461 211277133 1461425582 800629631 1509790565 1774353868 -886283707 1773422204 -847748880 1241219304 -186387688 -1285368634 -431863488 -1017609677 454274219 699152741 284015615 345850717 143841652 687681760 -640088647
REM
CELL 1.54180   50.00000   50.00000   50.00000   90.00000   90.00000   90.00000
LATT -1
SFAC C  
C      1  0.5334320000000  0.4737060000000  0.5252450000000 1.0
C      1  0.4950060000000  0.4323120000000  0.5838420000000 1.0
C      1  0.5502840000000  0.4186880000000  0.4960760000000 1.0
C      1  0.5660420000000  0.5903340000000  0.5305140000000 1.0
C      1  0.4472190000000  0.5518700000000  0.5150370000000 1.0
C      1  0.5335290000000  0.4649140000000  0.5894160000000 1.0
C      1  0.4239590000000  0.5003460000000  0.4265710000000 1.0
C      1  0.4927300000000  0.5901300000000  0.5678690000000 1.0
C      1  0.4927700000000  0.4315350000000  0.4960540000000 1.0
C      1  0.4501230000000  0.4198500000000  0.4517790000000 1.0
C      1  0.4171940000000  0.4867500000000  0.5679990000000 1.0
C      1  0.5806460000000  0.4457480000000  0.4576430000000 1.0
C      1  0.4627040000000  0.5325710000000  0.5312710000000 1.0
C      1  0.4051930000000  0.4389470000000  0.5085850000000 1.0
C      1  0.4093300000000  0.4628660000000  0.5528720000000 1.0
C      1  0.4908950000000  0.5548130000000  0.4920740000000 1.0
C      1  0.4838890000000  0.5619540000000  0.5740240000000 1.0
C      1  0.5924530000000  0.5802010000000  0.5249920000000 1.0
C      1  0.5633690000000  0.4589620000000  0.5284150000000 1.0
C      1  0.4928240000000  0.5975470000000  0.4699990000000 1.0
C      1  0.5809190000000  0.5831240000000  0.4750090000000 1.0
C      1  0.6106610000000  0.5481680000000  0.4992320000000 1.0
C      1  0.4395630000000  0.5191650000000  0.4822980000000 1.0
C      1  0.5882770000000  0.4892170000000  0.4498940000000 1.0
C      1  0.5112640000000  0.4506450000000  0.3947450000000 1.0
C      1  0.5462860000000  0.5240930000000  0.5046180000000 1.0
C      1  0.5906650000000  0.5302270000000  0.4861030000000 1.0
C      1  0.5674750000000  0.5586570000000  0.4368500000000 1.0
C      1  0.4152150000000  0.5882320000000  0.5119840000000 1.0
C      1  0.6198350000000  0.4722180000000  0.4930370000000 1.0
C      1  0.4111070000000  0.4444430000000  0.4799740000000 1.0
C      1  0.5759950000000  0.5389770000000  0.4562020000000 1.0
C      1  0.4692310000000  0.4042870000000  0.5247090000000 1.0
C      1  0.5810890000000  0.4690940000000  0.5963860000000 1.0
C      1  0.3812400000000  0.4721860000000  0.4810100000000 1.0
C      1  0.5334930000000  0.5403020000000  0.3951440000000 1.0
C      1  0.5661330000000  0.4282230000000  0.5242640000000 1.0
C      1  0.4631460000000  0.4317710000000  0.5289240000000 1.0
C      1  0.5318260000000  0.4912870000000  0.5491030000000 1.0
C      1  0.5189140000000  0.4832870000000  0.6063520000000 1.0
C      1  0.4528060000000  0.4381400000000  0.4296210000000 1.0
C      1  0.4726370000000  0.5047250000000  0.4480790000000 1.0
C      1  0.4817440000000  0.4950620000000  0.5606650000000 1.0
C      1  0.4003870000000  0.5230200000000  0.5901730000000 1.0
C      1  0.4868190000000  0.4126730000000  0.4209570000000 1.0
C      1  0.4210090000000  0.4966050000000  0.4842770000000 1.0
C      1  0.5306740000000  0.5461740000000  0.5877740000000 1.0
C      1  0.5468300000000  0.4074880000000  0.4455220000000 1.0
C      1  0.5514460000000  0.5173600000000  0.3901110000000 1.0
C      1  0.4313730000000  0.5211320000000  0.4050720000000 1.0
C      1  0.4401110000000  0.4926280000000  0.5870690000000 1.0
C      1  0.5768380000000  0.5499030000000  0.5640160000000 1.0
C      1  0.4854160000000  0.5418220000000  0.4679500000000 1.0
C      1  0.4532320000000  0.5075970000000  0.5029920000000 1.0
C      1  0.4668470000000  0.4690200000000  0.5060000000000 1.0
C      1  0.5713980000000  0.5107120000000  0.5088610000000 1.0
C      1  0.5057230000000  0.5316380000000  0.3875250000000 1.0
C      1  0.4805510000000  0.5591150000000  0.4188560000000 1.0
C      1  0.4477180000000  0.5853930000000  0.5473830000000 1.0
C      1  0.4600040000000  0.4775130000000  0.5519260000000 1.0
C      1  0.4718950000000  0.4464020000000  0.5934060000000 1.0
C      1  0.5681960000000  0.5112190000000  0.4555950000000 1.0
C      1  0.3848050000000  0.5222400000000  0.4888030000000 1.0
C      1  0.5607330000000  0.5249150000000  0.5583630000000 1.0
C      1  0.4870130000000  0.5134530000000  0.5846110000000 1.0
C      1  0.5556970000000  0.4887640000000  0.3990990000000 1.0
C      1  0.4974460000000  0.5126920000000  0.4343980000000 1.0
C      1  0.5499650000000  0.4794970000000  0.5690070000000 1.0
C      1  0.6120150000000  0.5387280000000  0.5273750000000 1.0
C      1  0.5499710000000  0.5089290000000  0.4172840000000 1.0
C      1  0.4830810000000  0.5362390000000  0.5499640000000 1.0
C      1  0.5778350000000  0.4655580000000  0.4369470000000 1.0
C      1  0.5239730000000  0.5550260000000  0.4418590000000 1.0
C      1  0.5017720000000  0.6134830000000  0.5350420000000 1.0
C      1  0.4855970000000  0.4370940000000  0.4039680000000 1.0
C      1  0.4048490000000  0.5369550000000  0.4356130000000 1.0
C      1  0.5768350000000  0.4103750000000  0.4851300000000 1.0
C      1  0.4717300000000  0.5967020000000  0.4522360000000 1.0
C      1  0.5363860000000  0.4340230000000  0.5868390000000 1.0
C      1  0.5116270000000  0.4591280000000  0.5352210000000 1.0
C      1  0.4615910000000  0.4556190000000  0.4088830000000 1.0
C      1  0.5507980000000  0.5866310000000  0.5562110000000 1.0
C      1  0.3983750000000  0.5648790000000  0.5107320000000 1.0
C      1  0.5785050000000  0.5099660000000  0.5376140000000 1.0
C      1  0.4743870000000  0.3935870000000  0.4930530000000 1.0
C      1  0.3956310000000  0.5502630000000  0.5355900000000 1.0
C      1  0.5174400000000  0.4831490000000  0.4997130000000 1.0
C      1  0.4294390000000  0.4955590000000  0.5131870000000 1.0
C      1  0.5394060000000  0.6140620000000  0.4729340000000 1.0
C      1  0.4936190000000  0.3988460000000  0.4460730000000 1.0
C      1  0.5724770000000  0.4172540000000  0.4574040000000 1.0
C      1  0.5423760000000  0.5488340000000  0.5176040000000 1.0
C      1  0.5699170000000  0.4881800000000  0.6136300000000 1.0
C      1  0.5298930000000  0.4244560000000  0.4287610000000 1.0
C      1  0.4754000000000  0.3975410000000  0.5521620000000 1.0
C      1  0.5710920000000  0.4615850000000  0.4811240000000 1.0
C      1  0.5013440000000  0.5299210000000  0.4867820000000 1.0
C      1  0.6136620000000  0.4873460000000  0.4662720000000 1.0
C      1  0.5031960000000  0.4355380000000  0.5225170000000 1.0
C      1  0.3890660000000  0.5221630000000  0.5383420000000 1.0
C      1  0.5535820000000  0.5628500000000  0.5754200000000 1.0
C      1  0.4283550000000  0.4686910000000  0.4718720000000 1.0
C      1  0.5132600000000  0.5819190000000  0.4706140000000 1.0
C      1  0.3995910000000  0.5087470000000  0.4405250000000 1.0
C      1  0.4568920000000  0.5810970000000  0.5169420000000 1.0
C      1  0.5476680000000  0.5236290000000  0.5900100000000 1.0
C      1  0.5515320000000  0.4663670000000  0.4200540000000 1.0
C      1  0.4496960000000  0.4048870000000  0.5650370000000 1.0
C      1  0.6068970000000  0.5099650000000  0.5327440000000 1.0
C      1  0.4714390000000  0.4029950000000  0.4645470000000 1.0
C      1  0.5280460000000  0.4152100000000  0.5640220000000 1.0
C      1  0.5419390000000  0.6010510000000  0.4455560000000 1.0
C      1  0.5251700000000  0.4630900000000  0.4758060000000 1.0
C      1  0.4585580000000  0.5135240000000  0.3982500000000 1.0
C      1  0.5274130000000  0.4741850000000  0.4434290000000 1.0
C      1  0.5844870000000  0.4485070000000  0.5762870000000 1.0
C      1  0.4060960000000  0.5577760000000  0.4561400000000 1.0
C      1  0.4292790000000  0.5719480000000  0.4532640000000 1.0
C      1  0.3907480000000  0.5015980000000  0.4687850000000 1.0
C      1  0.5352310000000  0.3960760000000  0.5273090000000 1.0
C      1  0.4896260000000  0.4915230000000  0.6035290000000 1.0
C      1  0.4550070000000  0.4241910000000  0.5864960000000 1.0
C      1  0.6109370000000  0.5114480000000  0.4786780000000 1.0
C      1  0.5330700000000  0.5644730000000  0.4673880000000 1.0
C      1  0.4984140000000  0.4105000000000  0.5671970000000 1.0
C      1  0.5015770000000  0.4631680000000  0.4401160000000 1.0
C      1  0.4402420000000  0.4146150000000  0.4969440000000 1.0
C      1  0.4455530000000  0.5147370000000  0.4424240000000 1.0
C      1  0.5322100000000  0.6042730000000  0.4991740000000 1.0
C      1  0.5520120000000  0.4099470000000  0.5456470000000 1.0
C      1  0.4531760000000  0.5666200000000  0.5691670000000 1.0
C      1  0.4121070000000  0.5627250000000  0.5567540000000 1.0
C      1  0.5475690000000  0.4455710000000  0.4839240000000 1.0
C      1  0.4201430000000  0.5871230000000  0.5417000000000 1.0
C      1  0.5779130000000  0.4773280000000  0.5060500000000 1.0
C      1  0.5081140000000  0.4398240000000  0.4742060000000 1.0
C      1  0.5076690000000  0.4365860000000  0.4463170000000 1.0
C      1  0.5971460000000  0.5576550000000  0.5436090000000 1.0
C      1  0.4339280000000  0.5405040000000  0.4289630000000 1.0
C      1  0.4279400000000  0.4217420000000  0.4717410000000 1.0
C      1  0.4642920000000  0.4853840000000  0.4018590000000 1.0
C      1  0.5239460000000  0.3955020000000  0.4589350000000 1.0
C      1  0.5689900000000  0.5857280000000  0.4478590000000 1.0
C      1  0.3813610000000  0.4789260000000  0.5094880000000 1.0
C      1  0.5130640000000  0.4785400000000  0.3887510000000 1.0
C      1  0.4886220000000  0.4869390000000  0.5068320000000 1.0
C      1  0.5727180000000  0.4666590000000  0.5556700000000 1.0
C      1  0.5402090000000  0.5103140000000  0.4625570000000 1.0
C      1  0.4301860000000  0.5429570000000  0.4942930000000 1.0
C      1  0.5494070000000  0.5774860000000  0.5083840000000 1.0
C      1  0.5037200000000  0.5035890000000  0.3799700000000 1.0
C      1  0.6083120000000  0.4467290000000  0.4993970000000 1.0
C      1  0.4467370000000  0.4763950000000  0.5253790000000 1.0
C      1  0.4007100000000  0.5481120000000  0.4872960000000 1.0
C      1  0.5294210000000  0.3934580000000  0.4871330000000 1.0
C      1  0.4213000000000  0.4164110000000  0.5191500000000 1.0
C      1  0.3970950000000  0.5083110000000  0.5636900000000 1.0
C      1  0.4389640000000  0.5928620000000  0.4957520000000 1.0
C      1  0.4990650000000  0.6130060000000  0.5597830000000 1.0
C      1  0.5262920000000  0.5130370000000  0.4874610000000 1.0
C      1  0.4959660000000  0.5423680000000  0.4402600000000 1.0
C      1  0.5181300000000  0.4134560000000  0.5217660000000 1.0
C      1  0.5587860000000  0.5657250000000  0.4823370000000 1.0
C      1  0.4935460000000  0.4936590000000  0.4048750000000 1.0
C      1  0.5631460000000  0.4296760000000  0.5788840000000 1.0
C      1  0.4650150000000  0.4781560000000  0.5957370000000 1.0
C      1  0.5094670000000  0.5395580000000  0.5398660000000 1.0
C      1  0.3815180000000  0.5091790000000  0.5136050000000 1.0
C      1  0.4647880000000  0.4400540000000  0.5007500000000 1.0
C      1  0.5011960000000  0.5402430000000  0.5864430000000 1.0
C      1  0.5360450000000  0.4431640000000  0.4076450000000 1.0
C      1  0.4306350000000  0.5214160000000  0.5896980000000 1.0
C      1  0.5173130000000  0.5949240000000  0.4315280000000 1.0
C      1  0.4323020000000  0.5478720000000  0.5732670000000 1.0
C      1  0.4530310000000  0.4706240000000  0.4616100000000 1.0
C      1  0.5418820000000  0.5532270000000  0.4206360000000 1.0
C      1  0.4266600000000  0.4142410000000  0.5481630000000 1.0
C      1  0.5917600000000  0.4247030000000  0.5061980000000 1.0
C      1  0.4275240000000  0.4409600000000  0.5595000000000 1.0
C      1  0.4887990000000  0.5861970000000  0.4296000000000 1.0
C      1  0.5375800000000  0.5373540000000  0.5427010000000 1.0
C      1  0.5023150000000  0.3846830000000  0.4962010000000 1.0
C      1  0.6058830000000  0.4852000000000  0.5158130000000 1.0
C      1  0.5047660000000  0.4804790000000  0.5531410000000 1.0
C      1  0.4797930000000  0.5384370000000  0.3987770000000 1.0
C      1  0.4893440000000  0.5783570000000  0.5100220000000 1.0
C      1  0.4570040000000  0.4482350000000  0.5528040000000 1.0
C      1  0.5259140000000  0.5030940000000  0.4402520000000 1.0
C      1  0.5999490000000  0.5754030000000  0.4966450000000 1.0
C      1  0.3959680000000  0.4595710000000  0.5268070000000 1.0
C      1  0.5281130000000  0.5787450000000  0.5438800000000 1.0
C      1  0.4453290000000  0.5901400000000  0.4662410000000 1.0
C      1  0.4782770000000  0.5128800000000  0.5167060000000 1.0
C      1  0.4778450000000  0.4765460000000  0.4520580000000 1.0
C      1  0.5037890000000  0.6062040000000  0.5075460000000 1.0
C      1  0.5418230000000  0.5018710000000  0.6083300000000 1.0
C      1  0.5056290000000  0.5682190000000  0.5331360000000 1.0
END
