TITL C-4164243-3780-664 36.5333072626506 125000 -24654.0864272651 0 0 164 (C1) n - 1
REM
REM in /home/nfs/bkarasulu/CARBON/AIRSS/Generating-Clusters/ReaxFF-fromJPCA2015/Units_Real/with-SteepDescent/Only-C1/SD-CG/Try1-3A/FIRE-CG
REM
REM
REM
REM
REM
REM ./C.cell (11c1c37f851c82e70ff6c80c92926a4b)
REM
REM compiler GCC version 9.2.1 20190827 (Red Hat 9.2.1-1)
REM options -cpp -mtune=generic -march=x86-64 -g -O0 -fpre-include=/usr/include/finclude/math-vector-fortran.h
REM seed -1825228071 -1736674627 -2097820952 -543570980 1435374600 -312443512 -1696350013 -952867700 787565090 -1056497970 1861571092 -1089000725 408990070 1940656202 1870267636 -1410161795 2031681957 214814167 1747382344 14715979 913232716 -820807439 -1819810359 1069848750 1842304882 1895227361 1398398618 139217311 -1730324690 1811507396 -621612796 -1779545899 1833131808
REM
CELL 1.54180   50.00000   50.00000   50.00000   90.00000   90.00000   90.00000
LATT -1
SFAC C  
C      1  0.4636570000000  0.4544390000000  0.4788140000000 1.0
C      1  0.5384640000000  0.4812090000000  0.6024700000000 1.0
C      1  0.4048260000000  0.4899080000000  0.5423120000000 1.0
C      1  0.4092440000000  0.4871230000000  0.4456970000000 1.0
C      1  0.4955240000000  0.4493470000000  0.6030840000000 1.0
C      1  0.4701510000000  0.5034040000000  0.5208840000000 1.0
C      1  0.5256220000000  0.5065190000000  0.6124210000000 1.0
C      1  0.4760760000000  0.4588410000000  0.4068380000000 1.0
C      1  0.5671310000000  0.5125920000000  0.4697750000000 1.0
C      1  0.5152470000000  0.4049550000000  0.4766430000000 1.0
C      1  0.4553130000000  0.5287840000000  0.5179340000000 1.0
C      1  0.5645790000000  0.4226580000000  0.4690880000000 1.0
C      1  0.4225490000000  0.5078570000000  0.4288910000000 1.0
C      1  0.5278620000000  0.5755170000000  0.5718640000000 1.0
C      1  0.5244180000000  0.4759190000000  0.3998230000000 1.0
C      1  0.4746510000000  0.5517920000000  0.4206440000000 1.0
C      1  0.5144480000000  0.4623670000000  0.5431420000000 1.0
C      1  0.5625510000000  0.4541720000000  0.5391840000000 1.0
C      1  0.5088250000000  0.4066110000000  0.5053260000000 1.0
C      1  0.5397260000000  0.4713130000000  0.5347810000000 1.0
C      1  0.6015130000000  0.4739120000000  0.4964360000000 1.0
C      1  0.4582010000000  0.5937010000000  0.4834120000000 1.0
C      1  0.4835360000000  0.5543360000000  0.4723870000000 1.0
C      1  0.4376260000000  0.5664240000000  0.5677800000000 1.0
C      1  0.4759530000000  0.4854820000000  0.5424890000000 1.0
C      1  0.4563160000000  0.4747540000000  0.6021050000000 1.0
C      1  0.4526990000000  0.4230990000000  0.4418060000000 1.0
C      1  0.4802270000000  0.6039310000000  0.4981980000000 1.0
C      1  0.5668440000000  0.5487920000000  0.4219060000000 1.0
C      1  0.4671040000000  0.4059180000000  0.4615620000000 1.0
C      1  0.5355650000000  0.4983150000000  0.5300050000000 1.0
C      1  0.5612080000000  0.5213590000000  0.5872610000000 1.0
C      1  0.5146590000000  0.4275400000000  0.4142620000000 1.0
C      1  0.4215170000000  0.5594180000000  0.5399290000000 1.0
C      1  0.4753710000000  0.4340720000000  0.5880760000000 1.0
C      1  0.5255090000000  0.6035280000000  0.5108640000000 1.0
C      1  0.4037780000000  0.5208260000000  0.5385790000000 1.0
C      1  0.5916460000000  0.5720640000000  0.4687420000000 1.0
C      1  0.5416050000000  0.4851150000000  0.4215140000000 1.0
C      1  0.5572740000000  0.5095570000000  0.5155010000000 1.0
C      1  0.4517440000000  0.4999220000000  0.5864280000000 1.0
C      1  0.4347420000000  0.5016250000000  0.4803910000000 1.0
C      1  0.4317140000000  0.4471360000000  0.5657210000000 1.0
C      1  0.4168760000000  0.4611810000000  0.4444130000000 1.0
C      1  0.4445480000000  0.4329620000000  0.4895580000000 1.0
C      1  0.4864720000000  0.5445220000000  0.5877190000000 1.0
C      1  0.4794130000000  0.5748590000000  0.4377480000000 1.0
C      1  0.5322700000000  0.4677410000000  0.4635440000000 1.0
C      1  0.4455030000000  0.5272720000000  0.4868250000000 1.0
C      1  0.4622690000000  0.4075820000000  0.4903530000000 1.0
C      1  0.5017070000000  0.5027080000000  0.5684080000000 1.0
C      1  0.5974980000000  0.4571040000000  0.4772000000000 1.0
C      1  0.5620300000000  0.4925460000000  0.5891300000000 1.0
C      1  0.5978860000000  0.5441770000000  0.4640420000000 1.0
C      1  0.5237110000000  0.5397860000000  0.5514030000000 1.0
C      1  0.5252710000000  0.4899450000000  0.4481170000000 1.0
C      1  0.5467040000000  0.5338200000000  0.4715550000000 1.0
C      1  0.5820620000000  0.4909680000000  0.5656530000000 1.0
C      1  0.4134420000000  0.4708410000000  0.5679790000000 1.0
C      1  0.5147900000000  0.5006400000000  0.3847240000000 1.0
C      1  0.5583870000000  0.5747920000000  0.4309630000000 1.0
C      1  0.5047780000000  0.4158140000000  0.5514160000000 1.0
C      1  0.5390700000000  0.4116960000000  0.4604210000000 1.0
C      1  0.4682770000000  0.4628960000000  0.5269590000000 1.0
C      1  0.5604840000000  0.4408660000000  0.4918600000000 1.0
C      1  0.3872240000000  0.5178700000000  0.5139780000000 1.0
C      1  0.5050270000000  0.4379550000000  0.5321580000000 1.0
C      1  0.4868780000000  0.4475710000000  0.5113030000000 1.0
C      1  0.4717810000000  0.4421450000000  0.4309320000000 1.0
C      1  0.5460820000000  0.5571800000000  0.5590460000000 1.0
C      1  0.5051570000000  0.6022390000000  0.5295310000000 1.0
C      1  0.4205310000000  0.5684350000000  0.5113810000000 1.0
C      1  0.5086420000000  0.5814110000000  0.4406830000000 1.0
C      1  0.5303590000000  0.5708030000000  0.4240700000000 1.0
C      1  0.5702330000000  0.4838610000000  0.4253880000000 1.0
C      1  0.5388300000000  0.5446740000000  0.4098290000000 1.0
C      1  0.5473750000000  0.5929540000000  0.4718890000000 1.0
C      1  0.4274710000000  0.4416820000000  0.5158870000000 1.0
C      1  0.4638040000000  0.5840800000000  0.5271930000000 1.0
C      1  0.3974780000000  0.5271420000000  0.4887200000000 1.0
C      1  0.4054110000000  0.4980400000000  0.4758850000000 1.0
C      1  0.5069500000000  0.6074890000000  0.4880810000000 1.0
C      1  0.4441450000000  0.5080230000000  0.4087840000000 1.0
C      1  0.5912560000000  0.5346390000000  0.5417170000000 1.0
C      1  0.5344600000000  0.4107980000000  0.5215430000000 1.0
C      1  0.5015820000000  0.4675080000000  0.4962520000000 1.0
C      1  0.5523980000000  0.4683970000000  0.4836010000000 1.0
C      1  0.4637760000000  0.4159280000000  0.5397570000000 1.0
C      1  0.5227170000000  0.5113610000000  0.5520580000000 1.0
C      1  0.4304270000000  0.5323630000000  0.5363340000000 1.0
C      1  0.4595960000000  0.4854820000000  0.4695060000000 1.0
C      1  0.4387910000000  0.4305790000000  0.5424510000000 1.0
C      1  0.4489980000000  0.5373370000000  0.4154520000000 1.0
C      1  0.4847490000000  0.5055440000000  0.4257670000000 1.0
C      1  0.5167060000000  0.5136830000000  0.4997680000000 1.0
C      1  0.5833620000000  0.5204470000000  0.5657670000000 1.0
C      1  0.5695330000000  0.5576060000000  0.5372080000000 1.0
C      1  0.4703000000000  0.4872890000000  0.4411560000000 1.0
C      1  0.5792680000000  0.5054780000000  0.4436670000000 1.0
C      1  0.5148690000000  0.5904290000000  0.5506130000000 1.0
C      1  0.5551880000000  0.4308840000000  0.5608300000000 1.0
C      1  0.5429180000000  0.5516910000000  0.4951940000000 1.0
C      1  0.5190050000000  0.4616380000000  0.5907340000000 1.0
C      1  0.5652920000000  0.4934730000000  0.4922700000000 1.0
C      1  0.4358880000000  0.5475440000000  0.4662840000000 1.0
C      1  0.4903250000000  0.5551180000000  0.4972330000000 1.0
C      1  0.5861680000000  0.5334160000000  0.4382810000000 1.0
C      1  0.5036190000000  0.5504910000000  0.5343230000000 1.0
C      1  0.5947950000000  0.5686380000000  0.4982150000000 1.0
C      1  0.5358160000000  0.4116420000000  0.5521090000000 1.0
C      1  0.4521780000000  0.5843140000000  0.5528760000000 1.0
C      1  0.4868120000000  0.4943490000000  0.3878380000000 1.0
C      1  0.4835410000000  0.4469960000000  0.4591220000000 1.0
C      1  0.4121420000000  0.5520150000000  0.4875180000000 1.0
C      1  0.5327430000000  0.4135780000000  0.4321030000000 1.0
C      1  0.6009840000000  0.5395610000000  0.4940340000000 1.0
C      1  0.4613760000000  0.5710120000000  0.4625710000000 1.0
C      1  0.5496130000000  0.5856860000000  0.5005740000000 1.0
C      1  0.4789090000000  0.4158600000000  0.5648900000000 1.0
C      1  0.4900980000000  0.5306460000000  0.4327650000000 1.0
C      1  0.5351230000000  0.5320780000000  0.5970860000000 1.0
C      1  0.4245750000000  0.4345400000000  0.4466160000000 1.0
C      1  0.4416860000000  0.5883530000000  0.5070390000000 1.0
C      1  0.4797850000000  0.4069080000000  0.5131160000000 1.0
C      1  0.5264920000000  0.5235440000000  0.3969550000000 1.0
C      1  0.4951090000000  0.4016120000000  0.4560340000000 1.0
C      1  0.3858360000000  0.4886430000000  0.5180430000000 1.0
C      1  0.5200280000000  0.5956820000000  0.4633710000000 1.0
C      1  0.4508010000000  0.4496120000000  0.5879740000000 1.0
C      1  0.5591360000000  0.5382820000000  0.5152100000000 1.0
C      1  0.5815980000000  0.4548730000000  0.4304080000000 1.0
C      1  0.4927850000000  0.4973330000000  0.5002600000000 1.0
C      1  0.5683020000000  0.5845050000000  0.4561100000000 1.0
C      1  0.3936420000000  0.4747210000000  0.4940720000000 1.0
C      1  0.4609610000000  0.5553890000000  0.5805370000000 1.0
C      1  0.4804140000000  0.5177170000000  0.5810450000000 1.0
C      1  0.5232380000000  0.5166930000000  0.4706860000000 1.0
C      1  0.4201650000000  0.4909180000000  0.5869810000000 1.0
C      1  0.4772140000000  0.5545160000000  0.5218680000000 1.0
C      1  0.5174760000000  0.5535950000000  0.5896990000000 1.0
C      1  0.4624670000000  0.4862220000000  0.3975120000000 1.0
C      1  0.4807010000000  0.5053570000000  0.4760980000000 1.0
C      1  0.5860670000000  0.4396490000000  0.4585510000000 1.0
C      1  0.5556250000000  0.4303600000000  0.5184110000000 1.0
C      1  0.5994860000000  0.5211710000000  0.5173000000000 1.0
C      1  0.5986820000000  0.4902390000000  0.5197260000000 1.0
C      1  0.4038370000000  0.4479520000000  0.4953450000000 1.0
C      1  0.5088330000000  0.4551690000000  0.4716250000000 1.0
C      1  0.4346020000000  0.4899560000000  0.5349560000000 1.0
C      1  0.5040600000000  0.4732880000000  0.5680670000000 1.0
C      1  0.4824740000000  0.4730270000000  0.6163300000000 1.0
C      1  0.4923730000000  0.5288020000000  0.4616480000000 1.0
C      1  0.5767150000000  0.4466600000000  0.4072530000000 1.0
C      1  0.4420510000000  0.4675120000000  0.5193270000000 1.0
C      1  0.4986500000000  0.4859540000000  0.4373100000000 1.0
C      1  0.5060410000000  0.4058420000000  0.4296920000000 1.0
C      1  0.4526580000000  0.4940610000000  0.5568850000000 1.0
C      1  0.5125430000000  0.5425940000000  0.5070720000000 1.0
C      1  0.4167720000000  0.4324180000000  0.4748480000000 1.0
C      1  0.5852560000000  0.4759300000000  0.5413780000000 1.0
C      1  0.5017620000000  0.4936620000000  0.6169750000000 1.0
C      1  0.5048780000000  0.4535640000000  0.4045520000000 1.0
C      1  0.5739740000000  0.5782810000000  0.5156220000000 1.0
C      1  0.4308920000000  0.5349670000000  0.4383260000000 1.0
END
