TITL C-4164239-2837-402 1.76024378540033 125000 -7753.75231618533 0 0 52 (C1) n - 1
REM
REM in /home/nfs/bkarasulu/CARBON/AIRSS/Generating-Clusters/ReaxFF-fromJPCA2015/Units_Real/with-SteepDescent/Only-C1/SD-CG/Try1-3A/FIRE-CG
REM
REM
REM
REM
REM
REM ./C.cell (11c1c37f851c82e70ff6c80c92926a4b)
REM
REM compiler GCC version 9.2.1 20190827 (Red Hat 9.2.1-1)
REM options -cpp -mtune=generic -march=x86-64 -g -O0 -fpre-include=/usr/include/finclude/math-vector-fortran.h
REM seed -20203963 -977012399 1642796662 1063020296 897051201 289046151 -1113019046 955624025 -758167224 111585686 -1051443515 -141013975 142157613 1477610636 -738481699 -191370529 -820374083 2040195479 -531041720 1662272008 1029500565 -654501663 1073399517 -1680635073 -1656953738 -1935823846 -258798712 -196636233 -2049409866 2020578553 802669413 1274028982 1477589246
REM
CELL 1.54180   50.00000   50.00000   50.00000   90.00000   90.00000   90.00000
LATT -1
SFAC C  
C      1  0.4467250000000  0.5313290000000  0.5332340000000 1.0
C      1  0.4682870000000  0.4762000000000  0.4684380000000 1.0
C      1  0.4651120000000  0.5609220000000  0.4862140000000 1.0
C      1  0.4461750000000  0.4837810000000  0.5374220000000 1.0
C      1  0.5667340000000  0.4908210000000  0.5242490000000 1.0
C      1  0.5226790000000  0.4973590000000  0.4342410000000 1.0
C      1  0.4669130000000  0.5527750000000  0.5361300000000 1.0
C      1  0.4571090000000  0.4818900000000  0.4417870000000 1.0
C      1  0.5052600000000  0.4931760000000  0.5652310000000 1.0
C      1  0.4915730000000  0.5667890000000  0.4731540000000 1.0
C      1  0.5546930000000  0.4928110000000  0.4764600000000 1.0
C      1  0.4414390000000  0.5192770000000  0.5065890000000 1.0
C      1  0.4696190000000  0.4531000000000  0.5122720000000 1.0
C      1  0.5244540000000  0.4352160000000  0.4563680000000 1.0
C      1  0.5366450000000  0.4299860000000  0.4850080000000 1.0
C      1  0.4736040000000  0.4941370000000  0.4197770000000 1.0
C      1  0.4921600000000  0.4918680000000  0.4754950000000 1.0
C      1  0.4954670000000  0.5039840000000  0.5151620000000 1.0
C      1  0.5640960000000  0.5214290000000  0.5255610000000 1.0
C      1  0.4673200000000  0.4630910000000  0.5390560000000 1.0
C      1  0.5521530000000  0.5216000000000  0.4806930000000 1.0
C      1  0.5043410000000  0.4814680000000  0.4999560000000 1.0
C      1  0.4917430000000  0.4679230000000  0.5554480000000 1.0
C      1  0.4859550000000  0.5097030000000  0.5468360000000 1.0
C      1  0.5580420000000  0.4757710000000  0.4998150000000 1.0
C      1  0.4884480000000  0.5402530000000  0.5508970000000 1.0
C      1  0.4989320000000  0.4489310000000  0.5039040000000 1.0
C      1  0.4767440000000  0.5680850000000  0.5127860000000 1.0
C      1  0.5457430000000  0.4492170000000  0.5053760000000 1.0
C      1  0.5240910000000  0.5502660000000  0.5161470000000 1.0
C      1  0.4541570000000  0.4691400000000  0.4936310000000 1.0
C      1  0.4876050000000  0.5504130000000  0.4514330000000 1.0
C      1  0.5321960000000  0.4595510000000  0.4464770000000 1.0
C      1  0.4554840000000  0.5085930000000  0.5488700000000 1.0
C      1  0.5001310000000  0.5080880000000  0.4228140000000 1.0
C      1  0.5536580000000  0.4802040000000  0.5467930000000 1.0
C      1  0.5040020000000  0.5653700000000  0.5019680000000 1.0
C      1  0.5229340000000  0.4440430000000  0.5230730000000 1.0
C      1  0.5163700000000  0.4528640000000  0.5498940000000 1.0
C      1  0.4859770000000  0.5175500000000  0.4908610000000 1.0
C      1  0.4601000000000  0.5317540000000  0.4879510000000 1.0
C      1  0.5086170000000  0.4307840000000  0.4810350000000 1.0
C      1  0.5321210000000  0.4741150000000  0.5633640000000 1.0
C      1  0.4836630000000  0.5342180000000  0.4299210000000 1.0
C      1  0.5439990000000  0.4843950000000  0.4473070000000 1.0
C      1  0.4403040000000  0.4899740000000  0.5093200000000 1.0
C      1  0.4373150000000  0.5052520000000  0.4390020000000 1.0
C      1  0.5511650000000  0.5203220000000  0.5505160000000 1.0
C      1  0.5246150000000  0.5198260000000  0.5596530000000 1.0
C      1  0.5486710000000  0.5373860000000  0.5061240000000 1.0
C      1  0.4580370000000  0.5190800000000  0.4215000000000 1.0
C      1  0.5166220000000  0.5439180000000  0.5447910000000 1.0
END
