TITL C-4164246-3563-426 95.9702344277078 125000 -26733.1946337117 0 0 181 (C1) n - 1
REM
REM in /home/nfs/bkarasulu/CARBON/AIRSS/Generating-Clusters/ReaxFF-fromJPCA2015/Units_Real/with-SteepDescent/Only-C1/SD-CG/Try1-3A/FIRE-CG
REM
REM
REM
REM
REM
REM ./C.cell (11c1c37f851c82e70ff6c80c92926a4b)
REM
REM compiler GCC version 9.2.1 20190827 (Red Hat 9.2.1-1)
REM options -cpp -mtune=generic -march=x86-64 -g -O0 -fpre-include=/usr/include/finclude/math-vector-fortran.h
REM seed -1588465201 -177285256 -44796184 -193349716 -318335035 -15526203 1463191912 -576191394 -1678821989 -1903861895 291775419 2050993721 -1701898480 775645711 -551139796 2072627259 -25046868 677956030 201543550 932124841 1084176194 -958721104 -892727093 -1367945495 847842365 -920074620 20871413 -1985052300 297909668 -1182198248 -1939783950 -530987135 -989106404
REM
CELL 1.54180   50.00000   50.00000   50.00000   90.00000   90.00000   90.00000
LATT -1
SFAC C  
C      1  0.5472800000000  0.5269630000000  0.5567060000000 1.0
C      1  0.4490730000000  0.4725290000000  0.4908990000000 1.0
C      1  0.5439270000000  0.5117570000000  0.6011250000000 1.0
C      1  0.5481730000000  0.5903230000000  0.5772400000000 1.0
C      1  0.5502580000000  0.5946280000000  0.4908660000000 1.0
C      1  0.4591710000000  0.4740610000000  0.6069690000000 1.0
C      1  0.4355030000000  0.5376520000000  0.5837610000000 1.0
C      1  0.4752550000000  0.5210820000000  0.3941810000000 1.0
C      1  0.4182110000000  0.4260500000000  0.5542140000000 1.0
C      1  0.5657150000000  0.4888650000000  0.4830480000000 1.0
C      1  0.5865200000000  0.4915160000000  0.4441820000000 1.0
C      1  0.4938920000000  0.4257250000000  0.5792770000000 1.0
C      1  0.5580850000000  0.4562010000000  0.4177490000000 1.0
C      1  0.4896580000000  0.3857860000000  0.5188260000000 1.0
C      1  0.4855790000000  0.4881440000000  0.6071230000000 1.0
C      1  0.5330350000000  0.5383590000000  0.5178320000000 1.0
C      1  0.4400940000000  0.5431240000000  0.4209390000000 1.0
C      1  0.4127810000000  0.5189660000000  0.4915080000000 1.0
C      1  0.5915170000000  0.4808900000000  0.5238390000000 1.0
C      1  0.5664020000000  0.5359640000000  0.4206190000000 1.0
C      1  0.4868910000000  0.4312720000000  0.5165960000000 1.0
C      1  0.5335160000000  0.4668590000000  0.4072030000000 1.0
C      1  0.5563090000000  0.5820160000000  0.4645150000000 1.0
C      1  0.4814710000000  0.3867570000000  0.4904300000000 1.0
C      1  0.4790690000000  0.5028790000000  0.5330980000000 1.0
C      1  0.5205790000000  0.5306960000000  0.5966350000000 1.0
C      1  0.4532580000000  0.5912830000000  0.5021890000000 1.0
C      1  0.5189340000000  0.4820420000000  0.4341780000000 1.0
C      1  0.5104780000000  0.4074190000000  0.5636630000000 1.0
C      1  0.4651120000000  0.5579980000000  0.4127890000000 1.0
C      1  0.4854870000000  0.4788240000000  0.5223980000000 1.0
C      1  0.5386690000000  0.3968280000000  0.4925310000000 1.0
C      1  0.4325220000000  0.4494270000000  0.4210440000000 1.0
C      1  0.4265260000000  0.4366650000000  0.4692310000000 1.0
C      1  0.6058170000000  0.4964150000000  0.4958700000000 1.0
C      1  0.4616060000000  0.5214500000000  0.4912990000000 1.0
C      1  0.5376620000000  0.4002530000000  0.5208630000000 1.0
C      1  0.5107860000000  0.4067150000000  0.4522380000000 1.0
C      1  0.5865400000000  0.4428360000000  0.5121990000000 1.0
C      1  0.4365870000000  0.5023710000000  0.5315720000000 1.0
C      1  0.4248750000000  0.5421180000000  0.4466990000000 1.0
C      1  0.5670440000000  0.4777010000000  0.5222690000000 1.0
C      1  0.5425480000000  0.4299260000000  0.4220470000000 1.0
C      1  0.5196030000000  0.4411240000000  0.4054080000000 1.0
C      1  0.5325830000000  0.5256000000000  0.4399480000000 1.0
C      1  0.4311760000000  0.5625030000000  0.4680180000000 1.0
C      1  0.3992620000000  0.4388590000000  0.5194760000000 1.0
C      1  0.5431770000000  0.4774160000000  0.4785810000000 1.0
C      1  0.4733640000000  0.5107370000000  0.5924600000000 1.0
C      1  0.3953540000000  0.4761810000000  0.5369980000000 1.0
C      1  0.4864590000000  0.4208750000000  0.4447790000000 1.0
C      1  0.4617260000000  0.5374730000000  0.5967600000000 1.0
C      1  0.4773740000000  0.4736730000000  0.4950950000000 1.0
C      1  0.6236290000000  0.5406140000000  0.5011580000000 1.0
C      1  0.4756220000000  0.4675420000000  0.4020240000000 1.0
C      1  0.5491850000000  0.4243990000000  0.5366570000000 1.0
C      1  0.5126510000000  0.4599480000000  0.4549220000000 1.0
C      1  0.5401730000000  0.4742000000000  0.5205450000000 1.0
C      1  0.4374630000000  0.5671080000000  0.4962260000000 1.0
C      1  0.4249130000000  0.5114950000000  0.5772850000000 1.0
C      1  0.4423290000000  0.4144380000000  0.4579570000000 1.0
C      1  0.4470460000000  0.4247440000000  0.4299310000000 1.0
C      1  0.5085500000000  0.5664070000000  0.4825050000000 1.0
C      1  0.3918100000000  0.4769770000000  0.5090680000000 1.0
C      1  0.4734750000000  0.4961500000000  0.4435080000000 1.0
C      1  0.4447890000000  0.4689830000000  0.4032300000000 1.0
C      1  0.5763130000000  0.5620690000000  0.5141110000000 1.0
C      1  0.4088330000000  0.5034100000000  0.5509670000000 1.0
C      1  0.5872590000000  0.4479870000000  0.4841270000000 1.0
C      1  0.4599420000000  0.4043260000000  0.4804880000000 1.0
C      1  0.5098040000000  0.5686080000000  0.4544430000000 1.0
C      1  0.5076100000000  0.4241190000000  0.4994570000000 1.0
C      1  0.4487780000000  0.5040380000000  0.4494840000000 1.0
C      1  0.4589170000000  0.5272070000000  0.4643870000000 1.0
C      1  0.4742030000000  0.5300950000000  0.5353230000000 1.0
C      1  0.5880590000000  0.5177190000000  0.5077020000000 1.0
C      1  0.3982810000000  0.4477220000000  0.5466700000000 1.0
C      1  0.5385440000000  0.4125260000000  0.4454790000000 1.0
C      1  0.5055480000000  0.5693930000000  0.5419750000000 1.0
C      1  0.4902290000000  0.4406130000000  0.4028040000000 1.0
C      1  0.4803220000000  0.5367870000000  0.4463960000000 1.0
C      1  0.5600590000000  0.5547780000000  0.4747830000000 1.0
C      1  0.4293620000000  0.5509690000000  0.5221530000000 1.0
C      1  0.5670420000000  0.4343870000000  0.4688060000000 1.0
C      1  0.4205370000000  0.4950250000000  0.4345550000000 1.0
C      1  0.4471630000000  0.4970620000000  0.5898810000000 1.0
C      1  0.4080880000000  0.5185140000000  0.4506250000000 1.0
C      1  0.4384410000000  0.5051500000000  0.4997530000000 1.0
C      1  0.5850510000000  0.5525080000000  0.4644820000000 1.0
C      1  0.4708640000000  0.5648520000000  0.4404310000000 1.0
C      1  0.4472420000000  0.4279700000000  0.5573400000000 1.0
C      1  0.5201330000000  0.5840500000000  0.5877760000000 1.0
C      1  0.4795270000000  0.5600980000000  0.5919640000000 1.0
C      1  0.4756350000000  0.5995560000000  0.5194110000000 1.0
C      1  0.5923190000000  0.4784550000000  0.4741820000000 1.0
C      1  0.5236230000000  0.5050700000000  0.4528940000000 1.0
C      1  0.5522840000000  0.4987570000000  0.5545680000000 1.0
C      1  0.4642180000000  0.4255370000000  0.5824230000000 1.0
C      1  0.5714910000000  0.5907590000000  0.5119670000000 1.0
C      1  0.6049130000000  0.5333470000000  0.4589120000000 1.0
C      1  0.4464820000000  0.5207330000000  0.4028200000000 1.0
C      1  0.5186030000000  0.5935250000000  0.4377100000000 1.0
C      1  0.4470690000000  0.5279990000000  0.5370770000000 1.0
C      1  0.4034370000000  0.5361630000000  0.5137710000000 1.0
C      1  0.4749130000000  0.4477370000000  0.4544000000000 1.0
C      1  0.5220820000000  0.5899770000000  0.5002130000000 1.0
C      1  0.5080490000000  0.5458430000000  0.5285330000000 1.0
C      1  0.4139170000000  0.4649470000000  0.4376890000000 1.0
C      1  0.3973180000000  0.5065990000000  0.4735910000000 1.0
C      1  0.5673750000000  0.5445200000000  0.5695200000000 1.0
C      1  0.5504690000000  0.5585320000000  0.5261830000000 1.0
C      1  0.5202430000000  0.4880890000000  0.4919130000000 1.0
C      1  0.4217940000000  0.5712750000000  0.5453330000000 1.0
C      1  0.6201220000000  0.5201630000000  0.4823850000000 1.0
C      1  0.5108590000000  0.4743360000000  0.6005100000000 1.0
C      1  0.5309270000000  0.5811680000000  0.5318200000000 1.0
C      1  0.5090190000000  0.5415860000000  0.4438010000000 1.0
C      1  0.5477880000000  0.4332430000000  0.5881400000000 1.0
C      1  0.5099770000000  0.3974190000000  0.4807990000000 1.0
C      1  0.5195500000000  0.5442060000000  0.4040200000000 1.0
C      1  0.4807060000000  0.5917440000000  0.5508620000000 1.0
C      1  0.4971660000000  0.6083310000000  0.5031060000000 1.0
C      1  0.4348170000000  0.4584270000000  0.5129500000000 1.0
C      1  0.4742660000000  0.4215990000000  0.4180660000000 1.0
C      1  0.5510700000000  0.5120210000000  0.4153100000000 1.0
C      1  0.5086170000000  0.4977280000000  0.4120940000000 1.0
C      1  0.4516370000000  0.5807950000000  0.4573150000000 1.0
C      1  0.5879500000000  0.5199490000000  0.4390870000000 1.0
C      1  0.5294040000000  0.4403810000000  0.4944340000000 1.0
C      1  0.3935950000000  0.4785470000000  0.4808190000000 1.0
C      1  0.4625970000000  0.4201900000000  0.5052110000000 1.0
C      1  0.5099180000000  0.4637660000000  0.5544080000000 1.0
C      1  0.4374070000000  0.5651860000000  0.5686580000000 1.0
C      1  0.5699590000000  0.5736130000000  0.5664630000000 1.0
C      1  0.4904130000000  0.5453110000000  0.4003400000000 1.0
C      1  0.5667960000000  0.4834720000000  0.4258170000000 1.0
C      1  0.5566710000000  0.4612940000000  0.5853310000000 1.0
C      1  0.4973510000000  0.5401060000000  0.4875430000000 1.0
C      1  0.3917160000000  0.5253470000000  0.5384200000000 1.0
C      1  0.4894150000000  0.4952570000000  0.3952220000000 1.0
C      1  0.5246350000000  0.5158770000000  0.3995030000000 1.0
C      1  0.4865760000000  0.6163930000000  0.4763010000000 1.0
C      1  0.4050440000000  0.4564310000000  0.4631820000000 1.0
C      1  0.4994700000000  0.4722730000000  0.4781660000000 1.0
C      1  0.4332550000000  0.4950380000000  0.4068030000000 1.0
C      1  0.4785210000000  0.4697570000000  0.4346390000000 1.0
C      1  0.4170140000000  0.4170290000000  0.5259910000000 1.0
C      1  0.5549710000000  0.4083730000000  0.4706970000000 1.0
C      1  0.4755510000000  0.5390020000000  0.5065640000000 1.0
C      1  0.5997040000000  0.5436470000000  0.5161250000000 1.0
C      1  0.5808910000000  0.4894460000000  0.5592350000000 1.0
C      1  0.4573380000000  0.4559990000000  0.5537460000000 1.0
C      1  0.5039200000000  0.6090630000000  0.4552580000000 1.0
C      1  0.5393790000000  0.4519210000000  0.4693810000000 1.0
C      1  0.4417090000000  0.4737810000000  0.5365880000000 1.0
C      1  0.5122390000000  0.3954170000000  0.5354590000000 1.0
C      1  0.5705580000000  0.5241760000000  0.5924830000000 1.0
C      1  0.5704030000000  0.5934450000000  0.5419720000000 1.0
C      1  0.5006730000000  0.5971870000000  0.5715150000000 1.0
C      1  0.4870660000000  0.4540590000000  0.5378030000000 1.0
C      1  0.5453220000000  0.5570050000000  0.4180580000000 1.0
C      1  0.5640350000000  0.5133990000000  0.4953910000000 1.0
C      1  0.4382040000000  0.4306310000000  0.5129740000000 1.0
C      1  0.4502340000000  0.4532570000000  0.4694660000000 1.0
C      1  0.4602600000000  0.6018230000000  0.4758600000000 1.0
C      1  0.4555150000000  0.4520930000000  0.5895540000000 1.0
C      1  0.5304980000000  0.4816670000000  0.5460410000000 1.0
C      1  0.5448040000000  0.6025340000000  0.5507910000000 1.0
C      1  0.5748950000000  0.4605060000000  0.5618080000000 1.0
C      1  0.5372690000000  0.4171750000000  0.5650250000000 1.0
C      1  0.5084840000000  0.5584020000000  0.5979700000000 1.0
C      1  0.5349450000000  0.4459140000000  0.5205880000000 1.0
C      1  0.5177850000000  0.5301160000000  0.5673280000000 1.0
C      1  0.5449740000000  0.5803910000000  0.4362060000000 1.0
C      1  0.5763610000000  0.4410370000000  0.5387610000000 1.0
C      1  0.5384480000000  0.4836770000000  0.5977100000000 1.0
C      1  0.4649850000000  0.5757710000000  0.5721450000000 1.0
C      1  0.5181720000000  0.5160240000000  0.4799420000000 1.0
C      1  0.5423920000000  0.5310740000000  0.4907780000000 1.0
C      1  0.5909430000000  0.5050560000000  0.5843440000000 1.0
C      1  0.5063310000000  0.4527750000000  0.5804440000000 1.0
END
