TITL C-4164237-1827-743 -20.3583589671415 125000 -7818.42979708241 0 0 53 (C1) n - 1
REM
REM in /home/nfs/bkarasulu/CARBON/AIRSS/Generating-Clusters/ReaxFF-fromJPCA2015/Units_Real/with-SteepDescent/Only-C1/SD-CG/Try1-3A/FIRE-CG
REM
REM
REM
REM
REM
REM ./C.cell (11c1c37f851c82e70ff6c80c92926a4b)
REM
REM compiler GCC version 9.2.1 20190827 (Red Hat 9.2.1-1)
REM options -cpp -mtune=generic -march=x86-64 -g -O0 -fpre-include=/usr/include/finclude/math-vector-fortran.h
REM seed -1239478895 1971267201 1003017618 -197304702 1116864042 -1717620349 -1424283397 -229917100 227735931 1295429175 -794325290 -579510611 1838090073 971678537 -225211777 -1178375124 1544989226 792048348 644578857 -1238941936 544855944 -1972708272 -58430364 222259596 2097299809 -1356205611 -1912052237 829644821 997026770 -1767172669 -1072882659 950937757 1614490657
REM
CELL 1.54180   50.00000   50.00000   50.00000   90.00000   90.00000   90.00000
LATT -1
SFAC C  
C      1  0.5066740000000  0.5366820000000  0.4504150000000 1.0
C      1  0.4791960000000  0.5272100000000  0.4526360000000 1.0
C      1  0.4419540000000  0.5197620000000  0.4820170000000 1.0
C      1  0.5049930000000  0.4729190000000  0.5505600000000 1.0
C      1  0.4986150000000  0.5127310000000  0.5747270000000 1.0
C      1  0.4631730000000  0.4943200000000  0.5428960000000 1.0
C      1  0.4455830000000  0.5137020000000  0.5102530000000 1.0
C      1  0.5621660000000  0.5330300000000  0.5088500000000 1.0
C      1  0.5149430000000  0.5517620000000  0.4744130000000 1.0
C      1  0.4703250000000  0.5036700000000  0.5702250000000 1.0
C      1  0.4304220000000  0.4651380000000  0.5109690000000 1.0
C      1  0.5007750000000  0.5115400000000  0.5035460000000 1.0
C      1  0.4671300000000  0.5627330000000  0.5158410000000 1.0
C      1  0.4399000000000  0.4891180000000  0.5248460000000 1.0
C      1  0.5103710000000  0.5372330000000  0.5631860000000 1.0
C      1  0.5178450000000  0.4908240000000  0.5683310000000 1.0
C      1  0.5120150000000  0.4619220000000  0.4427280000000 1.0
C      1  0.4691880000000  0.4780490000000  0.4282320000000 1.0
C      1  0.4735930000000  0.5165510000000  0.5228260000000 1.0
C      1  0.4712350000000  0.5441460000000  0.5362100000000 1.0
C      1  0.5127040000000  0.4890970000000  0.4578590000000 1.0
C      1  0.4802350000000  0.4963870000000  0.4525740000000 1.0
C      1  0.5594620000000  0.4627580000000  0.4773230000000 1.0
C      1  0.5399890000000  0.5455840000000  0.5260000000000 1.0
C      1  0.5153490000000  0.5600700000000  0.5205860000000 1.0
C      1  0.5413500000000  0.5028640000000  0.5555630000000 1.0
C      1  0.5393330000000  0.4431840000000  0.4786780000000 1.0
C      1  0.4403240000000  0.4916790000000  0.4731090000000 1.0
C      1  0.5660140000000  0.5380870000000  0.4793510000000 1.0
C      1  0.4721130000000  0.5624510000000  0.4883910000000 1.0
C      1  0.5214470000000  0.5287100000000  0.4918480000000 1.0
C      1  0.4975310000000  0.5553050000000  0.5437400000000 1.0
C      1  0.4254540000000  0.4702410000000  0.4842970000000 1.0
C      1  0.5260380000000  0.5147090000000  0.4495770000000 1.0
C      1  0.5362680000000  0.5315390000000  0.5514800000000 1.0
C      1  0.4389770000000  0.4465180000000  0.4897280000000 1.0
C      1  0.4666930000000  0.4393650000000  0.4832200000000 1.0
C      1  0.5434760000000  0.5189870000000  0.4725980000000 1.0
C      1  0.4848980000000  0.4356770000000  0.4602220000000 1.0
C      1  0.5575790000000  0.4895760000000  0.5353580000000 1.0
C      1  0.5576380000000  0.4636810000000  0.5187120000000 1.0
C      1  0.5102660000000  0.4891030000000  0.4896690000000 1.0
C      1  0.4776200000000  0.4632970000000  0.4959460000000 1.0
C      1  0.4840560000000  0.4542880000000  0.4341680000000 1.0
C      1  0.5362290000000  0.4476480000000  0.5068580000000 1.0
C      1  0.4963910000000  0.4626220000000  0.5317580000000 1.0
C      1  0.5062540000000  0.4614760000000  0.5040140000000 1.0
C      1  0.5141540000000  0.4388830000000  0.4596920000000 1.0
C      1  0.4615410000000  0.5391520000000  0.4716590000000 1.0
C      1  0.5722460000000  0.4784940000000  0.4969330000000 1.0
C      1  0.5690040000000  0.5044190000000  0.5137830000000 1.0
C      1  0.5015790000000  0.5673730000000  0.4946450000000 1.0
C      1  0.4676930000000  0.4837380000000  0.4769520000000 1.0
END
