TITL C-4164240-4114-161 1.72276985759233 125000 -10474.6597767625 0 0 72 (C1) n - 1
REM
REM in /home/nfs/bkarasulu/CARBON/AIRSS/Generating-Clusters/ReaxFF-fromJPCA2015/Units_Real/with-SteepDescent/Only-C1/SD-CG/Try1-3A/FIRE-CG
REM
REM
REM
REM
REM
REM ./C.cell (11c1c37f851c82e70ff6c80c92926a4b)
REM
REM compiler GCC version 9.2.1 20190827 (Red Hat 9.2.1-1)
REM options -cpp -mtune=generic -march=x86-64 -g -O0 -fpre-include=/usr/include/finclude/math-vector-fortran.h
REM seed 1558895838 1760773401 -434021212 -814832285 898152547 2125118657 -902506179 472318307 1285402722 -2092367734 630026610 1863849815 -1657313641 -54008665 -583590861 -543594049 -1849642836 1411969607 -1452121453 1675936711 825393769 1774415020 -1930019653 591084043 2105018100 -1966018643 -897300102 653295602 1443550356 -2035603835 809384812 -1160547739 -1899313637
REM
CELL 1.54180   50.00000   50.00000   50.00000   90.00000   90.00000   90.00000
LATT -1
SFAC C  
C      1  0.4752170000000  0.4902520000000  0.4100630000000 1.0
C      1  0.5446670000000  0.5444530000000  0.4633590000000 1.0
C      1  0.4633440000000  0.5028450000000  0.5040450000000 1.0
C      1  0.4907190000000  0.4779290000000  0.4323670000000 1.0
C      1  0.5506510000000  0.4588810000000  0.4771470000000 1.0
C      1  0.4264920000000  0.4789040000000  0.5607270000000 1.0
C      1  0.5823420000000  0.4949010000000  0.4681130000000 1.0
C      1  0.4166780000000  0.4688990000000  0.5365660000000 1.0
C      1  0.5242050000000  0.4596050000000  0.4648870000000 1.0
C      1  0.4906640000000  0.4480300000000  0.4363830000000 1.0
C      1  0.5637210000000  0.4979220000000  0.4460530000000 1.0
C      1  0.5354250000000  0.4685150000000  0.5703450000000 1.0
C      1  0.5092020000000  0.5034290000000  0.4836920000000 1.0
C      1  0.4876940000000  0.4566190000000  0.5582890000000 1.0
C      1  0.5266670000000  0.5037330000000  0.5207220000000 1.0
C      1  0.4696350000000  0.5240170000000  0.4852090000000 1.0
C      1  0.4378650000000  0.4475900000000  0.5357890000000 1.0
C      1  0.4349660000000  0.4902250000000  0.4937720000000 1.0
C      1  0.4783020000000  0.5467720000000  0.5339080000000 1.0
C      1  0.5052960000000  0.5357350000000  0.5335550000000 1.0
C      1  0.5104640000000  0.5117080000000  0.5807880000000 1.0
C      1  0.4340240000000  0.5163490000000  0.5362770000000 1.0
C      1  0.5020850000000  0.5460780000000  0.4320710000000 1.0
C      1  0.5431520000000  0.5440090000000  0.4929900000000 1.0
C      1  0.5281520000000  0.4895890000000  0.5889080000000 1.0
C      1  0.4757920000000  0.4751470000000  0.5781800000000 1.0
C      1  0.4721630000000  0.4941730000000  0.4505410000000 1.0
C      1  0.5130190000000  0.4344660000000  0.4525250000000 1.0
C      1  0.4362660000000  0.4654900000000  0.4761130000000 1.0
C      1  0.4320600000000  0.5055490000000  0.4677500000000 1.0
C      1  0.5158950000000  0.5899450000000  0.5049590000000 1.0
C      1  0.4205870000000  0.4946960000000  0.5229610000000 1.0
C      1  0.5526980000000  0.4916560000000  0.5730100000000 1.0
C      1  0.5038260000000  0.4742890000000  0.4815460000000 1.0
C      1  0.5477030000000  0.5143890000000  0.5551700000000 1.0
C      1  0.4510370000000  0.4895390000000  0.4310940000000 1.0
C      1  0.5811430000000  0.5012860000000  0.4968700000000 1.0
C      1  0.5305360000000  0.5693340000000  0.4611510000000 1.0
C      1  0.5543790000000  0.5046230000000  0.5290140000000 1.0
C      1  0.5726690000000  0.5304360000000  0.5014220000000 1.0
C      1  0.5065290000000  0.4349420000000  0.5055140000000 1.0
C      1  0.4598960000000  0.4476080000000  0.4805370000000 1.0
C      1  0.4500900000000  0.4780980000000  0.5712520000000 1.0
C      1  0.5021420000000  0.5669800000000  0.4504420000000 1.0
C      1  0.5168590000000  0.4601730000000  0.5472320000000 1.0
C      1  0.4812800000000  0.5714180000000  0.4711810000000 1.0
C      1  0.4823890000000  0.5041300000000  0.5846980000000 1.0
C      1  0.4723320000000  0.4418700000000  0.4563920000000 1.0
C      1  0.4859540000000  0.4546720000000  0.4946860000000 1.0
C      1  0.5676900000000  0.4734450000000  0.4594210000000 1.0
C      1  0.4315280000000  0.4812980000000  0.4516690000000 1.0
C      1  0.4923920000000  0.5134820000000  0.4106210000000 1.0
C      1  0.5205650000000  0.5257250000000  0.5570840000000 1.0
C      1  0.5363520000000  0.5754660000000  0.4902300000000 1.0
C      1  0.4546030000000  0.5336530000000  0.5488620000000 1.0
C      1  0.5152020000000  0.5258210000000  0.4214170000000 1.0
C      1  0.4703810000000  0.5639290000000  0.5115780000000 1.0
C      1  0.5677710000000  0.4828390000000  0.5150370000000 1.0
C      1  0.5954040000000  0.5382600000000  0.5083350000000 1.0
C      1  0.5282470000000  0.4481870000000  0.5209260000000 1.0
C      1  0.4585070000000  0.5181650000000  0.4620240000000 1.0
C      1  0.5505310000000  0.4599060000000  0.5064410000000 1.0
C      1  0.4664310000000  0.4432050000000  0.5433960000000 1.0
C      1  0.5173410000000  0.5272930000000  0.5057480000000 1.0
C      1  0.4646580000000  0.5510160000000  0.4851760000000 1.0
C      1  0.4821470000000  0.4930690000000  0.5203370000000 1.0
C      1  0.5415760000000  0.5190860000000  0.4435720000000 1.0
C      1  0.5257500000000  0.5042680000000  0.4624870000000 1.0
C      1  0.5053590000000  0.4876860000000  0.5333640000000 1.0
C      1  0.4868170000000  0.5835130000000  0.4970340000000 1.0
C      1  0.5092340000000  0.4242160000000  0.4791520000000 1.0
C      1  0.4626400000000  0.5245690000000  0.5758240000000 1.0
END
