TITL C-4164235-1454-471 104.434390675458 125000 -25334.2986632498 0 0 169 (C1) n - 1
REM
REM in /home/nfs/bkarasulu/CARBON/AIRSS/Generating-Clusters/ReaxFF-fromJPCA2015/Units_Real/with-SteepDescent/Only-C1/SD-CG/Try1-3A/FIRE-CG
REM
REM
REM
REM
REM
REM ./C.cell (11c1c37f851c82e70ff6c80c92926a4b)
REM
REM compiler GCC version 9.2.1 20190827 (Red Hat 9.2.1-1)
REM options -cpp -mtune=generic -march=x86-64 -g -O0 -fpre-include=/usr/include/finclude/math-vector-fortran.h
REM seed -170738413 -828091289 -410398848 1775892078 -1509004908 -648264875 -1697986201 -338983071 -1642213668 -1997649848 -122465933 -1293408173 1498041718 265418553 -1168907959 1311875024 944476886 -1550733685 -2051709492 1450303132 -51975267 -300049000 512706567 -1483840244 -1111162238 -1085256371 -161423544 -2019112467 1853291400 -486197120 -221153736 1986484762 -698813125
REM
CELL 1.54180   50.00000   50.00000   50.00000   90.00000   90.00000   90.00000
LATT -1
SFAC C  
C      1  0.4472500000000  0.4460830000000  0.5728190000000 1.0
C      1  0.4199180000000  0.5221680000000  0.5323070000000 1.0
C      1  0.5223220000000  0.5483220000000  0.3958720000000 1.0
C      1  0.5209450000000  0.4298890000000  0.5662670000000 1.0
C      1  0.5986560000000  0.4727540000000  0.4539440000000 1.0
C      1  0.5634050000000  0.5882930000000  0.4907320000000 1.0
C      1  0.4683950000000  0.5832570000000  0.4660100000000 1.0
C      1  0.6121840000000  0.5102750000000  0.4855620000000 1.0
C      1  0.5460900000000  0.5990570000000  0.4707330000000 1.0
C      1  0.5121730000000  0.5663610000000  0.5673900000000 1.0
C      1  0.4632300000000  0.4276170000000  0.4378130000000 1.0
C      1  0.4467370000000  0.4216720000000  0.4620680000000 1.0
C      1  0.5412130000000  0.5268120000000  0.3978200000000 1.0
C      1  0.4910700000000  0.5716420000000  0.4202310000000 1.0
C      1  0.4667520000000  0.4959090000000  0.6190580000000 1.0
C      1  0.4892960000000  0.5816160000000  0.5667860000000 1.0
C      1  0.4760620000000  0.4725250000000  0.5206920000000 1.0
C      1  0.4238570000000  0.5714550000000  0.5448640000000 1.0
C      1  0.5041910000000  0.5545890000000  0.4378730000000 1.0
C      1  0.4662750000000  0.5188280000000  0.5763660000000 1.0
C      1  0.5404260000000  0.4984940000000  0.4118890000000 1.0
C      1  0.5185290000000  0.4955380000000  0.4850450000000 1.0
C      1  0.3922010000000  0.5023810000000  0.5072980000000 1.0
C      1  0.4535770000000  0.4061700000000  0.5400320000000 1.0
C      1  0.4460250000000  0.5813150000000  0.4838880000000 1.0
C      1  0.4224000000000  0.4767680000000  0.4225060000000 1.0
C      1  0.5465530000000  0.5026950000000  0.5289480000000 1.0
C      1  0.5229240000000  0.4158590000000  0.4248760000000 1.0
C      1  0.4679620000000  0.5298950000000  0.4589170000000 1.0
C      1  0.4919860000000  0.4836680000000  0.5613950000000 1.0
C      1  0.5792830000000  0.5145740000000  0.4461570000000 1.0
C      1  0.5535620000000  0.4647030000000  0.5046770000000 1.0
C      1  0.4950010000000  0.4059710000000  0.5211680000000 1.0
C      1  0.4620480000000  0.5870630000000  0.5646500000000 1.0
C      1  0.5571890000000  0.5741420000000  0.5632630000000 1.0
C      1  0.4553150000000  0.5641850000000  0.5842730000000 1.0
C      1  0.5541320000000  0.5268660000000  0.5933460000000 1.0
C      1  0.5196010000000  0.4991380000000  0.4349220000000 1.0
C      1  0.5412540000000  0.4762230000000  0.5816940000000 1.0
C      1  0.5599930000000  0.4180200000000  0.4785870000000 1.0
C      1  0.4082350000000  0.4781950000000  0.5166350000000 1.0
C      1  0.5096470000000  0.4056480000000  0.4496130000000 1.0
C      1  0.4311440000000  0.4702100000000  0.5664550000000 1.0
C      1  0.4165820000000  0.5463880000000  0.4562970000000 1.0
C      1  0.5372010000000  0.4876130000000  0.5065590000000 1.0
C      1  0.3925580000000  0.5041710000000  0.4780830000000 1.0
C      1  0.4481370000000  0.4645530000000  0.4836030000000 1.0
C      1  0.5596110000000  0.5564040000000  0.4395600000000 1.0
C      1  0.4994500000000  0.5792820000000  0.4773450000000 1.0
C      1  0.6160770000000  0.5398080000000  0.4924430000000 1.0
C      1  0.6151510000000  0.4923970000000  0.5500370000000 1.0
C      1  0.4208210000000  0.5651410000000  0.4784010000000 1.0
C      1  0.4836850000000  0.4750950000000  0.6109430000000 1.0
C      1  0.4578550000000  0.5433930000000  0.5636880000000 1.0
C      1  0.5533870000000  0.5788810000000  0.4518800000000 1.0
C      1  0.5097210000000  0.4296150000000  0.4018820000000 1.0
C      1  0.5110530000000  0.5032790000000  0.5656490000000 1.0
C      1  0.4132570000000  0.5701970000000  0.5199200000000 1.0
C      1  0.4684610000000  0.5831660000000  0.4362040000000 1.0
C      1  0.5123650000000  0.4275600000000  0.5191980000000 1.0
C      1  0.4267600000000  0.4356130000000  0.5303160000000 1.0
C      1  0.5422490000000  0.4032640000000  0.4955030000000 1.0
C      1  0.3975320000000  0.5300650000000  0.5155330000000 1.0
C      1  0.5314170000000  0.5182480000000  0.6068830000000 1.0
C      1  0.4042040000000  0.4533430000000  0.4729620000000 1.0
C      1  0.4561520000000  0.5068350000000  0.4039380000000 1.0
C      1  0.5485800000000  0.4595350000000  0.5377900000000 1.0
C      1  0.4169870000000  0.5178280000000  0.4657480000000 1.0
C      1  0.5865970000000  0.4284280000000  0.4857640000000 1.0
C      1  0.4371340000000  0.5266330000000  0.4111500000000 1.0
C      1  0.4290450000000  0.5406980000000  0.5553920000000 1.0
C      1  0.5056340000000  0.6158160000000  0.5009080000000 1.0
C      1  0.4917790000000  0.4202530000000  0.5673850000000 1.0
C      1  0.4493530000000  0.4768460000000  0.4108480000000 1.0
C      1  0.5800950000000  0.5297650000000  0.5612580000000 1.0
C      1  0.4807980000000  0.4045930000000  0.5459570000000 1.0
C      1  0.5369370000000  0.4555830000000  0.4585860000000 1.0
C      1  0.5775170000000  0.5793290000000  0.5117500000000 1.0
C      1  0.6064780000000  0.4744740000000  0.5267070000000 1.0
C      1  0.4702570000000  0.5023780000000  0.4664100000000 1.0
C      1  0.5181450000000  0.4459570000000  0.5390850000000 1.0
C      1  0.5478630000000  0.5509220000000  0.4113450000000 1.0
C      1  0.4877630000000  0.4494220000000  0.3989170000000 1.0
C      1  0.4457810000000  0.5891550000000  0.5392960000000 1.0
C      1  0.4095740000000  0.4936480000000  0.4419780000000 1.0
C      1  0.5093940000000  0.4598010000000  0.4570640000000 1.0
C      1  0.5688260000000  0.4194580000000  0.5665840000000 1.0
C      1  0.4642690000000  0.4515820000000  0.4145250000000 1.0
C      1  0.4960060000000  0.4540190000000  0.5972680000000 1.0
C      1  0.5344340000000  0.5990750000000  0.5385210000000 1.0
C      1  0.5932100000000  0.4477370000000  0.5316050000000 1.0
C      1  0.4531510000000  0.5955860000000  0.5104030000000 1.0
C      1  0.5658650000000  0.5354970000000  0.4626560000000 1.0
C      1  0.4849080000000  0.4155600000000  0.4449570000000 1.0
C      1  0.5739360000000  0.5326370000000  0.4931060000000 1.0
C      1  0.5553600000000  0.5433780000000  0.5674340000000 1.0
C      1  0.4798670000000  0.5246880000000  0.4092340000000 1.0
C      1  0.5917950000000  0.5519530000000  0.5049960000000 1.0
C      1  0.5243000000000  0.5456140000000  0.5474410000000 1.0
C      1  0.5568840000000  0.4505140000000  0.4380080000000 1.0
C      1  0.6022040000000  0.5013480000000  0.4591580000000 1.0
C      1  0.5080470000000  0.5140420000000  0.5924820000000 1.0
C      1  0.4808630000000  0.5168340000000  0.6019710000000 1.0
C      1  0.4721960000000  0.4827170000000  0.4455510000000 1.0
C      1  0.5020000000000  0.4738340000000  0.3856360000000 1.0
C      1  0.4015810000000  0.5562030000000  0.4996980000000 1.0
C      1  0.4517180000000  0.4654460000000  0.4551810000000 1.0
C      1  0.5799670000000  0.4736610000000  0.4942710000000 1.0
C      1  0.5343700000000  0.4448070000000  0.3960050000000 1.0
C      1  0.4955670000000  0.4526700000000  0.4807690000000 1.0
C      1  0.5318980000000  0.5378740000000  0.4713840000000 1.0
C      1  0.4259850000000  0.5498990000000  0.4277620000000 1.0
C      1  0.5611750000000  0.5854720000000  0.5368460000000 1.0
C      1  0.4335340000000  0.5485240000000  0.5953360000000 1.0
C      1  0.5299950000000  0.4739720000000  0.3930900000000 1.0
C      1  0.5819230000000  0.4266700000000  0.5143160000000 1.0
C      1  0.4730920000000  0.4616240000000  0.4957430000000 1.0
C      1  0.5675750000000  0.4968560000000  0.4264690000000 1.0
C      1  0.5015920000000  0.5685480000000  0.5096930000000 1.0
C      1  0.4634840000000  0.5379230000000  0.4863650000000 1.0
C      1  0.4206680000000  0.4615360000000  0.4957310000000 1.0
C      1  0.4922000000000  0.5503880000000  0.3999330000000 1.0
C      1  0.4858320000000  0.4019330000000  0.4936590000000 1.0
C      1  0.5137400000000  0.5584370000000  0.4619530000000 1.0
C      1  0.4404200000000  0.5206580000000  0.4884560000000 1.0
C      1  0.4587240000000  0.4130290000000  0.4886890000000 1.0
C      1  0.4950410000000  0.4655560000000  0.5394470000000 1.0
C      1  0.5951540000000  0.4553930000000  0.4773420000000 1.0
C      1  0.5965350000000  0.5140440000000  0.5562360000000 1.0
C      1  0.4201790000000  0.4344330000000  0.4575510000000 1.0
C      1  0.4857790000000  0.5330840000000  0.4363030000000 1.0
C      1  0.5328520000000  0.5381430000000  0.5005210000000 1.0
C      1  0.5548630000000  0.5280240000000  0.5157840000000 1.0
C      1  0.5313030000000  0.5886150000000  0.5668290000000 1.0
C      1  0.4220490000000  0.5262230000000  0.5823230000000 1.0
C      1  0.5460540000000  0.4136700000000  0.5493480000000 1.0
C      1  0.4210780000000  0.4639910000000  0.5383080000000 1.0
C      1  0.5104920000000  0.5959490000000  0.5220610000000 1.0
C      1  0.5240360000000  0.4528620000000  0.5857150000000 1.0
C      1  0.5264710000000  0.5097330000000  0.4601850000000 1.0
C      1  0.5064070000000  0.5234990000000  0.5461450000000 1.0
C      1  0.5722370000000  0.4468620000000  0.5516980000000 1.0
C      1  0.4757970000000  0.6134460000000  0.5061000000000 1.0
C      1  0.5129470000000  0.4035270000000  0.4805700000000 1.0
C      1  0.5156170000000  0.4350650000000  0.4926550000000 1.0
C      1  0.5167480000000  0.6035700000000  0.4771230000000 1.0
C      1  0.4441050000000  0.5697050000000  0.4347390000000 1.0
C      1  0.4858830000000  0.5245490000000  0.5272290000000 1.0
C      1  0.5981150000000  0.4930890000000  0.5055820000000 1.0
C      1  0.4814090000000  0.5448580000000  0.5091160000000 1.0
C      1  0.4316510000000  0.4530180000000  0.4380050000000 1.0
C      1  0.4997180000000  0.4779980000000  0.4383380000000 1.0
C      1  0.4675290000000  0.4971630000000  0.5582080000000 1.0
C      1  0.5479490000000  0.4307990000000  0.4185310000000 1.0
C      1  0.4447440000000  0.4173010000000  0.5145020000000 1.0
C      1  0.4397200000000  0.5103280000000  0.5151410000000 1.0
C      1  0.4452190000000  0.4881670000000  0.6015330000000 1.0
C      1  0.5551210000000  0.4120320000000  0.5203350000000 1.0
C      1  0.5434940000000  0.4851940000000  0.5529690000000 1.0
C      1  0.5496890000000  0.4984410000000  0.5988420000000 1.0
C      1  0.5244480000000  0.5540760000000  0.5198080000000 1.0
C      1  0.5779450000000  0.4708520000000  0.4331770000000 1.0
C      1  0.4895600000000  0.5002840000000  0.4892340000000 1.0
C      1  0.4749490000000  0.4389840000000  0.5808200000000 1.0
C      1  0.4258220000000  0.4948030000000  0.5839530000000 1.0
C      1  0.5427230000000  0.4444270000000  0.4838920000000 1.0
C      1  0.4375740000000  0.4247820000000  0.5548230000000 1.0
C      1  0.3942650000000  0.4794740000000  0.4616180000000 1.0
C      1  0.4651620000000  0.4995630000000  0.5288700000000 1.0
END
