TITL C-4164233-775-125 55.3897016969058 125000 -14773.4556002133 0 0 100 (C1) n - 1
REM
REM in /home/nfs/bkarasulu/CARBON/AIRSS/Generating-Clusters/ReaxFF-fromJPCA2015/Units_Real/with-SteepDescent/Only-C1/SD-CG/Try1-3A/FIRE-CG
REM
REM
REM
REM
REM
REM ./C.cell (11c1c37f851c82e70ff6c80c92926a4b)
REM
REM compiler GCC version 9.2.1 20190827 (Red Hat 9.2.1-1)
REM options -cpp -mtune=generic -march=x86-64 -g -O0 -fpre-include=/usr/include/finclude/math-vector-fortran.h
REM seed -1459841170 -851585181 857109494 818445355 2026502737 -1124719710 -984143523 475539692 -808696155 -1966680396 -1710212783 296147044 1754494397 203308896 2062697877 1835974991 1607104386 -1408174495 -733888032 1457096279 1870931323 1666927897 -766086426 -729348673 1278428 -1296441039 298208870 966712241 1372456488 1712584998 260696764 -170443770 1730790482
REM
CELL 1.54180   50.00000   50.00000   50.00000   90.00000   90.00000   90.00000
LATT -1
SFAC C  
C      1  0.5425630000000  0.4387960000000  0.5499780000000 1.0
C      1  0.4065180000000  0.4937260000000  0.5161330000000 1.0
C      1  0.4096280000000  0.5158810000000  0.4961230000000 1.0
C      1  0.5745500000000  0.5411710000000  0.5134340000000 1.0
C      1  0.4435680000000  0.4363700000000  0.5214890000000 1.0
C      1  0.5376380000000  0.5111840000000  0.4819100000000 1.0
C      1  0.4771140000000  0.4448630000000  0.4321410000000 1.0
C      1  0.5308280000000  0.4579470000000  0.5682410000000 1.0
C      1  0.5096740000000  0.5271390000000  0.5868150000000 1.0
C      1  0.5402080000000  0.4822660000000  0.5212290000000 1.0
C      1  0.5242910000000  0.5306770000000  0.4369480000000 1.0
C      1  0.4895540000000  0.5657900000000  0.4409160000000 1.0
C      1  0.5751720000000  0.5302000000000  0.5375460000000 1.0
C      1  0.4949680000000  0.5875760000000  0.5373540000000 1.0
C      1  0.4602670000000  0.4956080000000  0.4623340000000 1.0
C      1  0.4846590000000  0.4396750000000  0.5010560000000 1.0
C      1  0.5378140000000  0.5767190000000  0.5174460000000 1.0
C      1  0.5640270000000  0.4415810000000  0.4801400000000 1.0
C      1  0.5141460000000  0.4825970000000  0.4092230000000 1.0
C      1  0.4477180000000  0.5550170000000  0.5031010000000 1.0
C      1  0.4895030000000  0.5049250000000  0.5931970000000 1.0
C      1  0.4891950000000  0.4302110000000  0.5431840000000 1.0
C      1  0.5171670000000  0.5597820000000  0.4435390000000 1.0
C      1  0.4960420000000  0.4309040000000  0.4485460000000 1.0
C      1  0.4666700000000  0.5410430000000  0.5758620000000 1.0
C      1  0.5240250000000  0.4384910000000  0.4448370000000 1.0
C      1  0.5373330000000  0.4282520000000  0.5103270000000 1.0
C      1  0.4213940000000  0.4730070000000  0.4992060000000 1.0
C      1  0.4450340000000  0.4846000000000  0.5059910000000 1.0
C      1  0.5094810000000  0.4755430000000  0.4478970000000 1.0
C      1  0.5622400000000  0.4724460000000  0.4410230000000 1.0
C      1  0.5355110000000  0.4385620000000  0.4715800000000 1.0
C      1  0.5082220000000  0.5685660000000  0.5558820000000 1.0
C      1  0.4903540000000  0.4723410000000  0.4248050000000 1.0
C      1  0.4519650000000  0.5247300000000  0.4673190000000 1.0
C      1  0.5792550000000  0.4952080000000  0.4337800000000 1.0
C      1  0.4506580000000  0.4490390000000  0.4434400000000 1.0
C      1  0.4500260000000  0.5431060000000  0.5520660000000 1.0
C      1  0.5486710000000  0.5214550000000  0.4565180000000 1.0
C      1  0.4946430000000  0.5497550000000  0.5754040000000 1.0
C      1  0.4458680000000  0.5418370000000  0.4401030000000 1.0
C      1  0.4338350000000  0.4790950000000  0.5586870000000 1.0
C      1  0.4653260000000  0.4932970000000  0.4327610000000 1.0
C      1  0.4712530000000  0.4562480000000  0.5408200000000 1.0
C      1  0.5747420000000  0.4655400000000  0.4663480000000 1.0
C      1  0.4972420000000  0.5311140000000  0.4981720000000 1.0
C      1  0.4171410000000  0.4878460000000  0.4469370000000 1.0
C      1  0.4326830000000  0.5325890000000  0.4899140000000 1.0
C      1  0.4528620000000  0.4889790000000  0.5791170000000 1.0
C      1  0.5317360000000  0.4647930000000  0.4314950000000 1.0
C      1  0.4626800000000  0.5150960000000  0.5896870000000 1.0
C      1  0.5507170000000  0.5696840000000  0.4925670000000 1.0
C      1  0.5598110000000  0.4577820000000  0.5325010000000 1.0
C      1  0.5241100000000  0.4640680000000  0.4828530000000 1.0
C      1  0.5235240000000  0.5349360000000  0.4868330000000 1.0
C      1  0.5863560000000  0.4946880000000  0.5067140000000 1.0
C      1  0.4509720000000  0.4391920000000  0.4711720000000 1.0
C      1  0.4429300000000  0.4541090000000  0.5454070000000 1.0
C      1  0.4571490000000  0.5047860000000  0.5201980000000 1.0
C      1  0.4833410000000  0.5302920000000  0.4731430000000 1.0
C      1  0.4845620000000  0.4919980000000  0.5268860000000 1.0
C      1  0.5013120000000  0.4705710000000  0.4711400000000 1.0
C      1  0.5734940000000  0.5345810000000  0.4631760000000 1.0
C      1  0.4831510000000  0.4690210000000  0.5059630000000 1.0
C      1  0.5831360000000  0.5007400000000  0.5338590000000 1.0
C      1  0.4342020000000  0.4457280000000  0.4954210000000 1.0
C      1  0.4640560000000  0.5678110000000  0.4849510000000 1.0
C      1  0.5206660000000  0.4292230000000  0.5334580000000 1.0
C      1  0.4807970000000  0.4791270000000  0.5818230000000 1.0
C      1  0.4183430000000  0.4985990000000  0.5427950000000 1.0
C      1  0.5296770000000  0.4998370000000  0.5407590000000 1.0
C      1  0.5637580000000  0.4376480000000  0.5089350000000 1.0
C      1  0.4396660000000  0.4750130000000  0.4335470000000 1.0
C      1  0.5008790000000  0.5220780000000  0.4528280000000 1.0
C      1  0.5433760000000  0.4845010000000  0.5627070000000 1.0
C      1  0.4651010000000  0.5509190000000  0.5284720000000 1.0
C      1  0.4786190000000  0.4827280000000  0.4810110000000 1.0
C      1  0.4701400000000  0.4230550000000  0.5204390000000 1.0
C      1  0.5521290000000  0.5423930000000  0.5552550000000 1.0
C      1  0.4808870000000  0.5801360000000  0.4666590000000 1.0
C      1  0.4070870000000  0.5055750000000  0.4684410000000 1.0
C      1  0.5365820000000  0.4852530000000  0.4939150000000 1.0
C      1  0.4785940000000  0.4302650000000  0.4735760000000 1.0
C      1  0.5047380000000  0.5831230000000  0.4838230000000 1.0
C      1  0.5739020000000  0.5525980000000  0.4883080000000 1.0
C      1  0.4866510000000  0.4732510000000  0.5551210000000 1.0
C      1  0.4912160000000  0.5374600000000  0.5260790000000 1.0
C      1  0.5030560000000  0.4509390000000  0.5630610000000 1.0
C      1  0.4707190000000  0.5454230000000  0.4268450000000 1.0
C      1  0.4382490000000  0.5197290000000  0.5381070000000 1.0
C      1  0.5112430000000  0.5887570000000  0.5116670000000 1.0
C      1  0.5351810000000  0.5635280000000  0.5439030000000 1.0
C      1  0.5076160000000  0.5103100000000  0.4138650000000 1.0
C      1  0.4793810000000  0.5172650000000  0.4181170000000 1.0
C      1  0.5697880000000  0.4798800000000  0.5504970000000 1.0
C      1  0.5892070000000  0.4886320000000  0.4799630000000 1.0
C      1  0.5891740000000  0.5105720000000  0.4587250000000 1.0
C      1  0.5333570000000  0.5321370000000  0.5726430000000 1.0
C      1  0.5034180000000  0.5127150000000  0.5364040000000 1.0
C      1  0.5263200000000  0.5641610000000  0.4734680000000 1.0
END
