TITL C-4164232-771-179 -4.27651092487827 125000 -10717.6093680334 0 0 73 (C1) n - 1
REM
REM in /home/nfs/bkarasulu/CARBON/AIRSS/Generating-Clusters/ReaxFF-fromJPCA2015/Units_Real/with-SteepDescent/Only-C1/SD-CG/Try1-3A/FIRE-CG
REM
REM
REM
REM
REM
REM ./C.cell (11c1c37f851c82e70ff6c80c92926a4b)
REM
REM compiler GCC version 9.2.1 20190827 (Red Hat 9.2.1-1)
REM options -cpp -mtune=generic -march=x86-64 -g -O0 -fpre-include=/usr/include/finclude/math-vector-fortran.h
REM seed -226914449 950914238 -866346563 2122974564 726299901 1256270795 529821965 1675728391 565491874 -1420961388 -1910025258 -1583616300 301508670 858264460 -106720710 1266406485 2046352253 -441063763 -759316372 805056861 1705024413 691893588 746640642 1995081556 880897283 -766208622 1532280531 1018841380 -1148092395 -639166008 -381935456 -1985840670 1509019186
REM
CELL 1.54180   50.00000   50.00000   50.00000   90.00000   90.00000   90.00000
LATT -1
SFAC C  
C      1  0.5295160000000  0.4864240000000  0.5541370000000 1.0
C      1  0.5026940000000  0.5101290000000  0.4432670000000 1.0
C      1  0.4623020000000  0.5061470000000  0.5685850000000 1.0
C      1  0.5090690000000  0.4995790000000  0.5702730000000 1.0
C      1  0.5744280000000  0.4679530000000  0.5020630000000 1.0
C      1  0.4755540000000  0.5321920000000  0.5642060000000 1.0
C      1  0.5053300000000  0.5625550000000  0.5051850000000 1.0
C      1  0.5341600000000  0.5725420000000  0.4994080000000 1.0
C      1  0.5097170000000  0.5340130000000  0.5096230000000 1.0
C      1  0.5039280000000  0.5282900000000  0.5678610000000 1.0
C      1  0.4918640000000  0.4647680000000  0.5144390000000 1.0
C      1  0.4398150000000  0.4909610000000  0.5577100000000 1.0
C      1  0.4628010000000  0.5600820000000  0.4332360000000 1.0
C      1  0.4504670000000  0.5521880000000  0.5245580000000 1.0
C      1  0.5762740000000  0.5226120000000  0.5289840000000 1.0
C      1  0.4769100000000  0.5083060000000  0.4256520000000 1.0
C      1  0.4664450000000  0.5330930000000  0.4740950000000 1.0
C      1  0.5500930000000  0.4267610000000  0.4831690000000 1.0
C      1  0.4606420000000  0.4314660000000  0.4762350000000 1.0
C      1  0.5422980000000  0.4619160000000  0.5456080000000 1.0
C      1  0.4138450000000  0.4742110000000  0.5138630000000 1.0
C      1  0.4357460000000  0.4748860000000  0.5329720000000 1.0
C      1  0.4825820000000  0.4914140000000  0.5097780000000 1.0
C      1  0.4878080000000  0.4501890000000  0.4656290000000 1.0
C      1  0.5162740000000  0.4796840000000  0.4354780000000 1.0
C      1  0.4251540000000  0.5409570000000  0.5286200000000 1.0
C      1  0.5661120000000  0.4976410000000  0.5390280000000 1.0
C      1  0.5381340000000  0.5703760000000  0.4719950000000 1.0
C      1  0.5257440000000  0.5310300000000  0.4427160000000 1.0
C      1  0.4725290000000  0.5537150000000  0.5443930000000 1.0
C      1  0.5042360000000  0.4532120000000  0.4411950000000 1.0
C      1  0.5185560000000  0.5474740000000  0.5509470000000 1.0
C      1  0.4435060000000  0.4536350000000  0.4726650000000 1.0
C      1  0.4975510000000  0.5662290000000  0.4722060000000 1.0
C      1  0.4763770000000  0.4604840000000  0.5620150000000 1.0
C      1  0.5219580000000  0.4411100000000  0.5439890000000 1.0
C      1  0.5287570000000  0.5292320000000  0.5312920000000 1.0
C      1  0.4562690000000  0.5330420000000  0.5022390000000 1.0
C      1  0.4612600000000  0.5329650000000  0.4210660000000 1.0
C      1  0.5098830000000  0.4549320000000  0.4913660000000 1.0
C      1  0.5339690000000  0.5006830000000  0.4974440000000 1.0
C      1  0.5787320000000  0.4917640000000  0.4853010000000 1.0
C      1  0.5433120000000  0.4735820000000  0.4563670000000 1.0
C      1  0.5659000000000  0.4700690000000  0.5298110000000 1.0
C      1  0.4182120000000  0.4661630000000  0.4861340000000 1.0
C      1  0.4400450000000  0.5011400000000  0.4809580000000 1.0
C      1  0.4155950000000  0.4908380000000  0.4677970000000 1.0
C      1  0.4894870000000  0.5159690000000  0.4692780000000 1.0
C      1  0.4657450000000  0.4685170000000  0.4574970000000 1.0
C      1  0.4673710000000  0.4810000000000  0.4309150000000 1.0
C      1  0.4714470000000  0.5600550000000  0.4622910000000 1.0
C      1  0.5320100000000  0.4745370000000  0.4840890000000 1.0
C      1  0.5475480000000  0.5165850000000  0.4500990000000 1.0
C      1  0.4923450000000  0.4692930000000  0.4203240000000 1.0
C      1  0.5195840000000  0.5591660000000  0.4539760000000 1.0
C      1  0.5543510000000  0.5514940000000  0.5046020000000 1.0
C      1  0.5381640000000  0.5015920000000  0.5323220000000 1.0
C      1  0.3963060000000  0.4990850000000  0.5195800000000 1.0
C      1  0.5031330000000  0.5110010000000  0.4949700000000 1.0
C      1  0.4985860000000  0.5631500000000  0.5359390000000 1.0
C      1  0.4090060000000  0.5240110000000  0.5264960000000 1.0
C      1  0.4940240000000  0.4515060000000  0.5404500000000 1.0
C      1  0.4475040000000  0.4627680000000  0.5569230000000 1.0
C      1  0.5641520000000  0.4961820000000  0.4591420000000 1.0
C      1  0.5711930000000  0.4447770000000  0.4863330000000 1.0
C      1  0.4834010000000  0.4865640000000  0.5734740000000 1.0
C      1  0.5554760000000  0.5429760000000  0.5326900000000 1.0
C      1  0.5554990000000  0.4471200000000  0.4628970000000 1.0
C      1  0.5801360000000  0.5168930000000  0.5001950000000 1.0
C      1  0.4566700000000  0.5030990000000  0.5051170000000 1.0
C      1  0.5249740000000  0.4281940000000  0.4975110000000 1.0
C      1  0.5261680000000  0.4176550000000  0.5251390000000 1.0
C      1  0.5533680000000  0.5241790000000  0.4921910000000 1.0
END
