TITL C-4164233-775-88 93.8820554526219 125000 -28279.8040898856 0 0 194 (C1) n - 1
REM
REM in /home/nfs/bkarasulu/CARBON/AIRSS/Generating-Clusters/ReaxFF-fromJPCA2015/Units_Real/with-SteepDescent/Only-C1/SD-CG/Try1-3A/FIRE-CG
REM
REM
REM
REM
REM
REM ./C.cell (11c1c37f851c82e70ff6c80c92926a4b)
REM
REM compiler GCC version 9.2.1 20190827 (Red Hat 9.2.1-1)
REM options -cpp -mtune=generic -march=x86-64 -g -O0 -fpre-include=/usr/include/finclude/math-vector-fortran.h
REM seed 490167561 -148647898 241885300 1097608613 -1770485871 -1032330130 -1897550019 -1207223169 890385723 2145385918 -1152063913 876322928 -1809275554 -1509418347 6269376 -1649315125 2120611193 793320129 1416272800 2025480107 478519054 -537490430 -308853870 -99137536 -878020224 1392735059 -1970756808 33076770 1166786324 -625084515 104722641 831397155 -646138878
REM
CELL 1.54180   50.00000   50.00000   50.00000   90.00000   90.00000   90.00000
LATT -1
SFAC C  
C      1  0.5135070000000  0.6144110000000  0.5313960000000 1.0
C      1  0.5557800000000  0.4861690000000  0.4028730000000 1.0
C      1  0.5171210000000  0.4145710000000  0.4549640000000 1.0
C      1  0.5568750000000  0.5803730000000  0.5530970000000 1.0
C      1  0.4739060000000  0.4038180000000  0.4831610000000 1.0
C      1  0.4688080000000  0.5583490000000  0.4920920000000 1.0
C      1  0.4366590000000  0.5175640000000  0.5947660000000 1.0
C      1  0.5262810000000  0.5523980000000  0.5739700000000 1.0
C      1  0.5303020000000  0.4976750000000  0.4686640000000 1.0
C      1  0.3885690000000  0.4934110000000  0.4904010000000 1.0
C      1  0.4830720000000  0.5795060000000  0.5057280000000 1.0
C      1  0.4971950000000  0.6167880000000  0.5054320000000 1.0
C      1  0.5439690000000  0.5107420000000  0.3906780000000 1.0
C      1  0.5090410000000  0.4775170000000  0.5380640000000 1.0
C      1  0.4643880000000  0.4631890000000  0.5969320000000 1.0
C      1  0.5815420000000  0.4763100000000  0.5683070000000 1.0
C      1  0.6185320000000  0.5018940000000  0.5035880000000 1.0
C      1  0.5059670000000  0.4018750000000  0.4791100000000 1.0
C      1  0.5713890000000  0.4996470000000  0.4864890000000 1.0
C      1  0.4305520000000  0.4614290000000  0.5649060000000 1.0
C      1  0.5497710000000  0.5822370000000  0.4459900000000 1.0
C      1  0.4955430000000  0.4095530000000  0.5606180000000 1.0
C      1  0.4993950000000  0.5125360000000  0.6115360000000 1.0
C      1  0.4029050000000  0.4287590000000  0.4787990000000 1.0
C      1  0.5819830000000  0.4575600000000  0.4354890000000 1.0
C      1  0.4465950000000  0.4175090000000  0.5317250000000 1.0
C      1  0.5797340000000  0.4487520000000  0.5140320000000 1.0
C      1  0.5467740000000  0.4714880000000  0.5971140000000 1.0
C      1  0.4843250000000  0.5265810000000  0.4584670000000 1.0
C      1  0.4608310000000  0.5436820000000  0.4311970000000 1.0
C      1  0.5114600000000  0.4104130000000  0.4134580000000 1.0
C      1  0.3917940000000  0.4788000000000  0.4656130000000 1.0
C      1  0.5189370000000  0.4638640000000  0.5973620000000 1.0
C      1  0.4603390000000  0.5128890000000  0.5802210000000 1.0
C      1  0.5289760000000  0.4415240000000  0.4518120000000 1.0
C      1  0.4545670000000  0.5702660000000  0.4215960000000 1.0
C      1  0.5202000000000  0.5056860000000  0.4410350000000 1.0
C      1  0.5390420000000  0.5217730000000  0.4303710000000 1.0
C      1  0.4402420000000  0.4910000000000  0.4635420000000 1.0
C      1  0.5807640000000  0.4082910000000  0.4847290000000 1.0
C      1  0.3944100000000  0.5405670000000  0.5173620000000 1.0
C      1  0.5374820000000  0.5568950000000  0.5452900000000 1.0
C      1  0.5491320000000  0.5462170000000  0.4762400000000 1.0
C      1  0.4081150000000  0.5600240000000  0.5369060000000 1.0
C      1  0.5549990000000  0.4010910000000  0.4735960000000 1.0
C      1  0.5746280000000  0.5589390000000  0.4791480000000 1.0
C      1  0.5488640000000  0.5342560000000  0.5248720000000 1.0
C      1  0.4594540000000  0.4147700000000  0.4598730000000 1.0
C      1  0.6211400000000  0.5652680000000  0.4908370000000 1.0
C      1  0.4026740000000  0.5061970000000  0.5755910000000 1.0
C      1  0.4095290000000  0.5239370000000  0.4459120000000 1.0
C      1  0.4141270000000  0.5221960000000  0.5267860000000 1.0
C      1  0.4490770000000  0.4763580000000  0.5467690000000 1.0
C      1  0.5075460000000  0.5456200000000  0.4151650000000 1.0
C      1  0.5341710000000  0.4012940000000  0.5233020000000 1.0
C      1  0.4623930000000  0.4037730000000  0.5102460000000 1.0
C      1  0.4039970000000  0.4951930000000  0.4437680000000 1.0
C      1  0.5787530000000  0.5569050000000  0.5535410000000 1.0
C      1  0.5329140000000  0.4304120000000  0.5207650000000 1.0
C      1  0.4800780000000  0.4836020000000  0.4401840000000 1.0
C      1  0.4881910000000  0.5353300000000  0.5545280000000 1.0
C      1  0.3928340000000  0.4491820000000  0.4631910000000 1.0
C      1  0.5466430000000  0.4288230000000  0.5654480000000 1.0
C      1  0.5944980000000  0.5199150000000  0.5323770000000 1.0
C      1  0.6128150000000  0.4963970000000  0.5298510000000 1.0
C      1  0.6190740000000  0.5137200000000  0.4778100000000 1.0
C      1  0.4716430000000  0.4452480000000  0.5691060000000 1.0
C      1  0.5095820000000  0.4834320000000  0.4818410000000 1.0
C      1  0.4254210000000  0.5535290000000  0.5605800000000 1.0
C      1  0.4927450000000  0.5868240000000  0.4444890000000 1.0
C      1  0.5110620000000  0.4581700000000  0.4918350000000 1.0
C      1  0.4919800000000  0.5464180000000  0.5284010000000 1.0
C      1  0.4456250000000  0.5849970000000  0.5418180000000 1.0
C      1  0.5591460000000  0.4110760000000  0.5444730000000 1.0
C      1  0.5297260000000  0.3992890000000  0.4316560000000 1.0
C      1  0.4652750000000  0.5012950000000  0.3949830000000 1.0
C      1  0.5030950000000  0.5309640000000  0.5056850000000 1.0
C      1  0.5343260000000  0.5636870000000  0.4599320000000 1.0
C      1  0.4347480000000  0.4685930000000  0.5924740000000 1.0
C      1  0.5431740000000  0.5000490000000  0.5564290000000 1.0
C      1  0.5825700000000  0.4266950000000  0.5346980000000 1.0
C      1  0.4821620000000  0.4426390000000  0.5289520000000 1.0
C      1  0.5557460000000  0.4797970000000  0.4708860000000 1.0
C      1  0.5153530000000  0.5055310000000  0.3863360000000 1.0
C      1  0.4312200000000  0.4843210000000  0.4356200000000 1.0
C      1  0.5765900000000  0.4849280000000  0.4239280000000 1.0
C      1  0.5540250000000  0.5324210000000  0.4101360000000 1.0
C      1  0.5930220000000  0.5618900000000  0.5015880000000 1.0
C      1  0.4551390000000  0.5031160000000  0.5506850000000 1.0
C      1  0.4303580000000  0.4847210000000  0.4902780000000 1.0
C      1  0.3997320000000  0.4907820000000  0.5507990000000 1.0
C      1  0.4251050000000  0.4305500000000  0.4981550000000 1.0
C      1  0.4179000000000  0.5316860000000  0.5783570000000 1.0
C      1  0.6251460000000  0.5433260000000  0.4700770000000 1.0
C      1  0.5310560000000  0.3975400000000  0.4920800000000 1.0
C      1  0.4518970000000  0.5776900000000  0.4682660000000 1.0
C      1  0.5941200000000  0.5499060000000  0.5301600000000 1.0
C      1  0.4719070000000  0.5403870000000  0.5771420000000 1.0
C      1  0.5670020000000  0.5065340000000  0.5746380000000 1.0
C      1  0.6037830000000  0.4733370000000  0.5500860000000 1.0
C      1  0.5070320000000  0.5708290000000  0.4658420000000 1.0
C      1  0.5394090000000  0.4453250000000  0.4241280000000 1.0
C      1  0.5878360000000  0.4383280000000  0.4872080000000 1.0
C      1  0.5030780000000  0.4811240000000  0.5808030000000 1.0
C      1  0.4676720000000  0.6165310000000  0.5037190000000 1.0
C      1  0.4097010000000  0.4283870000000  0.4522970000000 1.0
C      1  0.5089090000000  0.5280600000000  0.5722740000000 1.0
C      1  0.5077770000000  0.5910580000000  0.4929800000000 1.0
C      1  0.5098240000000  0.5701300000000  0.4001890000000 1.0
C      1  0.4210560000000  0.4940720000000  0.5958070000000 1.0
C      1  0.5933380000000  0.5057230000000  0.4669870000000 1.0
C      1  0.5274110000000  0.5165670000000  0.6069510000000 1.0
C      1  0.4674400000000  0.4583940000000  0.4416950000000 1.0
C      1  0.4029440000000  0.4618800000000  0.5538660000000 1.0
C      1  0.6067560000000  0.5552560000000  0.4520340000000 1.0
C      1  0.4719880000000  0.4649490000000  0.4935520000000 1.0
C      1  0.4898950000000  0.5189280000000  0.3866730000000 1.0
C      1  0.4936950000000  0.5445660000000  0.4791580000000 1.0
C      1  0.4819970000000  0.5098390000000  0.5090340000000 1.0
C      1  0.4096660000000  0.5407400000000  0.4709200000000 1.0
C      1  0.5702980000000  0.5183810000000  0.5163390000000 1.0
C      1  0.4835670000000  0.4347050000000  0.3994560000000 1.0
C      1  0.4815220000000  0.4928330000000  0.5957320000000 1.0
C      1  0.4147070000000  0.4946990000000  0.5260020000000 1.0
C      1  0.5299010000000  0.5178460000000  0.5097610000000 1.0
C      1  0.5792930000000  0.5613370000000  0.4470140000000 1.0
C      1  0.4931900000000  0.5375410000000  0.5985760000000 1.0
C      1  0.4429440000000  0.4519380000000  0.4274110000000 1.0
C      1  0.5442930000000  0.5187310000000  0.4838710000000 1.0
C      1  0.4650160000000  0.4194650000000  0.5578790000000 1.0
C      1  0.5040020000000  0.5718400000000  0.5803820000000 1.0
C      1  0.5654210000000  0.4326600000000  0.4301350000000 1.0
C      1  0.6001040000000  0.4452460000000  0.5483020000000 1.0
C      1  0.4930750000000  0.4248260000000  0.4227900000000 1.0
C      1  0.5081970000000  0.4366370000000  0.5995370000000 1.0
C      1  0.4323900000000  0.5098850000000  0.5078250000000 1.0
C      1  0.5076600000000  0.4794320000000  0.4008420000000 1.0
C      1  0.5133620000000  0.5684730000000  0.5328820000000 1.0
C      1  0.5360350000000  0.4479160000000  0.4984860000000 1.0
C      1  0.5304970000000  0.5818510000000  0.5120380000000 1.0
C      1  0.4877620000000  0.4154150000000  0.5199970000000 1.0
C      1  0.5391380000000  0.6002250000000  0.5320890000000 1.0
C      1  0.4807770000000  0.4356130000000  0.4546070000000 1.0
C      1  0.4478100000000  0.6022220000000  0.4874240000000 1.0
C      1  0.4236840000000  0.5674170000000  0.4749760000000 1.0
C      1  0.4379160000000  0.4277530000000  0.4452420000000 1.0
C      1  0.4651850000000  0.5831870000000  0.4439960000000 1.0
C      1  0.3894600000000  0.4694660000000  0.5067120000000 1.0
C      1  0.4949810000000  0.4917440000000  0.5255760000000 1.0
C      1  0.4869770000000  0.5359840000000  0.4323750000000 1.0
C      1  0.5547800000000  0.4647830000000  0.5211870000000 1.0
C      1  0.5068370000000  0.5932510000000  0.4191350000000 1.0
C      1  0.5166570000000  0.4208350000000  0.5766360000000 1.0
C      1  0.5178280000000  0.5018440000000  0.5697000000000 1.0
C      1  0.5311870000000  0.5958610000000  0.4322820000000 1.0
C      1  0.4589860000000  0.4598300000000  0.5199520000000 1.0
C      1  0.5029400000000  0.4885390000000  0.4275960000000 1.0
C      1  0.4430900000000  0.5458390000000  0.4098110000000 1.0
C      1  0.4335940000000  0.4585660000000  0.5028230000000 1.0
C      1  0.4705800000000  0.5010020000000  0.4609390000000 1.0
C      1  0.4635770000000  0.5473870000000  0.5188570000000 1.0
C      1  0.4751400000000  0.4744970000000  0.3918580000000 1.0
C      1  0.4945860000000  0.4532740000000  0.5532350000000 1.0
C      1  0.5557260000000  0.4079940000000  0.4433460000000 1.0
C      1  0.4953300000000  0.5943230000000  0.5464600000000 1.0
C      1  0.5402200000000  0.4477420000000  0.5427220000000 1.0
C      1  0.4505240000000  0.5689990000000  0.5653400000000 1.0
C      1  0.4242660000000  0.5262090000000  0.4202240000000 1.0
C      1  0.5384830000000  0.4899690000000  0.5294640000000 1.0
C      1  0.5459480000000  0.4527370000000  0.4720150000000 1.0
C      1  0.3998030000000  0.4503420000000  0.5277230000000 1.0
C      1  0.5517740000000  0.5487290000000  0.5918530000000 1.0
C      1  0.4936010000000  0.5479920000000  0.3892830000000 1.0
C      1  0.4233460000000  0.5879820000000  0.4958340000000 1.0
C      1  0.4609710000000  0.4510570000000  0.4002560000000 1.0
C      1  0.4192230000000  0.4265230000000  0.5262630000000 1.0
C      1  0.4691700000000  0.5959320000000  0.5269860000000 1.0
C      1  0.5779000000000  0.5358910000000  0.4284940000000 1.0
C      1  0.4795930000000  0.4400130000000  0.6096710000000 1.0
C      1  0.3955280000000  0.5258780000000  0.4919640000000 1.0
C      1  0.5852560000000  0.5089140000000  0.4380920000000 1.0
C      1  0.5619100000000  0.4569900000000  0.5772580000000 1.0
C      1  0.5064850000000  0.3993760000000  0.5362640000000 1.0
C      1  0.5504550000000  0.5015350000000  0.6002220000000 1.0
C      1  0.5860130000000  0.4516120000000  0.4623470000000 1.0
C      1  0.4415630000000  0.5047180000000  0.4125650000000 1.0
C      1  0.4880550000000  0.4440400000000  0.4827210000000 1.0
C      1  0.5725670000000  0.5373490000000  0.5746610000000 1.0
C      1  0.4559130000000  0.5193610000000  0.5242530000000 1.0
C      1  0.5568440000000  0.5770840000000  0.5841930000000 1.0
C      1  0.4823750000000  0.4895860000000  0.4856170000000 1.0
C      1  0.4807000000000  0.5824550000000  0.5702300000000 1.0
C      1  0.5353510000000  0.4659880000000  0.4045560000000 1.0
C      1  0.4221790000000  0.5821780000000  0.5254880000000 1.0
END
