TITL C-4164236-1577-28 11.2085484664054 125000 -16627.8235477432 0 0 112 (C1) n - 1
REM
REM in /home/nfs/bkarasulu/CARBON/AIRSS/Generating-Clusters/ReaxFF-fromJPCA2015/Units_Real/with-SteepDescent/Only-C1/SD-CG/Try1-3A/FIRE-CG
REM
REM
REM
REM
REM
REM ./C.cell (11c1c37f851c82e70ff6c80c92926a4b)
REM
REM compiler GCC version 9.2.1 20190827 (Red Hat 9.2.1-1)
REM options -cpp -mtune=generic -march=x86-64 -g -O0 -fpre-include=/usr/include/finclude/math-vector-fortran.h
REM seed -74552866 -903338837 -1177249318 -1159517725 -1742269639 -610248375 -1906789320 1782182168 1146565983 1919304804 -1869474594 64981956 1420632997 -1418125150 1878924844 631285890 893954970 2138049784 1436344713 1919309005 625025677 162016496 -1202993271 -1987080867 -602926877 905299594 -2032516958 579403839 855662504 -836895031 -1753789053 -834056847 753043507
REM
CELL 1.54180   50.00000   50.00000   50.00000   90.00000   90.00000   90.00000
LATT -1
SFAC C  
C      1  0.4790500000000  0.5227370000000  0.4069970000000 1.0
C      1  0.5648980000000  0.5428010000000  0.5412100000000 1.0
C      1  0.5274680000000  0.5763190000000  0.4595300000000 1.0
C      1  0.5323550000000  0.4348430000000  0.5584660000000 1.0
C      1  0.4721440000000  0.5595200000000  0.5189600000000 1.0
C      1  0.4819820000000  0.4940340000000  0.4458290000000 1.0
C      1  0.4691780000000  0.4651540000000  0.5126540000000 1.0
C      1  0.4316950000000  0.4977060000000  0.5690820000000 1.0
C      1  0.4912790000000  0.4513390000000  0.4283110000000 1.0
C      1  0.5391290000000  0.4806540000000  0.5438230000000 1.0
C      1  0.5007290000000  0.4606690000000  0.5367830000000 1.0
C      1  0.5303270000000  0.5297070000000  0.4077940000000 1.0
C      1  0.5840250000000  0.4955300000000  0.5038930000000 1.0
C      1  0.5504900000000  0.4376560000000  0.4757490000000 1.0
C      1  0.4685170000000  0.5642220000000  0.5491330000000 1.0
C      1  0.5338780000000  0.5016140000000  0.4985830000000 1.0
C      1  0.5636200000000  0.5195640000000  0.5595130000000 1.0
C      1  0.5300010000000  0.4551170000000  0.4640750000000 1.0
C      1  0.4616210000000  0.4522280000000  0.4313250000000 1.0
C      1  0.4756020000000  0.5621240000000  0.4399340000000 1.0
C      1  0.5462770000000  0.4334080000000  0.5330330000000 1.0
C      1  0.5520270000000  0.4699170000000  0.4277750000000 1.0
C      1  0.4967080000000  0.4727530000000  0.4974260000000 1.0
C      1  0.4905960000000  0.4655110000000  0.5878910000000 1.0
C      1  0.5595170000000  0.5694330000000  0.4961400000000 1.0
C      1  0.5103380000000  0.4964000000000  0.4539030000000 1.0
C      1  0.5446180000000  0.5552300000000  0.5575950000000 1.0
C      1  0.4823750000000  0.4213420000000  0.5139160000000 1.0
C      1  0.5397650000000  0.5093510000000  0.4244590000000 1.0
C      1  0.4458040000000  0.5471460000000  0.5556040000000 1.0
C      1  0.5451150000000  0.5353020000000  0.5769480000000 1.0
C      1  0.5171680000000  0.4722640000000  0.5784530000000 1.0
C      1  0.5821490000000  0.4814570000000  0.4777540000000 1.0
C      1  0.5305060000000  0.4828880000000  0.4156770000000 1.0
C      1  0.4302990000000  0.5456300000000  0.5301860000000 1.0
C      1  0.5189140000000  0.5553860000000  0.5463790000000 1.0
C      1  0.4329500000000  0.4967590000000  0.4295370000000 1.0
C      1  0.4678300000000  0.4882830000000  0.5323710000000 1.0
C      1  0.5643780000000  0.4912800000000  0.5511430000000 1.0
C      1  0.5375340000000  0.5232770000000  0.4822740000000 1.0
C      1  0.5508650000000  0.4606630000000  0.5208610000000 1.0
C      1  0.4776800000000  0.4452890000000  0.5307150000000 1.0
C      1  0.5248220000000  0.5044070000000  0.5261260000000 1.0
C      1  0.4763110000000  0.5230580000000  0.4706890000000 1.0
C      1  0.4634020000000  0.5405880000000  0.4231740000000 1.0
C      1  0.4159410000000  0.4860510000000  0.5019700000000 1.0
C      1  0.4931760000000  0.5425470000000  0.5848950000000 1.0
C      1  0.4228720000000  0.4976240000000  0.4572530000000 1.0
C      1  0.5262380000000  0.5632830000000  0.5190930000000 1.0
C      1  0.4522130000000  0.4770420000000  0.4198320000000 1.0
C      1  0.5877020000000  0.5289850000000  0.4705040000000 1.0
C      1  0.4721210000000  0.5199930000000  0.5869750000000 1.0
C      1  0.4504790000000  0.5429650000000  0.4773340000000 1.0
C      1  0.4196300000000  0.4744480000000  0.4755850000000 1.0
C      1  0.5300130000000  0.4153820000000  0.5171360000000 1.0
C      1  0.4624490000000  0.5101790000000  0.5138490000000 1.0
C      1  0.5021050000000  0.4731670000000  0.4136080000000 1.0
C      1  0.5693340000000  0.4588800000000  0.4448200000000 1.0
C      1  0.5202100000000  0.5336580000000  0.5924770000000 1.0
C      1  0.4832500000000  0.4943310000000  0.5976860000000 1.0
C      1  0.4304400000000  0.5265550000000  0.4591000000000 1.0
C      1  0.5709820000000  0.5470210000000  0.5129020000000 1.0
C      1  0.5001640000000  0.5510250000000  0.4866070000000 1.0
C      1  0.4664090000000  0.5674540000000  0.4665620000000 1.0
C      1  0.4426290000000  0.4719140000000  0.5659470000000 1.0
C      1  0.4930390000000  0.5614850000000  0.5633970000000 1.0
C      1  0.5299850000000  0.4835850000000  0.4716380000000 1.0
C      1  0.4145980000000  0.5205550000000  0.5286060000000 1.0
C      1  0.5540720000000  0.5667350000000  0.4670290000000 1.0
C      1  0.5148310000000  0.5880530000000  0.4818580000000 1.0
C      1  0.4700700000000  0.4775840000000  0.4669300000000 1.0
C      1  0.4823380000000  0.4432700000000  0.5710860000000 1.0
C      1  0.5071610000000  0.5246900000000  0.5367990000000 1.0
C      1  0.4813030000000  0.4252380000000  0.4843690000000 1.0
C      1  0.4329650000000  0.4506350000000  0.5310760000000 1.0
C      1  0.5520280000000  0.5178730000000  0.4515390000000 1.0
C      1  0.5072840000000  0.5593250000000  0.4414410000000 1.0
C      1  0.5676100000000  0.5437390000000  0.4546770000000 1.0
C      1  0.5246420000000  0.5453260000000  0.4966760000000 1.0
C      1  0.4143280000000  0.4726710000000  0.5287130000000 1.0
C      1  0.5112090000000  0.4990070000000  0.5681060000000 1.0
C      1  0.5398380000000  0.4622350000000  0.5660930000000 1.0
C      1  0.4302600000000  0.5109360000000  0.5066590000000 1.0
C      1  0.5090410000000  0.4390440000000  0.4502070000000 1.0
C      1  0.5072430000000  0.4192610000000  0.4720660000000 1.0
C      1  0.4781810000000  0.4920430000000  0.4124400000000 1.0
C      1  0.4131440000000  0.4964880000000  0.5463790000000 1.0
C      1  0.5038140000000  0.4269260000000  0.5583410000000 1.0
C      1  0.5739720000000  0.4802940000000  0.5258240000000 1.0
C      1  0.5354920000000  0.5848680000000  0.5030740000000 1.0
C      1  0.4824400000000  0.5313710000000  0.5230570000000 1.0
C      1  0.4862850000000  0.5772690000000  0.4866790000000 1.0
C      1  0.4465400000000  0.5527980000000  0.5065580000000 1.0
C      1  0.4537430000000  0.4472590000000  0.5582760000000 1.0
C      1  0.4432870000000  0.4475400000000  0.5046130000000 1.0
C      1  0.5176750000000  0.5522580000000  0.4151770000000 1.0
C      1  0.4910590000000  0.4856560000000  0.5493700000000 1.0
C      1  0.5038780000000  0.4139530000000  0.5313940000000 1.0
C      1  0.5039540000000  0.5341130000000  0.3981160000000 1.0
C      1  0.4798900000000  0.4967390000000  0.4871880000000 1.0
C      1  0.5318320000000  0.4179310000000  0.4879520000000 1.0
C      1  0.5787420000000  0.5037420000000  0.4588850000000 1.0
C      1  0.4380430000000  0.5270260000000  0.4313090000000 1.0
C      1  0.5758760000000  0.4528240000000  0.4714740000000 1.0
C      1  0.4759550000000  0.4490600000000  0.4691870000000 1.0
C      1  0.4999500000000  0.5366860000000  0.4618230000000 1.0
C      1  0.5097080000000  0.5071360000000  0.5974330000000 1.0
C      1  0.4477870000000  0.5235390000000  0.5728310000000 1.0
C      1  0.4338350000000  0.4489950000000  0.4770250000000 1.0
C      1  0.4538150000000  0.4390710000000  0.4571340000000 1.0
C      1  0.5180760000000  0.4647310000000  0.5140500000000 1.0
C      1  0.5848860000000  0.5253770000000  0.4996340000000 1.0
END
