TITL C-4164242-3624-499 30.5164768756545 125000 -26079.2764207058 0 0 174 (C1) n - 1
REM
REM in /home/nfs/bkarasulu/CARBON/AIRSS/Generating-Clusters/ReaxFF-fromJPCA2015/Units_Real/with-SteepDescent/Only-C1/SD-CG/Try1-3A/FIRE-CG
REM
REM
REM
REM
REM
REM ./C.cell (11c1c37f851c82e70ff6c80c92926a4b)
REM
REM compiler GCC version 9.2.1 20190827 (Red Hat 9.2.1-1)
REM options -cpp -mtune=generic -march=x86-64 -g -O0 -fpre-include=/usr/include/finclude/math-vector-fortran.h
REM seed -1911846578 -180849850 -440616183 -1374342634 -790703232 162199285 -2034322490 -4478741 314162048 -1203735096 -1421890163 -1702038888 825076277 1409298922 -1209076344 -391064348 1836984664 1006838573 -1328653236 50756036 -718095988 -174200915 -1695360610 1672482155 152111115 -908441464 -137771737 1724918790 -950838271 811896402 1816320428 -1331194532 1444117090
REM
CELL 1.54180   50.00000   50.00000   50.00000   90.00000   90.00000   90.00000
LATT -1
SFAC C  
C      1  0.5514810000000  0.4755060000000  0.5097050000000 1.0
C      1  0.5408780000000  0.4997160000000  0.6109910000000 1.0
C      1  0.4960600000000  0.5748530000000  0.5739770000000 1.0
C      1  0.4994100000000  0.5146320000000  0.5407140000000 1.0
C      1  0.4596330000000  0.5647440000000  0.5390990000000 1.0
C      1  0.5298330000000  0.5130200000000  0.4770690000000 1.0
C      1  0.4730000000000  0.5191430000000  0.4519280000000 1.0
C      1  0.4394430000000  0.4720940000000  0.4832450000000 1.0
C      1  0.4937530000000  0.4930810000000  0.4143280000000 1.0
C      1  0.4840840000000  0.5239790000000  0.5615880000000 1.0
C      1  0.5756650000000  0.5908170000000  0.5284710000000 1.0
C      1  0.5373540000000  0.5538940000000  0.4685280000000 1.0
C      1  0.5166950000000  0.4687780000000  0.4524710000000 1.0
C      1  0.5213470000000  0.4894340000000  0.5936150000000 1.0
C      1  0.5257110000000  0.4409000000000  0.4918500000000 1.0
C      1  0.4529050000000  0.4194410000000  0.5479800000000 1.0
C      1  0.5775940000000  0.5492350000000  0.4159000000000 1.0
C      1  0.4416520000000  0.4101170000000  0.5232550000000 1.0
C      1  0.5711640000000  0.4252850000000  0.5176040000000 1.0
C      1  0.5106350000000  0.5528750000000  0.5104060000000 1.0
C      1  0.5571890000000  0.4746120000000  0.5664550000000 1.0
C      1  0.4653780000000  0.4554240000000  0.5186100000000 1.0
C      1  0.5843300000000  0.5215650000000  0.4044570000000 1.0
C      1  0.4554190000000  0.4660730000000  0.5410200000000 1.0
C      1  0.6046670000000  0.4911910000000  0.4675220000000 1.0
C      1  0.4252180000000  0.4545090000000  0.5795000000000 1.0
C      1  0.5486670000000  0.6018300000000  0.5164020000000 1.0
C      1  0.5493180000000  0.5676280000000  0.5704270000000 1.0
C      1  0.5516930000000  0.5658720000000  0.4226480000000 1.0
C      1  0.4655820000000  0.5023100000000  0.5685110000000 1.0
C      1  0.4944110000000  0.5450790000000  0.5794120000000 1.0
C      1  0.4745130000000  0.5805280000000  0.4494340000000 1.0
C      1  0.5493990000000  0.4553550000000  0.4893410000000 1.0
C      1  0.4090270000000  0.4775900000000  0.5783830000000 1.0
C      1  0.4856230000000  0.5432990000000  0.3904260000000 1.0
C      1  0.4659380000000  0.4828490000000  0.4050520000000 1.0
C      1  0.4564550000000  0.5322990000000  0.6074560000000 1.0
C      1  0.5357880000000  0.4134260000000  0.4501050000000 1.0
C      1  0.5649400000000  0.4575950000000  0.4367860000000 1.0
C      1  0.5933430000000  0.4557620000000  0.4471110000000 1.0
C      1  0.4612710000000  0.4763940000000  0.5022370000000 1.0
C      1  0.4865840000000  0.4153420000000  0.4329590000000 1.0
C      1  0.5829000000000  0.5116860000000  0.4778780000000 1.0
C      1  0.4336450000000  0.4593590000000  0.4311630000000 1.0
C      1  0.5313060000000  0.4014190000000  0.5340710000000 1.0
C      1  0.5604760000000  0.4417520000000  0.5662140000000 1.0
C      1  0.4585020000000  0.5394840000000  0.5195490000000 1.0
C      1  0.4735080000000  0.4346340000000  0.4192930000000 1.0
C      1  0.5462940000000  0.4730620000000  0.4605370000000 1.0
C      1  0.4236940000000  0.4866070000000  0.4254150000000 1.0
C      1  0.4941110000000  0.5380920000000  0.4479410000000 1.0
C      1  0.4078210000000  0.4272190000000  0.4580400000000 1.0
C      1  0.4506020000000  0.5837090000000  0.5165720000000 1.0
C      1  0.5112480000000  0.5768080000000  0.4281130000000 1.0
C      1  0.5955980000000  0.4469740000000  0.4759760000000 1.0
C      1  0.5257610000000  0.5598620000000  0.4114430000000 1.0
C      1  0.4020720000000  0.5005200000000  0.4380900000000 1.0
C      1  0.5951550000000  0.5791070000000  0.5096460000000 1.0
C      1  0.5426140000000  0.4490270000000  0.5952530000000 1.0
C      1  0.4563890000000  0.5726940000000  0.4265550000000 1.0
C      1  0.3873470000000  0.5018700000000  0.4639840000000 1.0
C      1  0.5142040000000  0.5950870000000  0.4760190000000 1.0
C      1  0.5493140000000  0.5739900000000  0.4509230000000 1.0
C      1  0.4764140000000  0.5935400000000  0.5085860000000 1.0
C      1  0.4389160000000  0.5427730000000  0.5848870000000 1.0
C      1  0.5796910000000  0.4902160000000  0.5600240000000 1.0
C      1  0.5189740000000  0.5059100000000  0.3986680000000 1.0
C      1  0.5096770000000  0.5330610000000  0.6018730000000 1.0
C      1  0.5236540000000  0.6019770000000  0.5249320000000 1.0
C      1  0.5017430000000  0.5935370000000  0.4488030000000 1.0
C      1  0.4054220000000  0.4791350000000  0.5165230000000 1.0
C      1  0.5372070000000  0.5534710000000  0.5209350000000 1.0
C      1  0.4013700000000  0.5279170000000  0.5086600000000 1.0
C      1  0.5207330000000  0.5331890000000  0.4587070000000 1.0
C      1  0.4788430000000  0.4146060000000  0.4641660000000 1.0
C      1  0.4433490000000  0.4999880000000  0.4102300000000 1.0
C      1  0.5280080000000  0.4425320000000  0.5404010000000 1.0
C      1  0.4754790000000  0.4565730000000  0.5782030000000 1.0
C      1  0.5124800000000  0.5039230000000  0.4993660000000 1.0
C      1  0.4121090000000  0.4404180000000  0.4347040000000 1.0
C      1  0.5001690000000  0.4035890000000  0.4828730000000 1.0
C      1  0.4155050000000  0.5507720000000  0.5500810000000 1.0
C      1  0.5337170000000  0.4295740000000  0.4117190000000 1.0
C      1  0.5384820000000  0.4834870000000  0.3980770000000 1.0
C      1  0.3871710000000  0.4785390000000  0.4487870000000 1.0
C      1  0.4220220000000  0.4255890000000  0.5073130000000 1.0
C      1  0.5378770000000  0.4234210000000  0.5556890000000 1.0
C      1  0.5241400000000  0.5749890000000  0.5779830000000 1.0
C      1  0.4836100000000  0.5820410000000  0.5487220000000 1.0
C      1  0.5749100000000  0.5571850000000  0.4826760000000 1.0
C      1  0.4410300000000  0.5078650000000  0.5544150000000 1.0
C      1  0.4265900000000  0.5672110000000  0.4300760000000 1.0
C      1  0.4162590000000  0.5062240000000  0.5211720000000 1.0
C      1  0.5123200000000  0.4458320000000  0.5946690000000 1.0
C      1  0.5960560000000  0.5506390000000  0.5162170000000 1.0
C      1  0.4930110000000  0.4338430000000  0.5769780000000 1.0
C      1  0.4103330000000  0.5528490000000  0.5212470000000 1.0
C      1  0.4272870000000  0.5704430000000  0.5038630000000 1.0
C      1  0.4824730000000  0.4906310000000  0.4878840000000 1.0
C      1  0.4179780000000  0.5384540000000  0.4336070000000 1.0
C      1  0.5870630000000  0.5110450000000  0.5074950000000 1.0
C      1  0.4845240000000  0.4198750000000  0.5481880000000 1.0
C      1  0.5775110000000  0.4440060000000  0.5417410000000 1.0
C      1  0.4582330000000  0.4556460000000  0.4100950000000 1.0
C      1  0.5460060000000  0.5226850000000  0.5673500000000 1.0
C      1  0.4385250000000  0.5619710000000  0.5631570000000 1.0
C      1  0.5893680000000  0.4703520000000  0.5406190000000 1.0
C      1  0.5536530000000  0.4999160000000  0.4690280000000 1.0
C      1  0.4083530000000  0.4501860000000  0.5148170000000 1.0
C      1  0.5854980000000  0.5841570000000  0.4813070000000 1.0
C      1  0.5082860000000  0.4673970000000  0.4248530000000 1.0
C      1  0.4388030000000  0.5112720000000  0.6161470000000 1.0
C      1  0.3975170000000  0.5019320000000  0.5768120000000 1.0
C      1  0.5860200000000  0.4944510000000  0.4164670000000 1.0
C      1  0.4799350000000  0.5605380000000  0.4700570000000 1.0
C      1  0.5844170000000  0.5735060000000  0.5493820000000 1.0
C      1  0.4965630000000  0.5754510000000  0.4914210000000 1.0
C      1  0.4163090000000  0.5394730000000  0.4639930000000 1.0
C      1  0.3908530000000  0.4498400000000  0.4498610000000 1.0
C      1  0.5159250000000  0.4118680000000  0.4287120000000 1.0
C      1  0.4952190000000  0.6013150000000  0.5300660000000 1.0
C      1  0.4447010000000  0.5154320000000  0.5268100000000 1.0
C      1  0.4855360000000  0.5199550000000  0.6122320000000 1.0
C      1  0.5253070000000  0.4569880000000  0.4038600000000 1.0
C      1  0.4599350000000  0.5491080000000  0.4097100000000 1.0
C      1  0.3977190000000  0.5238850000000  0.4793910000000 1.0
C      1  0.4265280000000  0.4189020000000  0.4793130000000 1.0
C      1  0.5899510000000  0.5280010000000  0.5298030000000 1.0
C      1  0.5402010000000  0.6027800000000  0.4864330000000 1.0
C      1  0.4130590000000  0.4676890000000  0.4931230000000 1.0
C      1  0.5393170000000  0.5470570000000  0.5509630000000 1.0
C      1  0.4594770000000  0.3967530000000  0.5035260000000 1.0
C      1  0.5045560000000  0.4725640000000  0.6051980000000 1.0
C      1  0.4834610000000  0.4909530000000  0.6130590000000 1.0
C      1  0.4935190000000  0.4675500000000  0.4700260000000 1.0
C      1  0.4602110000000  0.5401530000000  0.4894320000000 1.0
C      1  0.5618890000000  0.5946660000000  0.4681160000000 1.0
C      1  0.4205340000000  0.5249670000000  0.5673970000000 1.0
C      1  0.5899460000000  0.5382220000000  0.4666120000000 1.0
C      1  0.4905260000000  0.5501500000000  0.3666840000000 1.0
C      1  0.5124570000000  0.4477910000000  0.5168690000000 1.0
C      1  0.5474600000000  0.4095830000000  0.5110970000000 1.0
C      1  0.5021650000000  0.3991200000000  0.5331440000000 1.0
C      1  0.4562680000000  0.4884530000000  0.6011530000000 1.0
C      1  0.4892900000000  0.3939560000000  0.5075980000000 1.0
C      1  0.5018920000000  0.5259060000000  0.5158010000000 1.0
C      1  0.4500970000000  0.4601960000000  0.5937030000000 1.0
C      1  0.5782760000000  0.5516630000000  0.5670830000000 1.0
C      1  0.5773650000000  0.5223780000000  0.5597390000000 1.0
C      1  0.4862810000000  0.4392810000000  0.5249640000000 1.0
C      1  0.4666390000000  0.5132910000000  0.4767080000000 1.0
C      1  0.5112440000000  0.4890500000000  0.5435520000000 1.0
C      1  0.4342850000000  0.5549530000000  0.4806420000000 1.0
C      1  0.4405660000000  0.5292790000000  0.4153490000000 1.0
C      1  0.4522700000000  0.4051280000000  0.4772790000000 1.0
C      1  0.4782460000000  0.4778410000000  0.5564210000000 1.0
C      1  0.5272750000000  0.4873630000000  0.5186540000000 1.0
C      1  0.5813690000000  0.4825430000000  0.5118810000000 1.0
C      1  0.5736890000000  0.4340990000000  0.4902500000000 1.0
C      1  0.5538150000000  0.4286300000000  0.4332010000000 1.0
C      1  0.6022020000000  0.4820640000000  0.4401140000000 1.0
C      1  0.4932740000000  0.5096270000000  0.4394550000000 1.0
C      1  0.5864950000000  0.5419920000000  0.4402580000000 1.0
C      1  0.5379970000000  0.5249980000000  0.5971230000000 1.0
C      1  0.4488180000000  0.4593430000000  0.4597940000000 1.0
C      1  0.5318640000000  0.4912480000000  0.5668390000000 1.0
C      1  0.5630040000000  0.4776600000000  0.4130280000000 1.0
C      1  0.5493990000000  0.5500520000000  0.4947460000000 1.0
C      1  0.5150990000000  0.5342740000000  0.3951310000000 1.0
C      1  0.4401540000000  0.4445570000000  0.5552970000000 1.0
C      1  0.5525110000000  0.4718150000000  0.6108180000000 1.0
C      1  0.5284060000000  0.4130530000000  0.4823080000000 1.0
C      1  0.4740710000000  0.4469120000000  0.4650350000000 1.0
C      1  0.6001810000000  0.4722610000000  0.4883420000000 1.0
END
