TITL C-4164240-4114-685 -4.90999658177761 125000 -8835.95538007732 0 0 61 (C1) n - 1
REM
REM in /home/nfs/bkarasulu/CARBON/AIRSS/Generating-Clusters/ReaxFF-fromJPCA2015/Units_Real/with-SteepDescent/Only-C1/SD-CG/Try1-3A/FIRE-CG
REM
REM
REM
REM
REM
REM ./C.cell (11c1c37f851c82e70ff6c80c92926a4b)
REM
REM compiler GCC version 9.2.1 20190827 (Red Hat 9.2.1-1)
REM options -cpp -mtune=generic -march=x86-64 -g -O0 -fpre-include=/usr/include/finclude/math-vector-fortran.h
REM seed 726719724 1168598245 24486513 -84140243 860319370 1228973821 -1534625888 474411309 907918710 -1187894303 -619925069 -1311770815 1712076735 -808292282 1681797631 -1963979911 950675646 -2136815476 1160611069 -1884186613 810533738 519053580 2037745564 353280019 592699105 -569779888 -759066058 -596764864 1022672505 482111533 -2097446914 -1342058479 -1072201180
REM
CELL 1.54180   50.00000   50.00000   50.00000   90.00000   90.00000   90.00000
LATT -1
SFAC C  
C      1  0.4786530000000  0.4766620000000  0.4686440000000 1.0
C      1  0.4788610000000  0.4763830000000  0.5144070000000 1.0
C      1  0.5385750000000  0.4815480000000  0.5598960000000 1.0
C      1  0.5286310000000  0.5653290000000  0.4682070000000 1.0
C      1  0.5000610000000  0.4318250000000  0.4783670000000 1.0
C      1  0.5108470000000  0.5050440000000  0.4946890000000 1.0
C      1  0.5584100000000  0.4399940000000  0.5140170000000 1.0
C      1  0.5219550000000  0.5022960000000  0.5794810000000 1.0
C      1  0.4752580000000  0.4909200000000  0.5395090000000 1.0
C      1  0.5740690000000  0.4566020000000  0.4965350000000 1.0
C      1  0.5265150000000  0.5290530000000  0.5727060000000 1.0
C      1  0.4614550000000  0.5333500000000  0.4419110000000 1.0
C      1  0.5021400000000  0.5429170000000  0.4453160000000 1.0
C      1  0.4898980000000  0.5014250000000  0.4748190000000 1.0
C      1  0.5051620000000  0.4625990000000  0.5090170000000 1.0
C      1  0.4667520000000  0.4767550000000  0.4421460000000 1.0
C      1  0.4517640000000  0.5439900000000  0.5484670000000 1.0
C      1  0.4404490000000  0.4905890000000  0.4468430000000 1.0
C      1  0.5602050000000  0.5037230000000  0.4714500000000 1.0
C      1  0.4665810000000  0.5030720000000  0.5799480000000 1.0
C      1  0.4450160000000  0.4956940000000  0.5391150000000 1.0
C      1  0.4627940000000  0.4422260000000  0.5415610000000 1.0
C      1  0.5265890000000  0.4484690000000  0.4369290000000 1.0
C      1  0.5239190000000  0.4791890000000  0.4971980000000 1.0
C      1  0.5694920000000  0.5182930000000  0.4943010000000 1.0
C      1  0.5460340000000  0.5164810000000  0.4494730000000 1.0
C      1  0.5062000000000  0.4309680000000  0.5119570000000 1.0
C      1  0.4294790000000  0.5142150000000  0.4596380000000 1.0
C      1  0.4947360000000  0.5064360000000  0.5837060000000 1.0
C      1  0.5297790000000  0.4980520000000  0.4360190000000 1.0
C      1  0.5280020000000  0.5519820000000  0.5565000000000 1.0
C      1  0.4430870000000  0.5456720000000  0.5208260000000 1.0
C      1  0.5419970000000  0.4582540000000  0.4575530000000 1.0
C      1  0.4772930000000  0.5545590000000  0.5408760000000 1.0
C      1  0.4895470000000  0.4906710000000  0.4286610000000 1.0
C      1  0.5155900000000  0.5477040000000  0.5273470000000 1.0
C      1  0.5148770000000  0.4286040000000  0.4543070000000 1.0
C      1  0.4798250000000  0.5579950000000  0.4909820000000 1.0
C      1  0.5485460000000  0.4947090000000  0.5383250000000 1.0
C      1  0.4374970000000  0.4991080000000  0.5086540000000 1.0
C      1  0.5518200000000  0.4745300000000  0.4798890000000 1.0
C      1  0.5312450000000  0.5440030000000  0.4486820000000 1.0
C      1  0.4913770000000  0.5627870000000  0.5180720000000 1.0
C      1  0.5521840000000  0.5154860000000  0.5201080000000 1.0
C      1  0.4519020000000  0.4748020000000  0.4999900000000 1.0
C      1  0.5344450000000  0.4570070000000  0.5466780000000 1.0
C      1  0.4394910000000  0.5378840000000  0.4414740000000 1.0
C      1  0.4985210000000  0.5610870000000  0.4689920000000 1.0
C      1  0.4517840000000  0.5469600000000  0.4943410000000 1.0
C      1  0.5325890000000  0.4355430000000  0.5290570000000 1.0
C      1  0.4370420000000  0.5208050000000  0.4886900000000 1.0
C      1  0.4713140000000  0.4771390000000  0.5662000000000 1.0
C      1  0.4867150000000  0.4524370000000  0.4690360000000 1.0
C      1  0.4496610000000  0.4625120000000  0.5539600000000 1.0
C      1  0.4819930000000  0.4330050000000  0.5275790000000 1.0
C      1  0.5521000000000  0.5713930000000  0.4882660000000 1.0
C      1  0.5633590000000  0.5452040000000  0.4924620000000 1.0
C      1  0.4881730000000  0.5157240000000  0.4477080000000 1.0
C      1  0.5150760000000  0.4774320000000  0.4259700000000 1.0
C      1  0.5243040000000  0.5249980000000  0.5124450000000 1.0
C      1  0.4483610000000  0.5159030000000  0.5600980000000 1.0
END
