TITL C-4164247-2821-698 7.19048190347817 125000 -16983.6722722328 0 0 115 (C1) n - 1
REM
REM in /home/nfs/bkarasulu/CARBON/AIRSS/Generating-Clusters/ReaxFF-fromJPCA2015/Units_Real/with-SteepDescent/Only-C1/SD-CG/Try1-3A/FIRE-CG
REM
REM
REM
REM
REM
REM ./C.cell (11c1c37f851c82e70ff6c80c92926a4b)
REM
REM compiler GCC version 9.2.1 20190827 (Red Hat 9.2.1-1)
REM options -cpp -mtune=generic -march=x86-64 -g -O0 -fpre-include=/usr/include/finclude/math-vector-fortran.h
REM seed 836905706 -1726414224 -1139497318 -1206220997 138506232 2069888888 1978882995 1733529038 -1869097139 42552225 1467372471 -358507533 2085857349 2079753448 -36741372 -1293098106 -809901188 -670046772 1486246536 -776365606 941528375 -621761229 -2012504614 -1587461491 1408825793 -566434406 1900705893 1686697289 -958876549 585358944 721973532 484517411 407464690
REM
CELL 1.54180   50.00000   50.00000   50.00000   90.00000   90.00000   90.00000
LATT -1
SFAC C  
C      1  0.5798070000000  0.5499580000000  0.4702010000000 1.0
C      1  0.4665830000000  0.4680310000000  0.5790980000000 1.0
C      1  0.5460590000000  0.5137680000000  0.5949000000000 1.0
C      1  0.5257120000000  0.5116230000000  0.3980810000000 1.0
C      1  0.4599930000000  0.4967370000000  0.4604100000000 1.0
C      1  0.5049880000000  0.4594200000000  0.5218380000000 1.0
C      1  0.4473970000000  0.4790780000000  0.5585260000000 1.0
C      1  0.5670190000000  0.4934010000000  0.4604290000000 1.0
C      1  0.5641860000000  0.4782030000000  0.5597210000000 1.0
C      1  0.5196350000000  0.5123020000000  0.4751070000000 1.0
C      1  0.5213000000000  0.4974250000000  0.5513450000000 1.0
C      1  0.4411130000000  0.5434710000000  0.4939570000000 1.0
C      1  0.4829810000000  0.4974350000000  0.4762310000000 1.0
C      1  0.5012360000000  0.4084070000000  0.4950140000000 1.0
C      1  0.4738780000000  0.5139590000000  0.5457900000000 1.0
C      1  0.5828670000000  0.4904190000000  0.5104830000000 1.0
C      1  0.4795050000000  0.5672230000000  0.5316550000000 1.0
C      1  0.4357140000000  0.4421670000000  0.4702050000000 1.0
C      1  0.5560400000000  0.4955610000000  0.4324630000000 1.0
C      1  0.5217090000000  0.4689200000000  0.5439140000000 1.0
C      1  0.5167380000000  0.4215390000000  0.5647260000000 1.0
C      1  0.5375340000000  0.4986680000000  0.5154550000000 1.0
C      1  0.5859140000000  0.5592290000000  0.4988900000000 1.0
C      1  0.4642230000000  0.4813400000000  0.5129460000000 1.0
C      1  0.4761100000000  0.5280140000000  0.5181860000000 1.0
C      1  0.4441850000000  0.4488990000000  0.4423170000000 1.0
C      1  0.5433830000000  0.5180560000000  0.5485580000000 1.0
C      1  0.5335230000000  0.4850220000000  0.3997190000000 1.0
C      1  0.5395590000000  0.5574640000000  0.5015330000000 1.0
C      1  0.5738830000000  0.4718600000000  0.5309260000000 1.0
C      1  0.4945040000000  0.5148160000000  0.3973060000000 1.0
C      1  0.5030890000000  0.4385440000000  0.5845030000000 1.0
C      1  0.4944810000000  0.5798310000000  0.4405450000000 1.0
C      1  0.5599500000000  0.5076040000000  0.5038340000000 1.0
C      1  0.4908410000000  0.4813050000000  0.5900310000000 1.0
C      1  0.4058050000000  0.4787510000000  0.4303360000000 1.0
C      1  0.5349650000000  0.4415280000000  0.5510290000000 1.0
C      1  0.4377890000000  0.5401890000000  0.5441670000000 1.0
C      1  0.5423420000000  0.4712280000000  0.4221890000000 1.0
C      1  0.4828800000000  0.5753920000000  0.4706100000000 1.0
C      1  0.5452770000000  0.5711080000000  0.5400950000000 1.0
C      1  0.4864070000000  0.5328580000000  0.4426390000000 1.0
C      1  0.5757500000000  0.4378690000000  0.4894510000000 1.0
C      1  0.4305180000000  0.5286590000000  0.5175620000000 1.0
C      1  0.4988620000000  0.5802230000000  0.5483990000000 1.0
C      1  0.5215090000000  0.5879440000000  0.5343860000000 1.0
C      1  0.4986090000000  0.5680220000000  0.5735270000000 1.0
C      1  0.4573360000000  0.4309200000000  0.4855320000000 1.0
C      1  0.4447830000000  0.4300190000000  0.5329540000000 1.0
C      1  0.4648560000000  0.4879060000000  0.5403490000000 1.0
C      1  0.5490070000000  0.5082220000000  0.4762700000000 1.0
C      1  0.5612490000000  0.5062940000000  0.5693730000000 1.0
C      1  0.4709610000000  0.4543330000000  0.4992460000000 1.0
C      1  0.4723120000000  0.4414360000000  0.4385030000000 1.0
C      1  0.5219480000000  0.5513830000000  0.5790230000000 1.0
C      1  0.4794100000000  0.4127060000000  0.4766130000000 1.0
C      1  0.4747420000000  0.5048810000000  0.5014190000000 1.0
C      1  0.4917180000000  0.4628860000000  0.4448060000000 1.0
C      1  0.4244260000000  0.4570890000000  0.4929560000000 1.0
C      1  0.5192960000000  0.5414300000000  0.5142660000000 1.0
C      1  0.4763450000000  0.4417680000000  0.5745870000000 1.0
C      1  0.4889440000000  0.5116960000000  0.4256730000000 1.0
C      1  0.5138640000000  0.4207790000000  0.4404390000000 1.0
C      1  0.4264240000000  0.4777730000000  0.5382850000000 1.0
C      1  0.4129830000000  0.5300920000000  0.4312920000000 1.0
C      1  0.4925300000000  0.4697290000000  0.4759710000000 1.0
C      1  0.4863130000000  0.4171920000000  0.4474710000000 1.0
C      1  0.4709680000000  0.4985500000000  0.3920370000000 1.0
C      1  0.5225880000000  0.5978020000000  0.4845930000000 1.0
C      1  0.4105980000000  0.5035310000000  0.4477610000000 1.0
C      1  0.4281980000000  0.4510460000000  0.5230190000000 1.0
C      1  0.5906060000000  0.5241340000000  0.4761130000000 1.0
C      1  0.4597020000000  0.5405130000000  0.4472990000000 1.0
C      1  0.5156730000000  0.5674540000000  0.4284310000000 1.0
C      1  0.4416260000000  0.5248510000000  0.4289440000000 1.0
C      1  0.5313230000000  0.5709040000000  0.4767650000000 1.0
C      1  0.5171520000000  0.4110480000000  0.5198920000000 1.0
C      1  0.5337600000000  0.4336470000000  0.4553850000000 1.0
C      1  0.4976730000000  0.5099670000000  0.5614900000000 1.0
C      1  0.4322770000000  0.4986530000000  0.4674710000000 1.0
C      1  0.5157960000000  0.4652440000000  0.5892170000000 1.0
C      1  0.4672830000000  0.5310890000000  0.5860510000000 1.0
C      1  0.4501250000000  0.4953380000000  0.4160540000000 1.0
C      1  0.4229270000000  0.4996620000000  0.5181700000000 1.0
C      1  0.5537030000000  0.5566540000000  0.4576070000000 1.0
C      1  0.4218540000000  0.4860980000000  0.4923940000000 1.0
C      1  0.5406800000000  0.4289810000000  0.5261590000000 1.0
C      1  0.5392180000000  0.4734630000000  0.5021380000000 1.0
C      1  0.4925000000000  0.5126340000000  0.5902660000000 1.0
C      1  0.4916840000000  0.5506930000000  0.5104720000000 1.0
C      1  0.5626700000000  0.5683690000000  0.5153460000000 1.0
C      1  0.5077010000000  0.5357830000000  0.4605250000000 1.0
C      1  0.5133510000000  0.6011910000000  0.5100070000000 1.0
C      1  0.5183240000000  0.5146320000000  0.5045070000000 1.0
C      1  0.4730810000000  0.4262120000000  0.5468320000000 1.0
C      1  0.5439950000000  0.4697910000000  0.5795840000000 1.0
C      1  0.5207940000000  0.4535390000000  0.4368970000000 1.0
C      1  0.4556330000000  0.5549850000000  0.4724570000000 1.0
C      1  0.5039960000000  0.5577910000000  0.4771470000000 1.0
C      1  0.4827190000000  0.4424280000000  0.5233720000000 1.0
C      1  0.5004190000000  0.4105420000000  0.5440100000000 1.0
C      1  0.5394110000000  0.5474170000000  0.5559560000000 1.0
C      1  0.5205050000000  0.5274240000000  0.5960340000000 1.0
C      1  0.5139870000000  0.4632090000000  0.4947750000000 1.0
C      1  0.4726580000000  0.4905600000000  0.4350340000000 1.0
C      1  0.5422050000000  0.5193960000000  0.4212220000000 1.0
C      1  0.5903940000000  0.4961680000000  0.4805440000000 1.0
C      1  0.4336220000000  0.4702640000000  0.4247670000000 1.0
C      1  0.4488840000000  0.5235120000000  0.5654870000000 1.0
C      1  0.5627720000000  0.4289200000000  0.4662410000000 1.0
C      1  0.4711080000000  0.5578750000000  0.5762110000000 1.0
C      1  0.5383220000000  0.5460950000000  0.4359820000000 1.0
C      1  0.4569870000000  0.5614370000000  0.5497520000000 1.0
C      1  0.5582440000000  0.4512760000000  0.5130580000000 1.0
C      1  0.4945070000000  0.5972230000000  0.4882640000000 1.0
END
