TITL C-4164234-2335-644 34.4531659725264 125000 -19345.3287493186 0 0 130 (C1) n - 1
REM
REM in /home/nfs/bkarasulu/CARBON/AIRSS/Generating-Clusters/ReaxFF-fromJPCA2015/Units_Real/with-SteepDescent/Only-C1/SD-CG/Try1-3A/FIRE-CG
REM
REM
REM
REM
REM
REM ./C.cell (11c1c37f851c82e70ff6c80c92926a4b)
REM
REM compiler GCC version 9.2.1 20190827 (Red Hat 9.2.1-1)
REM options -cpp -mtune=generic -march=x86-64 -g -O0 -fpre-include=/usr/include/finclude/math-vector-fortran.h
REM seed -1219877731 1175644325 -1982070886 307390579 -30093865 754759614 -44521498 -1410766388 -503341886 550768331 1847110217 569830623 -1588967763 -1717110535 1957991033 999928238 -730484767 872873569 -1838251864 1930274553 1448992497 -1401690483 -410240754 683686154 774551719 -924676411 280414514 1858045243 -1685857284 -572462979 571286586 802406927 -704801450
REM
CELL 1.54180   50.00000   50.00000   50.00000   90.00000   90.00000   90.00000
LATT -1
SFAC C  
C      1  0.4112470000000  0.4864090000000  0.4497590000000 1.0
C      1  0.5858810000000  0.5030950000000  0.4427350000000 1.0
C      1  0.5825150000000  0.5048210000000  0.4849710000000 1.0
C      1  0.5310500000000  0.5941840000000  0.4500860000000 1.0
C      1  0.5606040000000  0.5679700000000  0.5638490000000 1.0
C      1  0.5233980000000  0.4295700000000  0.5716860000000 1.0
C      1  0.5537890000000  0.5044120000000  0.4769210000000 1.0
C      1  0.5513300000000  0.4787130000000  0.4243560000000 1.0
C      1  0.4265440000000  0.4926510000000  0.5665130000000 1.0
C      1  0.5456710000000  0.5229940000000  0.4555160000000 1.0
C      1  0.5502460000000  0.5779740000000  0.4351090000000 1.0
C      1  0.4899990000000  0.6057520000000  0.4720220000000 1.0
C      1  0.5066770000000  0.4046820000000  0.5314540000000 1.0
C      1  0.4932650000000  0.4584860000000  0.5805300000000 1.0
C      1  0.4294770000000  0.4504790000000  0.4409370000000 1.0
C      1  0.5757440000000  0.4736130000000  0.5170950000000 1.0
C      1  0.4689700000000  0.5174210000000  0.5178000000000 1.0
C      1  0.4701970000000  0.4408200000000  0.4458130000000 1.0
C      1  0.4833090000000  0.5017670000000  0.6024250000000 1.0
C      1  0.4078330000000  0.5079560000000  0.5242970000000 1.0
C      1  0.5123420000000  0.6055040000000  0.4910200000000 1.0
C      1  0.5287810000000  0.4470930000000  0.5947660000000 1.0
C      1  0.4042050000000  0.4808760000000  0.4779960000000 1.0
C      1  0.5483570000000  0.5358330000000  0.5431340000000 1.0
C      1  0.5131150000000  0.5503420000000  0.4121630000000 1.0
C      1  0.4797030000000  0.4694180000000  0.5292590000000 1.0
C      1  0.5369480000000  0.5017550000000  0.4995310000000 1.0
C      1  0.4965070000000  0.5195820000000  0.4726270000000 1.0
C      1  0.5812830000000  0.5254020000000  0.5061610000000 1.0
C      1  0.4813370000000  0.5311020000000  0.5939950000000 1.0
C      1  0.5209180000000  0.5626140000000  0.5134950000000 1.0
C      1  0.4960070000000  0.4340690000000  0.4964840000000 1.0
C      1  0.4439210000000  0.4284550000000  0.4500920000000 1.0
C      1  0.4375570000000  0.5303700000000  0.4407310000000 1.0
C      1  0.5172410000000  0.4960890000000  0.5748990000000 1.0
C      1  0.4537470000000  0.5056780000000  0.5394130000000 1.0
C      1  0.4883790000000  0.5532070000000  0.4210570000000 1.0
C      1  0.5348130000000  0.4667450000000  0.4469540000000 1.0
C      1  0.4619310000000  0.5388430000000  0.5733840000000 1.0
C      1  0.5031650000000  0.5852650000000  0.5102550000000 1.0
C      1  0.4766010000000  0.4526340000000  0.4859280000000 1.0
C      1  0.5638830000000  0.4851950000000  0.5791320000000 1.0
C      1  0.4860700000000  0.4733840000000  0.5026830000000 1.0
C      1  0.5153750000000  0.4779240000000  0.4645240000000 1.0
C      1  0.5377110000000  0.6024310000000  0.4771570000000 1.0
C      1  0.5641430000000  0.5168120000000  0.5281420000000 1.0
C      1  0.5684550000000  0.5611240000000  0.4528110000000 1.0
C      1  0.5479980000000  0.4669080000000  0.5928740000000 1.0
C      1  0.4927220000000  0.4247660000000  0.4340410000000 1.0
C      1  0.4422170000000  0.4168690000000  0.4796500000000 1.0
C      1  0.4815240000000  0.5754180000000  0.4398240000000 1.0
C      1  0.4716960000000  0.4684560000000  0.4613840000000 1.0
C      1  0.5213110000000  0.4455110000000  0.5043950000000 1.0
C      1  0.4598920000000  0.4231730000000  0.5337460000000 1.0
C      1  0.5392680000000  0.5615550000000  0.4110510000000 1.0
C      1  0.5778970000000  0.5720580000000  0.4798360000000 1.0
C      1  0.4714080000000  0.5579270000000  0.5548110000000 1.0
C      1  0.5625080000000  0.5942500000000  0.4920390000000 1.0
C      1  0.4352470000000  0.4365810000000  0.5250810000000 1.0
C      1  0.4520040000000  0.4897970000000  0.4151810000000 1.0
C      1  0.5112280000000  0.5155480000000  0.4979310000000 1.0
C      1  0.5293960000000  0.5211400000000  0.5872770000000 1.0
C      1  0.5014470000000  0.4137210000000  0.5583390000000 1.0
C      1  0.4588320000000  0.5651820000000  0.5278490000000 1.0
C      1  0.4545710000000  0.4769280000000  0.5397450000000 1.0
C      1  0.5567860000000  0.5155630000000  0.5830590000000 1.0
C      1  0.4356600000000  0.5506300000000  0.5176460000000 1.0
C      1  0.5217510000000  0.4187070000000  0.4417590000000 1.0
C      1  0.4532390000000  0.5182120000000  0.4197930000000 1.0
C      1  0.5496500000000  0.4348020000000  0.5102680000000 1.0
C      1  0.5002900000000  0.5547230000000  0.5606180000000 1.0
C      1  0.5853020000000  0.4758070000000  0.4896380000000 1.0
C      1  0.5343850000000  0.4023180000000  0.4900470000000 1.0
C      1  0.4508590000000  0.4749470000000  0.5733660000000 1.0
C      1  0.4024470000000  0.5046010000000  0.4954950000000 1.0
C      1  0.4285750000000  0.4619150000000  0.5381480000000 1.0
C      1  0.5641030000000  0.5399800000000  0.5676610000000 1.0
C      1  0.5076990000000  0.5416040000000  0.5853830000000 1.0
C      1  0.4304290000000  0.4383630000000  0.4965460000000 1.0
C      1  0.5601790000000  0.5857460000000  0.5454200000000 1.0
C      1  0.5352350000000  0.4414920000000  0.4339400000000 1.0
C      1  0.4666790000000  0.4486920000000  0.5763340000000 1.0
C      1  0.4150120000000  0.5252080000000  0.4791790000000 1.0
C      1  0.5323230000000  0.4064150000000  0.5175380000000 1.0
C      1  0.5580720000000  0.4359050000000  0.4803830000000 1.0
C      1  0.5706190000000  0.5288180000000  0.4427880000000 1.0
C      1  0.5307300000000  0.4706750000000  0.4061810000000 1.0
C      1  0.4373760000000  0.5208940000000  0.5591940000000 1.0
C      1  0.5414930000000  0.5536610000000  0.4944650000000 1.0
C      1  0.4247720000000  0.5106810000000  0.4564580000000 1.0
C      1  0.4810230000000  0.4119180000000  0.5138780000000 1.0
C      1  0.5755000000000  0.4747530000000  0.4434730000000 1.0
C      1  0.4808260000000  0.5263750000000  0.4171590000000 1.0
C      1  0.4112340000000  0.4847310000000  0.5432440000000 1.0
C      1  0.4279660000000  0.4661180000000  0.4859840000000 1.0
C      1  0.4932370000000  0.5031520000000  0.5582980000000 1.0
C      1  0.4563890000000  0.5084010000000  0.4905710000000 1.0
C      1  0.5029050000000  0.4801320000000  0.5976610000000 1.0
C      1  0.5498870000000  0.4901550000000  0.5242500000000 1.0
C      1  0.5279560000000  0.4779930000000  0.5482940000000 1.0
C      1  0.5165840000000  0.5439610000000  0.5370880000000 1.0
C      1  0.4405360000000  0.5517420000000  0.4607010000000 1.0
C      1  0.5414850000000  0.5503690000000  0.4650110000000 1.0
C      1  0.4934070000000  0.4423080000000  0.4120230000000 1.0
C      1  0.4670910000000  0.5905070000000  0.4817360000000 1.0
C      1  0.5012310000000  0.4850320000000  0.5374470000000 1.0
C      1  0.4952400000000  0.4947260000000  0.4542580000000 1.0
C      1  0.5677850000000  0.4654400000000  0.5574280000000 1.0
C      1  0.5413240000000  0.4156350000000  0.4663740000000 1.0
C      1  0.4285370000000  0.4751480000000  0.4283670000000 1.0
C      1  0.4487300000000  0.4841010000000  0.4745650000000 1.0
C      1  0.4943210000000  0.5027920000000  0.4263890000000 1.0
C      1  0.5012220000000  0.5950450000000  0.4473820000000 1.0
C      1  0.4716800000000  0.4959720000000  0.5765790000000 1.0
C      1  0.5683030000000  0.4509560000000  0.5328260000000 1.0
C      1  0.5737100000000  0.4585530000000  0.4689960000000 1.0
C      1  0.4619390000000  0.4000930000000  0.4913140000000 1.0
C      1  0.4735570000000  0.5815540000000  0.5091690000000 1.0
C      1  0.5607390000000  0.5936850000000  0.5209420000000 1.0
C      1  0.5126240000000  0.4702610000000  0.4917910000000 1.0
C      1  0.4343710000000  0.5444620000000  0.4882420000000 1.0
C      1  0.5030000000000  0.4652890000000  0.3987720000000 1.0
C      1  0.5154480000000  0.4528470000000  0.5565550000000 1.0
C      1  0.4709950000000  0.5294480000000  0.4786510000000 1.0
C      1  0.4800870000000  0.4823340000000  0.4117200000000 1.0
C      1  0.4732320000000  0.4263880000000  0.5585960000000 1.0
C      1  0.5714620000000  0.5528910000000  0.5004690000000 1.0
C      1  0.4597930000000  0.5737170000000  0.4587660000000 1.0
C      1  0.4976290000000  0.5221300000000  0.5227620000000 1.0
C      1  0.4219420000000  0.5312270000000  0.5342420000000 1.0
END
