TITL C-4164246-3563-710 -4.55786937547673 125000 -21351.6121764608 0 0 143 (C1) n - 1
REM
REM in /home/nfs/bkarasulu/CARBON/AIRSS/Generating-Clusters/ReaxFF-fromJPCA2015/Units_Real/with-SteepDescent/Only-C1/SD-CG/Try1-3A/FIRE-CG
REM
REM
REM
REM
REM
REM ./C.cell (11c1c37f851c82e70ff6c80c92926a4b)
REM
REM compiler GCC version 9.2.1 20190827 (Red Hat 9.2.1-1)
REM options -cpp -mtune=generic -march=x86-64 -g -O0 -fpre-include=/usr/include/finclude/math-vector-fortran.h
REM seed 637007878 -1628365675 1230481556 -1619139963 -542791207 1612414348 1440388813 -1981106831 1231061845 603750900 -2049383032 1212342246 1166511352 -2082810862 -619653920 245833776 1864261964 -258486532 -279073315 -1399882820 -1800447106 -48467381 -1320022489 1547815794 -1683391197 -1612690788 -679668616 443931931 -807268839 1776114855 408920715 2062951536 5384406
REM
CELL 1.54180   50.00000   50.00000   50.00000   90.00000   90.00000   90.00000
LATT -1
SFAC C  
C      1  0.4048110000000  0.5049820000000  0.4802150000000 1.0
C      1  0.4854220000000  0.4728000000000  0.6073060000000 1.0
C      1  0.4949640000000  0.4179590000000  0.4866670000000 1.0
C      1  0.4826520000000  0.4616890000000  0.5167560000000 1.0
C      1  0.4740670000000  0.4356570000000  0.4976160000000 1.0
C      1  0.5455770000000  0.4185890000000  0.4741880000000 1.0
C      1  0.5727550000000  0.5276970000000  0.5793850000000 1.0
C      1  0.4338010000000  0.4527850000000  0.5576950000000 1.0
C      1  0.4287830000000  0.4404600000000  0.5105190000000 1.0
C      1  0.4535750000000  0.5272040000000  0.4883360000000 1.0
C      1  0.5856030000000  0.5666140000000  0.4968200000000 1.0
C      1  0.4707900000000  0.4982330000000  0.3963170000000 1.0
C      1  0.5465750000000  0.5406070000000  0.5780050000000 1.0
C      1  0.4077100000000  0.5289080000000  0.4619350000000 1.0
C      1  0.4637980000000  0.5926570000000  0.5201700000000 1.0
C      1  0.4946670000000  0.4275390000000  0.4334810000000 1.0
C      1  0.5329090000000  0.4029830000000  0.5191100000000 1.0
C      1  0.5644850000000  0.5789330000000  0.5132400000000 1.0
C      1  0.4926060000000  0.5562210000000  0.5769180000000 1.0
C      1  0.4533590000000  0.5371540000000  0.4586300000000 1.0
C      1  0.5119160000000  0.5910630000000  0.5034100000000 1.0
C      1  0.4886740000000  0.5532150000000  0.4826360000000 1.0
C      1  0.5592530000000  0.5318730000000  0.4955130000000 1.0
C      1  0.5224780000000  0.4401420000000  0.4301070000000 1.0
C      1  0.4675470000000  0.5925420000000  0.5494040000000 1.0
C      1  0.3900730000000  0.5065750000000  0.5305910000000 1.0
C      1  0.5203810000000  0.5099820000000  0.6167190000000 1.0
C      1  0.5333910000000  0.4718600000000  0.5305520000000 1.0
C      1  0.4706650000000  0.5423000000000  0.5854420000000 1.0
C      1  0.5898700000000  0.5110400000000  0.5648310000000 1.0
C      1  0.4898430000000  0.4117720000000  0.4577700000000 1.0
C      1  0.5697460000000  0.5295420000000  0.4379370000000 1.0
C      1  0.4847880000000  0.5144990000000  0.4159310000000 1.0
C      1  0.4591970000000  0.5735410000000  0.4234250000000 1.0
C      1  0.4509320000000  0.5686500000000  0.5106530000000 1.0
C      1  0.4427290000000  0.5505120000000  0.5738990000000 1.0
C      1  0.5361130000000  0.4083670000000  0.5479710000000 1.0
C      1  0.5325600000000  0.5406960000000  0.4891210000000 1.0
C      1  0.4752280000000  0.5173860000000  0.4473140000000 1.0
C      1  0.4573100000000  0.4153970000000  0.5473590000000 1.0
C      1  0.5719010000000  0.4341260000000  0.5266910000000 1.0
C      1  0.4696990000000  0.5045190000000  0.5397150000000 1.0
C      1  0.4193330000000  0.4657850000000  0.4631760000000 1.0
C      1  0.5615050000000  0.4582610000000  0.5417640000000 1.0
C      1  0.5118280000000  0.5934580000000  0.5313590000000 1.0
C      1  0.4746030000000  0.4763730000000  0.5415240000000 1.0
C      1  0.5000680000000  0.5978160000000  0.4630490000000 1.0
C      1  0.5307000000000  0.4991760000000  0.5227460000000 1.0
C      1  0.5134660000000  0.4606150000000  0.5126800000000 1.0
C      1  0.4805050000000  0.4014920000000  0.5383340000000 1.0
C      1  0.5556120000000  0.5926650000000  0.4848520000000 1.0
C      1  0.5629090000000  0.4545030000000  0.4607070000000 1.0
C      1  0.4528790000000  0.5721230000000  0.5613670000000 1.0
C      1  0.5241890000000  0.4137410000000  0.4938810000000 1.0
C      1  0.4909160000000  0.5017640000000  0.6095720000000 1.0
C      1  0.4489360000000  0.4516480000000  0.4342930000000 1.0
C      1  0.5207800000000  0.5007030000000  0.4556210000000 1.0
C      1  0.4566390000000  0.4672440000000  0.5611110000000 1.0
C      1  0.4979320000000  0.5946760000000  0.5550200000000 1.0
C      1  0.5949870000000  0.5170350000000  0.4457920000000 1.0
C      1  0.3947620000000  0.4797680000000  0.5238430000000 1.0
C      1  0.4153470000000  0.5532620000000  0.4761640000000 1.0
C      1  0.5527420000000  0.4509140000000  0.5722780000000 1.0
C      1  0.4723160000000  0.4411640000000  0.4203670000000 1.0
C      1  0.5024420000000  0.4351490000000  0.5717740000000 1.0
C      1  0.4394540000000  0.5270310000000  0.4150170000000 1.0
C      1  0.5098070000000  0.4649700000000  0.3929600000000 1.0
C      1  0.5647630000000  0.5054780000000  0.4886640000000 1.0
C      1  0.5298820000000  0.4298690000000  0.5663460000000 1.0
C      1  0.5328840000000  0.5635360000000  0.4367750000000 1.0
C      1  0.5328600000000  0.5506710000000  0.5506820000000 1.0
C      1  0.4848010000000  0.5154290000000  0.5843000000000 1.0
C      1  0.4510670000000  0.5880650000000  0.4689040000000 1.0
C      1  0.5008700000000  0.4629580000000  0.5828850000000 1.0
C      1  0.5175650000000  0.5192210000000  0.4766090000000 1.0
C      1  0.4052490000000  0.4588800000000  0.5079650000000 1.0
C      1  0.4375120000000  0.4340620000000  0.5370470000000 1.0
C      1  0.4026910000000  0.4753880000000  0.4833020000000 1.0
C      1  0.4243910000000  0.5299490000000  0.5612840000000 1.0
C      1  0.4306630000000  0.4896130000000  0.4513650000000 1.0
C      1  0.5535620000000  0.4804090000000  0.4201920000000 1.0
C      1  0.4909490000000  0.5413500000000  0.4081250000000 1.0
C      1  0.4844260000000  0.6041840000000  0.5013680000000 1.0
C      1  0.5189570000000  0.4839950000000  0.5729450000000 1.0
C      1  0.4327970000000  0.5741360000000  0.4881660000000 1.0
C      1  0.5743970000000  0.4709280000000  0.4373030000000 1.0
C      1  0.5529480000000  0.5100070000000  0.4228180000000 1.0
C      1  0.4778420000000  0.4762770000000  0.4684630000000 1.0
C      1  0.5158870000000  0.5423170000000  0.4237800000000 1.0
C      1  0.3971250000000  0.5247470000000  0.5554610000000 1.0
C      1  0.5859760000000  0.4386410000000  0.5014140000000 1.0
C      1  0.4369870000000  0.4770700000000  0.4253190000000 1.0
C      1  0.4812540000000  0.4175040000000  0.5620990000000 1.0
C      1  0.4860250000000  0.5253220000000  0.5297620000000 1.0
C      1  0.4284130000000  0.5337870000000  0.4409240000000 1.0
C      1  0.5142140000000  0.5626660000000  0.4922590000000 1.0
C      1  0.5928550000000  0.4656650000000  0.5084320000000 1.0
C      1  0.4058770000000  0.5164270000000  0.5072680000000 1.0
C      1  0.5058380000000  0.5084360000000  0.5643970000000 1.0
C      1  0.4436340000000  0.4989560000000  0.4070550000000 1.0
C      1  0.5703930000000  0.5719470000000  0.4702870000000 1.0
C      1  0.5938030000000  0.5022790000000  0.5381370000000 1.0
C      1  0.5421300000000  0.4945230000000  0.4952920000000 1.0
C      1  0.4845440000000  0.4512050000000  0.3957290000000 1.0
C      1  0.4386870000000  0.5057940000000  0.5459300000000 1.0
C      1  0.6045440000000  0.4999710000000  0.4661420000000 1.0
C      1  0.5487370000000  0.5648780000000  0.5318390000000 1.0
C      1  0.4622110000000  0.5668120000000  0.4527430000000 1.0
C      1  0.5394050000000  0.4878420000000  0.6154210000000 1.0
C      1  0.5166100000000  0.5824530000000  0.4499340000000 1.0
C      1  0.4656120000000  0.3813180000000  0.5263720000000 1.0
C      1  0.4747290000000  0.6051720000000  0.4739650000000 1.0
C      1  0.5330880000000  0.5268400000000  0.5977940000000 1.0
C      1  0.5591720000000  0.5549950000000  0.4472030000000 1.0
C      1  0.4686620000000  0.4764970000000  0.4955620000000 1.0
C      1  0.4321580000000  0.4806030000000  0.5614130000000 1.0
C      1  0.5476030000000  0.4812220000000  0.5855130000000 1.0
C      1  0.5062620000000  0.4761780000000  0.4631100000000 1.0
C      1  0.5869540000000  0.4741420000000  0.5344340000000 1.0
C      1  0.4566610000000  0.3628410000000  0.5132260000000 1.0
C      1  0.5144550000000  0.5223810000000  0.5382500000000 1.0
C      1  0.5716830000000  0.4999430000000  0.5824190000000 1.0
C      1  0.5127170000000  0.5712100000000  0.5664660000000 1.0
C      1  0.5930940000000  0.4955110000000  0.4925680000000 1.0
C      1  0.5968780000000  0.4885210000000  0.4423920000000 1.0
C      1  0.4378710000000  0.4452760000000  0.4606200000000 1.0
C      1  0.4318640000000  0.5069820000000  0.5170550000000 1.0
C      1  0.5726970000000  0.4300350000000  0.4768920000000 1.0
C      1  0.5841880000000  0.5401120000000  0.5082350000000 1.0
C      1  0.5295080000000  0.4633230000000  0.4140110000000 1.0
C      1  0.4514730000000  0.4997460000000  0.4973530000000 1.0
C      1  0.4850120000000  0.4762610000000  0.3850190000000 1.0
C      1  0.5995710000000  0.5162260000000  0.5139120000000 1.0
C      1  0.5576820000000  0.4094260000000  0.5306520000000 1.0
C      1  0.4465860000000  0.4361220000000  0.4875130000000 1.0
C      1  0.5470970000000  0.4698780000000  0.4828980000000 1.0
C      1  0.5421820000000  0.4327050000000  0.4488790000000 1.0
C      1  0.5256220000000  0.5150580000000  0.4302740000000 1.0
C      1  0.4598280000000  0.4941390000000  0.4560150000000 1.0
C      1  0.5195740000000  0.4606900000000  0.4841210000000 1.0
C      1  0.4946240000000  0.5300690000000  0.4665040000000 1.0
C      1  0.4699500000000  0.5442700000000  0.5066290000000 1.0
C      1  0.4608580000000  0.5480570000000  0.4080460000000 1.0
END
