TITL C-4164232-771-22 27.1070564034041 125000 -15181.2289324672 0 0 102 (C1) n - 1
REM
REM in /home/nfs/bkarasulu/CARBON/AIRSS/Generating-Clusters/ReaxFF-fromJPCA2015/Units_Real/with-SteepDescent/Only-C1/SD-CG/Try1-3A/FIRE-CG
REM
REM
REM
REM
REM
REM ./C.cell (11c1c37f851c82e70ff6c80c92926a4b)
REM
REM compiler GCC version 9.2.1 20190827 (Red Hat 9.2.1-1)
REM options -cpp -mtune=generic -march=x86-64 -g -O0 -fpre-include=/usr/include/finclude/math-vector-fortran.h
REM seed 650853222 801225293 1788910323 1914551700 -401767423 1456882173 -1148447038 -1389711759 1308417597 1733455846 484380798 -633271036 1521049521 692667835 1036489769 1499336019 182570796 628477435 -1198923883 718610170 -1909573720 1771821605 -1911077199 -147286533 943080628 -1515493392 -691890928 -1711839292 417111212 -1862601424 1684043616 455825864 362206249
REM
CELL 1.54180   50.00000   50.00000   50.00000   90.00000   90.00000   90.00000
LATT -1
SFAC C  
C      1  0.5338590000000  0.5689250000000  0.4568830000000 1.0
C      1  0.5716940000000  0.5499340000000  0.4770130000000 1.0
C      1  0.5023950000000  0.4747480000000  0.5885690000000 1.0
C      1  0.5673490000000  0.5240730000000  0.5165810000000 1.0
C      1  0.5400030000000  0.4216670000000  0.4534250000000 1.0
C      1  0.5268330000000  0.4360610000000  0.5421130000000 1.0
C      1  0.5811630000000  0.5259210000000  0.4917420000000 1.0
C      1  0.4960690000000  0.5833200000000  0.5220070000000 1.0
C      1  0.4321130000000  0.4497360000000  0.5307030000000 1.0
C      1  0.5055980000000  0.4916800000000  0.5447450000000 1.0
C      1  0.4773070000000  0.5702640000000  0.4580740000000 1.0
C      1  0.5283720000000  0.4890720000000  0.5043960000000 1.0
C      1  0.4740580000000  0.5592640000000  0.4310710000000 1.0
C      1  0.4936110000000  0.4144080000000  0.5165500000000 1.0
C      1  0.4810480000000  0.4903030000000  0.4113160000000 1.0
C      1  0.5477470000000  0.4456970000000  0.4940610000000 1.0
C      1  0.4223940000000  0.4738990000000  0.5223000000000 1.0
C      1  0.4608720000000  0.4510630000000  0.5745650000000 1.0
C      1  0.4868690000000  0.4649290000000  0.4161600000000 1.0
C      1  0.4337160000000  0.4996770000000  0.4456170000000 1.0
C      1  0.4491620000000  0.5447010000000  0.4348190000000 1.0
C      1  0.4240340000000  0.5182330000000  0.4662400000000 1.0
C      1  0.5038170000000  0.5934790000000  0.4957310000000 1.0
C      1  0.5688350000000  0.5037700000000  0.4535100000000 1.0
C      1  0.4374930000000  0.4602890000000  0.4745510000000 1.0
C      1  0.4797990000000  0.4974180000000  0.5071920000000 1.0
C      1  0.5612030000000  0.4346190000000  0.4708950000000 1.0
C      1  0.4785710000000  0.5375760000000  0.5791630000000 1.0
C      1  0.4335060000000  0.5158010000000  0.5529060000000 1.0
C      1  0.4357900000000  0.5441230000000  0.4600160000000 1.0
C      1  0.5209710000000  0.5332700000000  0.5502240000000 1.0
C      1  0.4517780000000  0.5209280000000  0.5758790000000 1.0
C      1  0.4396710000000  0.5306410000000  0.5071270000000 1.0
C      1  0.4422750000000  0.5633180000000  0.5351990000000 1.0
C      1  0.5559720000000  0.5506870000000  0.5218000000000 1.0
C      1  0.5217300000000  0.5915430000000  0.4712230000000 1.0
C      1  0.4929430000000  0.4587710000000  0.5044660000000 1.0
C      1  0.5362900000000  0.4284460000000  0.5152970000000 1.0
C      1  0.4667360000000  0.4592990000000  0.4364250000000 1.0
C      1  0.4728170000000  0.4730580000000  0.5926240000000 1.0
C      1  0.5503200000000  0.5000240000000  0.5247400000000 1.0
C      1  0.4314130000000  0.4838820000000  0.4948080000000 1.0
C      1  0.5057910000000  0.5107290000000  0.5000320000000 1.0
C      1  0.5146660000000  0.5316770000000  0.4592690000000 1.0
C      1  0.5496180000000  0.5578110000000  0.4937200000000 1.0
C      1  0.4771360000000  0.5655160000000  0.5674330000000 1.0
C      1  0.5578980000000  0.5524140000000  0.4516000000000 1.0
C      1  0.5210420000000  0.5758330000000  0.5289090000000 1.0
C      1  0.4596740000000  0.5490820000000  0.5014480000000 1.0
C      1  0.4939160000000  0.5903860000000  0.4697160000000 1.0
C      1  0.4535900000000  0.4317650000000  0.5324200000000 1.0
C      1  0.5348250000000  0.5087150000000  0.5469110000000 1.0
C      1  0.5067680000000  0.5336800000000  0.5214690000000 1.0
C      1  0.5884750000000  0.4756580000000  0.4832620000000 1.0
C      1  0.4735520000000  0.5160230000000  0.4097220000000 1.0
C      1  0.5137100000000  0.5022590000000  0.5914400000000 1.0
C      1  0.5580770000000  0.5053350000000  0.5704910000000 1.0
C      1  0.4962720000000  0.5146300000000  0.4717350000000 1.0
C      1  0.4428740000000  0.4715230000000  0.4479950000000 1.0
C      1  0.4564990000000  0.4401810000000  0.4806910000000 1.0
C      1  0.5869080000000  0.4683030000000  0.5107190000000 1.0
C      1  0.5151610000000  0.5321090000000  0.4296820000000 1.0
C      1  0.5856750000000  0.5032370000000  0.4752110000000 1.0
C      1  0.4993160000000  0.4248850000000  0.5431390000000 1.0
C      1  0.5192990000000  0.4070800000000  0.4716500000000 1.0
C      1  0.5820670000000  0.4624600000000  0.5341150000000 1.0
C      1  0.5576520000000  0.5256940000000  0.4390060000000 1.0
C      1  0.5108390000000  0.4729060000000  0.5222610000000 1.0
C      1  0.4396330000000  0.4679490000000  0.5670110000000 1.0
C      1  0.5374600000000  0.5588420000000  0.5434200000000 1.0
C      1  0.5252680000000  0.5510660000000  0.4779560000000 1.0
C      1  0.5102830000000  0.4699780000000  0.5620910000000 1.0
C      1  0.4267850000000  0.4871200000000  0.5496070000000 1.0
C      1  0.4703780000000  0.5749570000000  0.5408530000000 1.0
C      1  0.4608800000000  0.4943560000000  0.4868040000000 1.0
C      1  0.5365410000000  0.4594460000000  0.5569730000000 1.0
C      1  0.4711150000000  0.5057850000000  0.4634370000000 1.0
C      1  0.4786270000000  0.5345950000000  0.5239610000000 1.0
C      1  0.5363600000000  0.4836960000000  0.4279740000000 1.0
C      1  0.5047770000000  0.5262600000000  0.5772250000000 1.0
C      1  0.4785560000000  0.5069490000000  0.5343980000000 1.0
C      1  0.5186880000000  0.4616140000000  0.4209360000000 1.0
C      1  0.5390380000000  0.4905100000000  0.5845360000000 1.0
C      1  0.4624150000000  0.4983940000000  0.5864200000000 1.0
C      1  0.5580520000000  0.4725390000000  0.5408550000000 1.0
C      1  0.4423100000000  0.5773510000000  0.5104520000000 1.0
C      1  0.5033070000000  0.4601230000000  0.4791410000000 1.0
C      1  0.4991910000000  0.4208690000000  0.4584810000000 1.0
C      1  0.4293930000000  0.5340350000000  0.5307340000000 1.0
C      1  0.4708540000000  0.4336440000000  0.5064460000000 1.0
C      1  0.5527600000000  0.4794600000000  0.4532420000000 1.0
C      1  0.4799060000000  0.4432890000000  0.4604420000000 1.0
C      1  0.4223920000000  0.5140650000000  0.4951290000000 1.0
C      1  0.4903140000000  0.5397100000000  0.4167030000000 1.0
C      1  0.5177720000000  0.4097560000000  0.5018640000000 1.0
C      1  0.5364730000000  0.5128200000000  0.4232290000000 1.0
C      1  0.4593940000000  0.5540260000000  0.4734030000000 1.0
C      1  0.5735180000000  0.4596230000000  0.4634140000000 1.0
C      1  0.5316000000000  0.4687460000000  0.4807920000000 1.0
C      1  0.4551180000000  0.5161180000000  0.4349990000000 1.0
C      1  0.4730110000000  0.4331160000000  0.5540990000000 1.0
C      1  0.5283340000000  0.4407830000000  0.4362040000000 1.0
END
