TITL C-4164243-3780-68 -13.5638911467722 125000 -8058.63150405449 0 0 55 (C1) n - 1
REM
REM in /home/nfs/bkarasulu/CARBON/AIRSS/Generating-Clusters/ReaxFF-fromJPCA2015/Units_Real/with-SteepDescent/Only-C1/SD-CG/Try1-3A/FIRE-CG
REM
REM
REM
REM
REM
REM ./C.cell (11c1c37f851c82e70ff6c80c92926a4b)
REM
REM compiler GCC version 9.2.1 20190827 (Red Hat 9.2.1-1)
REM options -cpp -mtune=generic -march=x86-64 -g -O0 -fpre-include=/usr/include/finclude/math-vector-fortran.h
REM seed -749796720 1983783174 -1731110894 -429185216 -810959057 -667999337 -385138801 -516497792 -1781243943 1549059004 -2038825701 509242024 908486825 1035816670 -2129166288 1125619497 -1194907646 -1709428271 720432535 -244471604 -2123370920 402435958 325970221 1731007928 1502625584 -1470171106 1176197130 105239804 -68342040 99851576 -1249792287 -1240592092 610045237
REM
CELL 1.54180   50.00000   50.00000   50.00000   90.00000   90.00000   90.00000
LATT -1
SFAC C  
C      1  0.5084210000000  0.4341570000000  0.5007070000000 1.0
C      1  0.4554800000000  0.5243030000000  0.5493420000000 1.0
C      1  0.4877450000000  0.4953090000000  0.5411120000000 1.0
C      1  0.4766420000000  0.5431890000000  0.5052730000000 1.0
C      1  0.5001300000000  0.4867120000000  0.5666680000000 1.0
C      1  0.5374830000000  0.4376480000000  0.4938010000000 1.0
C      1  0.4884600000000  0.4892990000000  0.4380150000000 1.0
C      1  0.5184730000000  0.4491460000000  0.5519140000000 1.0
C      1  0.4371550000000  0.5362780000000  0.4746760000000 1.0
C      1  0.5191420000000  0.5612860000000  0.5272070000000 1.0
C      1  0.4187530000000  0.5215220000000  0.4910260000000 1.0
C      1  0.4737610000000  0.4691970000000  0.5390130000000 1.0
C      1  0.4509450000000  0.4718930000000  0.4963060000000 1.0
C      1  0.4814940000000  0.5685110000000  0.4922460000000 1.0
C      1  0.5314400000000  0.5217220000000  0.5509320000000 1.0
C      1  0.5281440000000  0.4952250000000  0.5634660000000 1.0
C      1  0.5550840000000  0.4733800000000  0.5275540000000 1.0
C      1  0.4251540000000  0.5088170000000  0.5134730000000 1.0
C      1  0.5120800000000  0.4877410000000  0.4731840000000 1.0
C      1  0.4581360000000  0.5265350000000  0.4929510000000 1.0
C      1  0.5019590000000  0.5014420000000  0.5159960000000 1.0
C      1  0.5093520000000  0.4722380000000  0.4477930000000 1.0
C      1  0.4655090000000  0.4763360000000  0.4502680000000 1.0
C      1  0.4394700000000  0.5021780000000  0.5358790000000 1.0
C      1  0.5141270000000  0.5162330000000  0.4727890000000 1.0
C      1  0.5502300000000  0.4687070000000  0.4581660000000 1.0
C      1  0.5531210000000  0.4969260000000  0.4548260000000 1.0
C      1  0.5392100000000  0.4712140000000  0.5515740000000 1.0
C      1  0.4551080000000  0.5293460000000  0.4512020000000 1.0
C      1  0.4908320000000  0.5637630000000  0.4645070000000 1.0
C      1  0.5080200000000  0.5757030000000  0.5030580000000 1.0
C      1  0.5584570000000  0.4988550000000  0.5132600000000 1.0
C      1  0.4920520000000  0.4872180000000  0.4934810000000 1.0
C      1  0.4823770000000  0.5377720000000  0.5562210000000 1.0
C      1  0.4481650000000  0.4754250000000  0.5253640000000 1.0
C      1  0.5477560000000  0.5227020000000  0.5264910000000 1.0
C      1  0.4913540000000  0.4586860000000  0.5608530000000 1.0
C      1  0.4521590000000  0.5008820000000  0.4560500000000 1.0
C      1  0.5589110000000  0.4519120000000  0.5077400000000 1.0
C      1  0.5677570000000  0.4938860000000  0.4854650000000 1.0
C      1  0.4892300000000  0.4411120000000  0.4774700000000 1.0
C      1  0.4656800000000  0.4579730000000  0.4752690000000 1.0
C      1  0.5791160000000  0.4665050000000  0.4894930000000 1.0
C      1  0.5183570000000  0.5733700000000  0.4739610000000 1.0
C      1  0.4656620000000  0.5461590000000  0.5347390000000 1.0
C      1  0.5105030000000  0.4410460000000  0.5268500000000 1.0
C      1  0.4634750000000  0.4980140000000  0.4868350000000 1.0
C      1  0.5017310000000  0.5173110000000  0.4455730000000 1.0
C      1  0.5089160000000  0.4443510000000  0.4564240000000 1.0
C      1  0.5374250000000  0.4439730000000  0.4648840000000 1.0
C      1  0.5107200000000  0.5425460000000  0.5488730000000 1.0
C      1  0.4822390000000  0.5398240000000  0.4487800000000 1.0
C      1  0.5327130000000  0.5420850000000  0.5106880000000 1.0
C      1  0.5368350000000  0.5153090000000  0.4399640000000 1.0
C      1  0.5073520000000  0.5271300000000  0.5003490000000 1.0
END
