TITL C-4164235-1454-575 15.0549527191396 125000 -13749.5237570143 0 0 92 (C1) n - 1
REM
REM in /home/nfs/bkarasulu/CARBON/AIRSS/Generating-Clusters/ReaxFF-fromJPCA2015/Units_Real/with-SteepDescent/Only-C1/SD-CG/Try1-3A/FIRE-CG
REM
REM
REM
REM
REM
REM ./C.cell (11c1c37f851c82e70ff6c80c92926a4b)
REM
REM compiler GCC version 9.2.1 20190827 (Red Hat 9.2.1-1)
REM options -cpp -mtune=generic -march=x86-64 -g -O0 -fpre-include=/usr/include/finclude/math-vector-fortran.h
REM seed 1882787798 -1502735811 1198218404 -1785761864 -1482520427 995377576 1501435976 1097734702 -1026742807 -701390285 1515914050 1982286789 -1292315437 1511186704 -1739524445 -1279968439 -321535153 -1654231195 989860621 2044448744 -1046996826 301615850 1384400515 -1818588885 -1375556287 1991320447 230979193 -1895242645 -995284280 1757324555 2091964502 1616718471 -917325970
REM
CELL 1.54180   50.00000   50.00000   50.00000   90.00000   90.00000   90.00000
LATT -1
SFAC C  
C      1  0.4744830000000  0.4590150000000  0.4913410000000 1.0
C      1  0.5529660000000  0.5353140000000  0.5755420000000 1.0
C      1  0.5444330000000  0.4360210000000  0.4930690000000 1.0
C      1  0.5127580000000  0.4857300000000  0.4789100000000 1.0
C      1  0.5064720000000  0.5249330000000  0.5170610000000 1.0
C      1  0.5469970000000  0.5721340000000  0.5378510000000 1.0
C      1  0.5041710000000  0.5450140000000  0.4266050000000 1.0
C      1  0.4487600000000  0.5316970000000  0.4335660000000 1.0
C      1  0.4672720000000  0.4846520000000  0.5018570000000 1.0
C      1  0.4758690000000  0.5057260000000  0.4573780000000 1.0
C      1  0.5630290000000  0.4790220000000  0.4409090000000 1.0
C      1  0.4921020000000  0.4940840000000  0.5722440000000 1.0
C      1  0.5016510000000  0.4295060000000  0.5337620000000 1.0
C      1  0.4665490000000  0.5663760000000  0.5012930000000 1.0
C      1  0.5033010000000  0.4543310000000  0.4889480000000 1.0
C      1  0.4514710000000  0.5037100000000  0.4431880000000 1.0
C      1  0.5203120000000  0.4435350000000  0.5135760000000 1.0
C      1  0.4395870000000  0.5045380000000  0.5632080000000 1.0
C      1  0.5544810000000  0.5258390000000  0.5339840000000 1.0
C      1  0.4775990000000  0.5228190000000  0.5249210000000 1.0
C      1  0.4122890000000  0.5151760000000  0.4905490000000 1.0
C      1  0.5015480000000  0.5861360000000  0.4798490000000 1.0
C      1  0.4263190000000  0.4539250000000  0.5102030000000 1.0
C      1  0.4325670000000  0.5358440000000  0.4851320000000 1.0
C      1  0.5259070000000  0.5199510000000  0.5380360000000 1.0
C      1  0.4075650000000  0.4750070000000  0.5012320000000 1.0
C      1  0.4081980000000  0.5008800000000  0.5164940000000 1.0
C      1  0.5330700000000  0.5825840000000  0.5139410000000 1.0
C      1  0.4850270000000  0.5619690000000  0.5499140000000 1.0
C      1  0.5094620000000  0.4835430000000  0.5345450000000 1.0
C      1  0.4626200000000  0.4207350000000  0.4988880000000 1.0
C      1  0.5810880000000  0.4671300000000  0.5029610000000 1.0
C      1  0.4732090000000  0.5791070000000  0.4751910000000 1.0
C      1  0.4627710000000  0.4564330000000  0.5635900000000 1.0
C      1  0.5435570000000  0.4584430000000  0.4421350000000 1.0
C      1  0.4692320000000  0.5120970000000  0.5692640000000 1.0
C      1  0.4665490000000  0.5649470000000  0.4514470000000 1.0
C      1  0.4690450000000  0.4478720000000  0.4395290000000 1.0
C      1  0.5877920000000  0.4905070000000  0.5205300000000 1.0
C      1  0.4718920000000  0.5347470000000  0.5512560000000 1.0
C      1  0.5414720000000  0.4931230000000  0.4749640000000 1.0
C      1  0.5802160000000  0.5336910000000  0.4817610000000 1.0
C      1  0.5171490000000  0.4980480000000  0.5563340000000 1.0
C      1  0.5255380000000  0.5559910000000  0.4433680000000 1.0
C      1  0.5113590000000  0.5610760000000  0.5579880000000 1.0
C      1  0.4325190000000  0.4512070000000  0.5643730000000 1.0
C      1  0.5670930000000  0.5557930000000  0.4956240000000 1.0
C      1  0.5244420000000  0.5730490000000  0.4670100000000 1.0
C      1  0.5377100000000  0.5603130000000  0.5642050000000 1.0
C      1  0.5695420000000  0.4858690000000  0.4835020000000 1.0
C      1  0.4269190000000  0.4391050000000  0.5370220000000 1.0
C      1  0.5637170000000  0.5525980000000  0.5244600000000 1.0
C      1  0.4829540000000  0.4887320000000  0.5260840000000 1.0
C      1  0.5387160000000  0.5148210000000  0.4593630000000 1.0
C      1  0.4824460000000  0.5757970000000  0.5230820000000 1.0
C      1  0.5688050000000  0.4407170000000  0.5082320000000 1.0
C      1  0.5389100000000  0.4388930000000  0.4647100000000 1.0
C      1  0.5204910000000  0.4675050000000  0.4253010000000 1.0
C      1  0.5742250000000  0.4899830000000  0.5465210000000 1.0
C      1  0.5049030000000  0.5882900000000  0.5087300000000 1.0
C      1  0.4449690000000  0.4785530000000  0.5206110000000 1.0
C      1  0.4464880000000  0.4559060000000  0.4566280000000 1.0
C      1  0.5770410000000  0.5296000000000  0.4524990000000 1.0
C      1  0.4893670000000  0.4318580000000  0.4499550000000 1.0
C      1  0.5016770000000  0.4428080000000  0.5597150000000 1.0
C      1  0.4921020000000  0.4679000000000  0.4323750000000 1.0
C      1  0.5679740000000  0.4402880000000  0.5387660000000 1.0
C      1  0.4477690000000  0.4422030000000  0.4857420000000 1.0
C      1  0.4500170000000  0.4241780000000  0.5373650000000 1.0
C      1  0.5220740000000  0.4945370000000  0.4101240000000 1.0
C      1  0.4745000000000  0.4161970000000  0.5245620000000 1.0
C      1  0.4348830000000  0.4821170000000  0.4554200000000 1.0
C      1  0.5559800000000  0.4662600000000  0.5466120000000 1.0
C      1  0.4970120000000  0.4881260000000  0.4530160000000 1.0
C      1  0.4145250000000  0.4892000000000  0.4764300000000 1.0
C      1  0.4353290000000  0.5393350000000  0.4573020000000 1.0
C      1  0.5836080000000  0.5084570000000  0.4960960000000 1.0
C      1  0.5480100000000  0.5354360000000  0.4435900000000 1.0
C      1  0.4304690000000  0.5023980000000  0.5350730000000 1.0
C      1  0.4808130000000  0.5221300000000  0.4796170000000 1.0
C      1  0.5688260000000  0.5173780000000  0.5591610000000 1.0
C      1  0.5125820000000  0.5204170000000  0.4168270000000 1.0
C      1  0.4286420000000  0.4789820000000  0.5687470000000 1.0
C      1  0.5443910000000  0.5731550000000  0.4888350000000 1.0
C      1  0.5044060000000  0.5125640000000  0.4910330000000 1.0
C      1  0.4644750000000  0.4719960000000  0.5401150000000 1.0
C      1  0.5105710000000  0.4312000000000  0.4681690000000 1.0
C      1  0.4615230000000  0.5369410000000  0.4981960000000 1.0
C      1  0.5750260000000  0.5025300000000  0.4430840000000 1.0
C      1  0.5295600000000  0.4671040000000  0.5316540000000 1.0
C      1  0.4740080000000  0.5496450000000  0.4305320000000 1.0
C      1  0.4882880000000  0.4649670000000  0.5756210000000 1.0
END
