TITL C-4164233-775-77 170.278905274807 125000 -28315.9786455908 0 0 190 (C1) n - 1
REM
REM in /home/nfs/bkarasulu/CARBON/AIRSS/Generating-Clusters/ReaxFF-fromJPCA2015/Units_Real/with-SteepDescent/Only-C1/SD-CG/Try1-3A/FIRE-CG
REM
REM
REM
REM
REM
REM ./C.cell (11c1c37f851c82e70ff6c80c92926a4b)
REM
REM compiler GCC version 9.2.1 20190827 (Red Hat 9.2.1-1)
REM options -cpp -mtune=generic -march=x86-64 -g -O0 -fpre-include=/usr/include/finclude/math-vector-fortran.h
REM seed -1776903605 315123592 2080895679 1638452537 -1465348800 -898643017 -125889765 1450396220 1010223752 1606803055 -396576690 -613072899 1266337680 -492813825 -2008538496 -84342849 1876669415 217013118 -1417640973 1886140120 -418605690 -1238532241 -1046086073 -1051629965 -1135168036 736867391 500671835 -1483472547 -1909517593 -465775320 -1872086958 -79111539 -971064520
REM
CELL 1.54180   50.00000   50.00000   50.00000   90.00000   90.00000   90.00000
LATT -1
SFAC C  
C      1  0.4977520000000  0.4188890000000  0.4437410000000 1.0
C      1  0.5872520000000  0.4125120000000  0.4815510000000 1.0
C      1  0.5484760000000  0.4366010000000  0.5974020000000 1.0
C      1  0.4563010000000  0.6036680000000  0.5200430000000 1.0
C      1  0.4127000000000  0.4798870000000  0.4915810000000 1.0
C      1  0.5146500000000  0.5696530000000  0.5505910000000 1.0
C      1  0.6129290000000  0.5276840000000  0.5155630000000 1.0
C      1  0.4562560000000  0.4872700000000  0.5479070000000 1.0
C      1  0.5683370000000  0.5642770000000  0.4412600000000 1.0
C      1  0.5690520000000  0.4459330000000  0.4333410000000 1.0
C      1  0.4738560000000  0.4905040000000  0.4479390000000 1.0
C      1  0.5222310000000  0.4286270000000  0.4242700000000 1.0
C      1  0.5670160000000  0.5799350000000  0.5339920000000 1.0
C      1  0.4215310000000  0.4348040000000  0.4620560000000 1.0
C      1  0.5921330000000  0.4405760000000  0.4774400000000 1.0
C      1  0.5259150000000  0.4920330000000  0.5886320000000 1.0
C      1  0.4444610000000  0.5767760000000  0.4754600000000 1.0
C      1  0.5513010000000  0.4425230000000  0.5573470000000 1.0
C      1  0.5499980000000  0.5582690000000  0.5710130000000 1.0
C      1  0.5563980000000  0.4140950000000  0.5492900000000 1.0
C      1  0.5061510000000  0.4579810000000  0.4954080000000 1.0
C      1  0.4431580000000  0.5265390000000  0.5728850000000 1.0
C      1  0.4838220000000  0.5353990000000  0.6005990000000 1.0
C      1  0.4013590000000  0.4786620000000  0.4489550000000 1.0
C      1  0.5657460000000  0.5213460000000  0.5430270000000 1.0
C      1  0.5463200000000  0.5420730000000  0.5468170000000 1.0
C      1  0.5976100000000  0.5513280000000  0.5131200000000 1.0
C      1  0.5061060000000  0.6180770000000  0.5187230000000 1.0
C      1  0.4077680000000  0.4589730000000  0.4698310000000 1.0
C      1  0.5261140000000  0.5275780000000  0.4650050000000 1.0
C      1  0.4382920000000  0.4514370000000  0.4382760000000 1.0
C      1  0.4887760000000  0.5407210000000  0.4308640000000 1.0
C      1  0.4984820000000  0.5707730000000  0.5068750000000 1.0
C      1  0.4229620000000  0.5003660000000  0.5747500000000 1.0
C      1  0.4710600000000  0.5345200000000  0.4726620000000 1.0
C      1  0.5067410000000  0.4140130000000  0.4745110000000 1.0
C      1  0.4627230000000  0.4991510000000  0.5210890000000 1.0
C      1  0.5274490000000  0.5649380000000  0.5068270000000 1.0
C      1  0.5025790000000  0.4784600000000  0.5436430000000 1.0
C      1  0.4312540000000  0.5273090000000  0.4888460000000 1.0
C      1  0.4624450000000  0.5057690000000  0.5700370000000 1.0
C      1  0.4905280000000  0.4019590000000  0.5598270000000 1.0
C      1  0.5861010000000  0.5358210000000  0.5593480000000 1.0
C      1  0.3886560000000  0.4973730000000  0.4941810000000 1.0
C      1  0.4583270000000  0.5993090000000  0.4917520000000 1.0
C      1  0.5329340000000  0.6003080000000  0.4507530000000 1.0
C      1  0.4817430000000  0.5995780000000  0.5588830000000 1.0
C      1  0.5415170000000  0.4391180000000  0.5115390000000 1.0
C      1  0.4328300000000  0.4520180000000  0.5692090000000 1.0
C      1  0.5008530000000  0.5302880000000  0.5064940000000 1.0
C      1  0.4587480000000  0.5460100000000  0.5893240000000 1.0
C      1  0.5170060000000  0.5369450000000  0.4391150000000 1.0
C      1  0.4672330000000  0.4530650000000  0.4922730000000 1.0
C      1  0.4956850000000  0.4410250000000  0.5902220000000 1.0
C      1  0.4280630000000  0.4944950000000  0.4077560000000 1.0
C      1  0.5499080000000  0.6069280000000  0.5007060000000 1.0
C      1  0.5802100000000  0.5631560000000  0.4904760000000 1.0
C      1  0.4016110000000  0.5028690000000  0.5546570000000 1.0
C      1  0.4615950000000  0.4681490000000  0.6083480000000 1.0
C      1  0.4308940000000  0.4501900000000  0.5252170000000 1.0
C      1  0.4055520000000  0.5428230000000  0.4839240000000 1.0
C      1  0.5929420000000  0.4693540000000  0.5459350000000 1.0
C      1  0.5472070000000  0.5804100000000  0.4333770000000 1.0
C      1  0.4019740000000  0.4501090000000  0.5341770000000 1.0
C      1  0.5353280000000  0.4952950000000  0.3889280000000 1.0
C      1  0.5879340000000  0.4561720000000  0.5009090000000 1.0
C      1  0.5335220000000  0.6095170000000  0.5256710000000 1.0
C      1  0.5432240000000  0.4436040000000  0.4838010000000 1.0
C      1  0.4163660000000  0.5719310000000  0.4864380000000 1.0
C      1  0.5993880000000  0.5057760000000  0.4348720000000 1.0
C      1  0.5814670000000  0.4843140000000  0.4992930000000 1.0
C      1  0.5026040000000  0.4124430000000  0.5851750000000 1.0
C      1  0.5887250000000  0.4465360000000  0.5282640000000 1.0
C      1  0.5397450000000  0.4574290000000  0.5342700000000 1.0
C      1  0.5250360000000  0.4927030000000  0.4970180000000 1.0
C      1  0.4649180000000  0.5368680000000  0.4447150000000 1.0
C      1  0.5115490000000  0.4520030000000  0.5414190000000 1.0
C      1  0.5163780000000  0.4883370000000  0.4385030000000 1.0
C      1  0.4717180000000  0.4162530000000  0.5403000000000 1.0
C      1  0.4900020000000  0.4618360000000  0.6108940000000 1.0
C      1  0.5583320000000  0.4571350000000  0.5820190000000 1.0
C      1  0.4752580000000  0.3969960000000  0.4423850000000 1.0
C      1  0.4350770000000  0.4984530000000  0.4903910000000 1.0
C      1  0.4092190000000  0.5177430000000  0.4104220000000 1.0
C      1  0.5778900000000  0.4189490000000  0.5306040000000 1.0
C      1  0.4409890000000  0.4424310000000  0.4984340000000 1.0
C      1  0.5089210000000  0.5130390000000  0.4849420000000 1.0
C      1  0.5350880000000  0.5341400000000  0.4158120000000 1.0
C      1  0.3720830000000  0.4834740000000  0.5171410000000 1.0
C      1  0.4916760000000  0.4979110000000  0.4265160000000 1.0
C      1  0.5123920000000  0.5394530000000  0.5949830000000 1.0
C      1  0.5058620000000  0.6177750000000  0.4898940000000 1.0
C      1  0.5127080000000  0.4644920000000  0.4522830000000 1.0
C      1  0.4099370000000  0.5260740000000  0.5377170000000 1.0
C      1  0.4547870000000  0.5694540000000  0.4210780000000 1.0
C      1  0.5271890000000  0.4918820000000  0.5594400000000 1.0
C      1  0.4959420000000  0.4311190000000  0.5296320000000 1.0
C      1  0.4807760000000  0.6097980000000  0.4767520000000 1.0
C      1  0.5051750000000  0.4798820000000  0.5136220000000 1.0
C      1  0.4215810000000  0.5813210000000  0.5113250000000 1.0
C      1  0.5710450000000  0.4949690000000  0.4228220000000 1.0
C      1  0.4385690000000  0.4319520000000  0.5469140000000 1.0
C      1  0.4908560000000  0.5505440000000  0.4882490000000 1.0
C      1  0.5403350000000  0.4665520000000  0.3973590000000 1.0
C      1  0.5203180000000  0.5803240000000  0.4156770000000 1.0
C      1  0.5284290000000  0.4181310000000  0.5955960000000 1.0
C      1  0.5775750000000  0.5025400000000  0.5822780000000 1.0
C      1  0.5318490000000  0.6104650000000  0.4781880000000 1.0
C      1  0.5494430000000  0.5529580000000  0.4906270000000 1.0
C      1  0.6224200000000  0.5056150000000  0.5207250000000 1.0
C      1  0.4504310000000  0.5479230000000  0.4856600000000 1.0
C      1  0.4779130000000  0.4714550000000  0.5559210000000 1.0
C      1  0.4401050000000  0.5473680000000  0.4337890000000 1.0
C      1  0.6000510000000  0.4890980000000  0.5250660000000 1.0
C      1  0.4737140000000  0.4477050000000  0.5715470000000 1.0
C      1  0.4573320000000  0.4955050000000  0.5976740000000 1.0
C      1  0.4698430000000  0.5835100000000  0.5763280000000 1.0
C      1  0.4874040000000  0.4923710000000  0.3970290000000 1.0
C      1  0.4812960000000  0.6127880000000  0.5337350000000 1.0
C      1  0.4792630000000  0.5572820000000  0.4090420000000 1.0
C      1  0.5516730000000  0.5122130000000  0.4063420000000 1.0
C      1  0.5186140000000  0.5364800000000  0.3912200000000 1.0
C      1  0.5457210000000  0.4283690000000  0.4393020000000 1.0
C      1  0.5031410000000  0.4875630000000  0.6077160000000 1.0
C      1  0.5054740000000  0.5629280000000  0.3976940000000 1.0
C      1  0.4323020000000  0.4782570000000  0.5606640000000 1.0
C      1  0.5771840000000  0.4031750000000  0.5059010000000 1.0
C      1  0.3973000000000  0.5288210000000  0.4581590000000 1.0
C      1  0.4972300000000  0.3885270000000  0.4861410000000 1.0
C      1  0.4773880000000  0.5237230000000  0.5233120000000 1.0
C      1  0.4475470000000  0.4457800000000  0.4122880000000 1.0
C      1  0.4811790000000  0.5994160000000  0.4493060000000 1.0
C      1  0.4667760000000  0.5465600000000  0.5351240000000 1.0
C      1  0.5638770000000  0.4661410000000  0.4135060000000 1.0
C      1  0.4662120000000  0.3970140000000  0.5166310000000 1.0
C      1  0.4924890000000  0.4606530000000  0.3946920000000 1.0
C      1  0.4117080000000  0.5361680000000  0.4335610000000 1.0
C      1  0.4454130000000  0.5139110000000  0.3747570000000 1.0
C      1  0.4637720000000  0.4864150000000  0.4957820000000 1.0
C      1  0.5218080000000  0.5612920000000  0.5784890000000 1.0
C      1  0.6021490000000  0.4814110000000  0.4523950000000 1.0
C      1  0.4795260000000  0.5016390000000  0.4746650000000 1.0
C      1  0.4322930000000  0.5911390000000  0.5346620000000 1.0
C      1  0.4320370000000  0.5709600000000  0.5565480000000 1.0
C      1  0.5910840000000  0.4539390000000  0.4515100000000 1.0
C      1  0.5871610000000  0.5554780000000  0.4582310000000 1.0
C      1  0.3886400000000  0.4787270000000  0.5401480000000 1.0
C      1  0.5726540000000  0.5436850000000  0.5843030000000 1.0
C      1  0.5615280000000  0.4022930000000  0.4814160000000 1.0
C      1  0.4323060000000  0.4180120000000  0.4829490000000 1.0
C      1  0.5845000000000  0.4939370000000  0.4717950000000 1.0
C      1  0.5270570000000  0.4649100000000  0.4771970000000 1.0
C      1  0.4366710000000  0.5433950000000  0.5470070000000 1.0
C      1  0.5100930000000  0.5090400000000  0.3846650000000 1.0
C      1  0.4530880000000  0.3984670000000  0.4902850000000 1.0
C      1  0.4918480000000  0.3843230000000  0.5148270000000 1.0
C      1  0.5072100000000  0.3870200000000  0.5411670000000 1.0
C      1  0.5179860000000  0.4482750000000  0.4028190000000 1.0
C      1  0.4065180000000  0.4241320000000  0.5467940000000 1.0
C      1  0.5807430000000  0.4763960000000  0.5727410000000 1.0
C      1  0.5635360000000  0.4957330000000  0.4523960000000 1.0
C      1  0.5337650000000  0.3996220000000  0.5372520000000 1.0
C      1  0.4857780000000  0.5684500000000  0.5338870000000 1.0
C      1  0.5495810000000  0.4965310000000  0.5422900000000 1.0
C      1  0.4900710000000  0.4367990000000  0.4883570000000 1.0
C      1  0.5623200000000  0.5201790000000  0.5984560000000 1.0
C      1  0.5365240000000  0.5032780000000  0.4533850000000 1.0
C      1  0.5861730000000  0.5577690000000  0.5392950000000 1.0
C      1  0.4814410000000  0.5079460000000  0.6090230000000 1.0
C      1  0.4211080000000  0.4744700000000  0.4279420000000 1.0
C      1  0.4574570000000  0.5843090000000  0.4456920000000 1.0
C      1  0.4551820000000  0.4998310000000  0.3925330000000 1.0
C      1  0.4896310000000  0.4478910000000  0.4479730000000 1.0
C      1  0.5713060000000  0.5876680000000  0.5055250000000 1.0
C      1  0.4660910000000  0.4622040000000  0.4451720000000 1.0
C      1  0.5405310000000  0.4192390000000  0.4692080000000 1.0
C      1  0.5403870000000  0.5882630000000  0.5439470000000 1.0
C      1  0.4513260000000  0.4473710000000  0.5909420000000 1.0
C      1  0.5931740000000  0.5316780000000  0.4452340000000 1.0
C      1  0.4719630000000  0.3871800000000  0.4696210000000 1.0
C      1  0.3893710000000  0.5016070000000  0.4633650000000 1.0
C      1  0.5231960000000  0.5476840000000  0.5306520000000 1.0
C      1  0.3935870000000  0.5281780000000  0.5132670000000 1.0
C      1  0.5082370000000  0.5977220000000  0.4351990000000 1.0
C      1  0.5209930000000  0.4193450000000  0.5197300000000 1.0
C      1  0.4467910000000  0.5708120000000  0.5822980000000 1.0
C      1  0.5513740000000  0.5262100000000  0.4978410000000 1.0
C      1  0.5322600000000  0.5178620000000  0.6005500000000 1.0
C      1  0.4679060000000  0.4510680000000  0.4023950000000 1.0
C      1  0.5524850000000  0.4996920000000  0.5091090000000 1.0
END
