TITL C-4164240-4114-612 69.6612364907248 125000 -25674.231517261 0 0 173 (C1) n - 1
REM
REM in /home/nfs/bkarasulu/CARBON/AIRSS/Generating-Clusters/ReaxFF-fromJPCA2015/Units_Real/with-SteepDescent/Only-C1/SD-CG/Try1-3A/FIRE-CG
REM
REM
REM
REM
REM
REM ./C.cell (11c1c37f851c82e70ff6c80c92926a4b)
REM
REM compiler GCC version 9.2.1 20190827 (Red Hat 9.2.1-1)
REM options -cpp -mtune=generic -march=x86-64 -g -O0 -fpre-include=/usr/include/finclude/math-vector-fortran.h
REM seed 1898783847 -1774612998 725359036 183327584 -302807200 1696099464 -1439906510 2030250757 -1625031886 1037114671 943783061 -1121686775 1117414304 1933692144 1203157941 -960234679 -1243795474 -1590898382 267482496 317692388 -1598495284 -1346694928 -167774574 382940828 296510063 -669683420 1890088465 704074403 -2027398756 -334007129 1763723961 967366782 -967510864
REM
CELL 1.54180   50.00000   50.00000   50.00000   90.00000   90.00000   90.00000
LATT -1
SFAC C  
C      1  0.4446570000000  0.5341400000000  0.5600010000000 1.0
C      1  0.5338880000000  0.4784180000000  0.5955020000000 1.0
C      1  0.5990290000000  0.4850950000000  0.5133050000000 1.0
C      1  0.4748850000000  0.5291880000000  0.5954100000000 1.0
C      1  0.5711840000000  0.4845980000000  0.5085910000000 1.0
C      1  0.4982260000000  0.4102560000000  0.4318580000000 1.0
C      1  0.4628990000000  0.5148480000000  0.5215730000000 1.0
C      1  0.5076510000000  0.5785820000000  0.5144930000000 1.0
C      1  0.5073550000000  0.3960690000000  0.5268870000000 1.0
C      1  0.5064090000000  0.5255400000000  0.5073560000000 1.0
C      1  0.5269300000000  0.5158330000000  0.5601790000000 1.0
C      1  0.4454160000000  0.4863860000000  0.5866910000000 1.0
C      1  0.3907420000000  0.5016640000000  0.4869460000000 1.0
C      1  0.4987640000000  0.4856040000000  0.5248220000000 1.0
C      1  0.5427080000000  0.4986300000000  0.4445470000000 1.0
C      1  0.4202250000000  0.4577290000000  0.5242930000000 1.0
C      1  0.5418180000000  0.4100890000000  0.5076760000000 1.0
C      1  0.5271020000000  0.5660420000000  0.4687840000000 1.0
C      1  0.4185250000000  0.4660010000000  0.4618430000000 1.0
C      1  0.4858030000000  0.4779620000000  0.5808430000000 1.0
C      1  0.5779410000000  0.5190110000000  0.4173300000000 1.0
C      1  0.4531170000000  0.5156670000000  0.5817100000000 1.0
C      1  0.5946940000000  0.5403590000000  0.5065990000000 1.0
C      1  0.5829850000000  0.5216230000000  0.4843690000000 1.0
C      1  0.4741510000000  0.6034670000000  0.5383830000000 1.0
C      1  0.5823100000000  0.4388620000000  0.4624950000000 1.0
C      1  0.5519530000000  0.4783660000000  0.5452570000000 1.0
C      1  0.5162980000000  0.3984970000000  0.4533380000000 1.0
C      1  0.5221790000000  0.4405740000000  0.4646650000000 1.0
C      1  0.4987570000000  0.6038150000000  0.5516460000000 1.0
C      1  0.4988150000000  0.5166520000000  0.6071600000000 1.0
C      1  0.4544260000000  0.4064840000000  0.5234730000000 1.0
C      1  0.5533260000000  0.4360270000000  0.5739150000000 1.0
C      1  0.4717170000000  0.4031690000000  0.4729450000000 1.0
C      1  0.4837800000000  0.5574190000000  0.5888120000000 1.0
C      1  0.5308640000000  0.4503880000000  0.5879270000000 1.0
C      1  0.5819320000000  0.5328690000000  0.4559350000000 1.0
C      1  0.5055480000000  0.4499350000000  0.4407570000000 1.0
C      1  0.4649530000000  0.4678960000000  0.5988820000000 1.0
C      1  0.6049630000000  0.4811070000000  0.4713660000000 1.0
C      1  0.5074830000000  0.4397770000000  0.4900250000000 1.0
C      1  0.5676160000000  0.4688390000000  0.4162110000000 1.0
C      1  0.5024060000000  0.4868260000000  0.4809780000000 1.0
C      1  0.4265740000000  0.4174080000000  0.4787590000000 1.0
C      1  0.4511070000000  0.5877360000000  0.5068110000000 1.0
C      1  0.4340250000000  0.5830190000000  0.4829990000000 1.0
C      1  0.4572300000000  0.5040970000000  0.4647800000000 1.0
C      1  0.4146900000000  0.5623790000000  0.4903470000000 1.0
C      1  0.4590160000000  0.4624930000000  0.4886490000000 1.0
C      1  0.5451550000000  0.3977140000000  0.4587860000000 1.0
C      1  0.4842430000000  0.5161450000000  0.4361190000000 1.0
C      1  0.4086960000000  0.5382320000000  0.4755200000000 1.0
C      1  0.5363920000000  0.5607690000000  0.5764230000000 1.0
C      1  0.4947260000000  0.6056060000000  0.4851710000000 1.0
C      1  0.5541820000000  0.5288770000000  0.4932610000000 1.0
C      1  0.4914460000000  0.4411620000000  0.5399270000000 1.0
C      1  0.4094350000000  0.5205410000000  0.4539620000000 1.0
C      1  0.4496240000000  0.4909950000000  0.4875460000000 1.0
C      1  0.5040110000000  0.4374540000000  0.5873210000000 1.0
C      1  0.4803010000000  0.4010760000000  0.5248450000000 1.0
C      1  0.4491660000000  0.5293540000000  0.4557530000000 1.0
C      1  0.5461620000000  0.6008240000000  0.5001600000000 1.0
C      1  0.5275560000000  0.6004510000000  0.5501040000000 1.0
C      1  0.4987740000000  0.5212650000000  0.5554810000000 1.0
C      1  0.5569220000000  0.5777830000000  0.4432340000000 1.0
C      1  0.5681380000000  0.5815970000000  0.5095460000000 1.0
C      1  0.3873020000000  0.4750760000000  0.4954210000000 1.0
C      1  0.5491230000000  0.5523650000000  0.4793600000000 1.0
C      1  0.4718330000000  0.4790080000000  0.5562820000000 1.0
C      1  0.4515810000000  0.5822500000000  0.4600100000000 1.0
C      1  0.4435010000000  0.4185260000000  0.5522140000000 1.0
C      1  0.5250080000000  0.6016410000000  0.5201350000000 1.0
C      1  0.5569620000000  0.4985160000000  0.5959000000000 1.0
C      1  0.4819080000000  0.5652190000000  0.4353880000000 1.0
C      1  0.5395560000000  0.4556340000000  0.5313250000000 1.0
C      1  0.5062570000000  0.4349480000000  0.4165990000000 1.0
C      1  0.6004040000000  0.4774740000000  0.4417700000000 1.0
C      1  0.4506690000000  0.4086190000000  0.4944030000000 1.0
C      1  0.5669350000000  0.5689780000000  0.5357040000000 1.0
C      1  0.4035880000000  0.4931280000000  0.4616310000000 1.0
C      1  0.4138770000000  0.4770710000000  0.5463600000000 1.0
C      1  0.5189420000000  0.4022140000000  0.5538970000000 1.0
C      1  0.5414230000000  0.5188360000000  0.6061220000000 1.0
C      1  0.5428960000000  0.5050480000000  0.5382530000000 1.0
C      1  0.5441680000000  0.5656940000000  0.4219780000000 1.0
C      1  0.5744500000000  0.5604400000000  0.4642070000000 1.0
C      1  0.5263890000000  0.6051450000000  0.4790780000000 1.0
C      1  0.5556320000000  0.3995950000000  0.4850900000000 1.0
C      1  0.4621170000000  0.5610570000000  0.5134260000000 1.0
C      1  0.4749770000000  0.4405110000000  0.5938240000000 1.0
C      1  0.4992790000000  0.4581700000000  0.3998730000000 1.0
C      1  0.4945920000000  0.5012130000000  0.5034580000000 1.0
C      1  0.5066010000000  0.5332000000000  0.3940420000000 1.0
C      1  0.3980190000000  0.4508960000000  0.5048360000000 1.0
C      1  0.4547610000000  0.4241540000000  0.5785930000000 1.0
C      1  0.4660690000000  0.5614740000000  0.4108240000000 1.0
C      1  0.5693350000000  0.4127270000000  0.4649360000000 1.0
C      1  0.5017110000000  0.5405490000000  0.5348400000000 1.0
C      1  0.5450300000000  0.5373120000000  0.5629940000000 1.0
C      1  0.4400630000000  0.5076520000000  0.5092860000000 1.0
C      1  0.5777480000000  0.4772990000000  0.5584970000000 1.0
C      1  0.4710390000000  0.4912710000000  0.4418450000000 1.0
C      1  0.4705840000000  0.4999510000000  0.3970300000000 1.0
C      1  0.3983570000000  0.5292740000000  0.5501760000000 1.0
C      1  0.4191270000000  0.5478210000000  0.5609630000000 1.0
C      1  0.4595340000000  0.5562360000000  0.4514910000000 1.0
C      1  0.5175110000000  0.4809220000000  0.4012000000000 1.0
C      1  0.5836470000000  0.5436650000000  0.5346250000000 1.0
C      1  0.4028540000000  0.5027360000000  0.5386610000000 1.0
C      1  0.4091180000000  0.5153730000000  0.5106010000000 1.0
C      1  0.4457110000000  0.5068170000000  0.4107050000000 1.0
C      1  0.5120840000000  0.5655880000000  0.5341920000000 1.0
C      1  0.5576300000000  0.5317720000000  0.4017070000000 1.0
C      1  0.5333260000000  0.5913750000000  0.4539170000000 1.0
C      1  0.4658730000000  0.4556520000000  0.5398790000000 1.0
C      1  0.5078820000000  0.4916410000000  0.5951290000000 1.0
C      1  0.5460840000000  0.4087620000000  0.5647520000000 1.0
C      1  0.5844820000000  0.4532410000000  0.4373490000000 1.0
C      1  0.4719600000000  0.4696710000000  0.3977990000000 1.0
C      1  0.5528380000000  0.4809570000000  0.4703030000000 1.0
C      1  0.4316580000000  0.4393000000000  0.5683430000000 1.0
C      1  0.4978130000000  0.5407900000000  0.4375970000000 1.0
C      1  0.4467660000000  0.4618360000000  0.4578050000000 1.0
C      1  0.5126420000000  0.5593690000000  0.5946730000000 1.0
C      1  0.4810360000000  0.5006970000000  0.5415840000000 1.0
C      1  0.4996200000000  0.3963660000000  0.4762420000000 1.0
C      1  0.4730120000000  0.4133750000000  0.4457110000000 1.0
C      1  0.5878880000000  0.4899450000000  0.4180260000000 1.0
C      1  0.5459000000000  0.4888360000000  0.4994010000000 1.0
C      1  0.4977060000000  0.4776250000000  0.4409090000000 1.0
C      1  0.4855140000000  0.5647790000000  0.4945210000000 1.0
C      1  0.4897050000000  0.4610790000000  0.4869410000000 1.0
C      1  0.4104190000000  0.5655350000000  0.5202250000000 1.0
C      1  0.5855700000000  0.5644580000000  0.4938980000000 1.0
C      1  0.5413440000000  0.4813110000000  0.4181780000000 1.0
C      1  0.4797690000000  0.5867270000000  0.4693180000000 1.0
C      1  0.5476100000000  0.5782170000000  0.5556180000000 1.0
C      1  0.4262470000000  0.5711070000000  0.5444960000000 1.0
C      1  0.4330660000000  0.4224000000000  0.4515870000000 1.0
C      1  0.4091020000000  0.4428010000000  0.4786100000000 1.0
C      1  0.4523620000000  0.4389200000000  0.4370260000000 1.0
C      1  0.4476420000000  0.4548040000000  0.5169930000000 1.0
C      1  0.4558410000000  0.5388460000000  0.5315050000000 1.0
C      1  0.4997870000000  0.5050230000000  0.3948240000000 1.0
C      1  0.5787980000000  0.5023010000000  0.5740520000000 1.0
C      1  0.5351530000000  0.5483240000000  0.4007530000000 1.0
C      1  0.5006850000000  0.4235550000000  0.5618240000000 1.0
C      1  0.4314630000000  0.4803090000000  0.4089980000000 1.0
C      1  0.4683140000000  0.5723170000000  0.5702430000000 1.0
C      1  0.5143210000000  0.4957230000000  0.4561640000000 1.0
C      1  0.5977870000000  0.4546060000000  0.4822460000000 1.0
C      1  0.4807510000000  0.5410630000000  0.3974670000000 1.0
C      1  0.5817810000000  0.4394800000000  0.5305330000000 1.0
C      1  0.5131110000000  0.4124420000000  0.5004310000000 1.0
C      1  0.5767600000000  0.4480990000000  0.5585900000000 1.0
C      1  0.5542840000000  0.4327510000000  0.5219710000000 1.0
C      1  0.4285520000000  0.4695880000000  0.5703010000000 1.0
C      1  0.5367380000000  0.5154890000000  0.5110970000000 1.0
C      1  0.5103880000000  0.4594190000000  0.5283560000000 1.0
C      1  0.5141020000000  0.5415230000000  0.4621930000000 1.0
C      1  0.4420310000000  0.5580860000000  0.4283840000000 1.0
C      1  0.4494280000000  0.4564030000000  0.4096820000000 1.0
C      1  0.3958390000000  0.5409320000000  0.5236630000000 1.0
C      1  0.6047040000000  0.5034120000000  0.4905560000000 1.0
C      1  0.4332350000000  0.5289720000000  0.4309040000000 1.0
C      1  0.4524800000000  0.5848200000000  0.5523910000000 1.0
C      1  0.5993850000000  0.4542420000000  0.5116920000000 1.0
C      1  0.5623710000000  0.5207830000000  0.4404880000000 1.0
C      1  0.4980140000000  0.5406560000000  0.4855710000000 1.0
C      1  0.4747820000000  0.6058190000000  0.5071890000000 1.0
C      1  0.5378870000000  0.4612590000000  0.4675510000000 1.0
C      1  0.5203530000000  0.5370360000000  0.6120090000000 1.0
C      1  0.5821400000000  0.5248050000000  0.5565110000000 1.0
END
