TITL C-4164247-2821-197 1.92085200369007 125000 -2820.62375012257 0 0 21 (C1) n - 1
REM
REM in /home/nfs/bkarasulu/CARBON/AIRSS/Generating-Clusters/ReaxFF-fromJPCA2015/Units_Real/with-SteepDescent/Only-C1/SD-CG/Try1-3A/FIRE-CG
REM
REM
REM
REM
REM
REM ./C.cell (11c1c37f851c82e70ff6c80c92926a4b)
REM
REM compiler GCC version 9.2.1 20190827 (Red Hat 9.2.1-1)
REM options -cpp -mtune=generic -march=x86-64 -g -O0 -fpre-include=/usr/include/finclude/math-vector-fortran.h
REM seed -335702133 693064986 154615342 -1277392184 1086055384 1723789787 -1689069171 1320713365 -1136354786 -355561498 169756973 324165362 -192502544 2118941307 211797473 -2192700 7964565 -61983249 554422219 -498250634 -334668317 -1952633039 1404573320 -269160363 -1846995168 242795129 -303826098 1478657951 2130690396 -1706807798 178738652 340420143 -400209876
REM
CELL 1.54180   50.00000   50.00000   50.00000   90.00000   90.00000   90.00000
LATT -1
SFAC C  
C      1  0.5124920000000  0.4216930000000  0.4919210000000 1.0
C      1  0.4831240000000  0.5067230000000  0.4710870000000 1.0
C      1  0.5222340000000  0.5298200000000  0.4811950000000 1.0
C      1  0.5007170000000  0.4616510000000  0.4950190000000 1.0
C      1  0.5478970000000  0.5439550000000  0.4773300000000 1.0
C      1  0.4494750000000  0.4689050000000  0.5090500000000 1.0
C      1  0.5309010000000  0.5269360000000  0.5309890000000 1.0
C      1  0.5102770000000  0.5489830000000  0.5371530000000 1.0
C      1  0.4605670000000  0.5168750000000  0.4874130000000 1.0
C      1  0.5595560000000  0.5342820000000  0.5260000000000 1.0
C      1  0.5208230000000  0.4458580000000  0.4894870000000 1.0
C      1  0.4763570000000  0.5414750000000  0.4928080000000 1.0
C      1  0.5152330000000  0.5162750000000  0.5072540000000 1.0
C      1  0.4950100000000  0.5337920000000  0.4708220000000 1.0
C      1  0.4933120000000  0.4913960000000  0.4963700000000 1.0
C      1  0.4649590000000  0.4947060000000  0.5063500000000 1.0
C      1  0.4533750000000  0.4491990000000  0.4858650000000 1.0
C      1  0.4923910000000  0.5360240000000  0.5172680000000 1.0
C      1  0.4786680000000  0.4392030000000  0.5007640000000 1.0
C      1  0.5686640000000  0.5436680000000  0.4992500000000 1.0
C      1  0.4639700000000  0.4485830000000  0.5266060000000 1.0
END
