TITL C-4164233-775-42 4.1518974492323 125000 -15836.5821758823 0 0 108 (C1) n - 1
REM
REM in /home/nfs/bkarasulu/CARBON/AIRSS/Generating-Clusters/ReaxFF-fromJPCA2015/Units_Real/with-SteepDescent/Only-C1/SD-CG/Try1-3A/FIRE-CG
REM
REM
REM
REM
REM
REM ./C.cell (11c1c37f851c82e70ff6c80c92926a4b)
REM
REM compiler GCC version 9.2.1 20190827 (Red Hat 9.2.1-1)
REM options -cpp -mtune=generic -march=x86-64 -g -O0 -fpre-include=/usr/include/finclude/math-vector-fortran.h
REM seed 635637870 -382351054 1048333145 754912263 1407209241 1823070289 -950880978 -86409029 19977821 1944848644 508591952 2069603999 -1143797998 622323370 788681981 722172260 953003005 1158616914 1527639723 -896255713 -1442955803 -1882191443 -892842129 1391178634 -1745405309 -325182401 690080054 -1023226722 1651625711 1050083323 376130035 118497863 -391044009
REM
CELL 1.54180   50.00000   50.00000   50.00000   90.00000   90.00000   90.00000
LATT -1
SFAC C  
C      1  0.4753100000000  0.4396020000000  0.5505110000000 1.0
C      1  0.5169060000000  0.4582280000000  0.5426910000000 1.0
C      1  0.5630030000000  0.4512590000000  0.4833170000000 1.0
C      1  0.4557500000000  0.5284620000000  0.4406360000000 1.0
C      1  0.5620080000000  0.5625550000000  0.4648950000000 1.0
C      1  0.5596260000000  0.5099240000000  0.5283070000000 1.0
C      1  0.5364620000000  0.4949210000000  0.5233640000000 1.0
C      1  0.5105700000000  0.5054350000000  0.4576670000000 1.0
C      1  0.4929910000000  0.4077000000000  0.4625280000000 1.0
C      1  0.5390920000000  0.5797560000000  0.4601600000000 1.0
C      1  0.5804880000000  0.4919740000000  0.4992580000000 1.0
C      1  0.4535130000000  0.5765150000000  0.4675910000000 1.0
C      1  0.4135290000000  0.5092950000000  0.5617500000000 1.0
C      1  0.4713740000000  0.4211430000000  0.4511410000000 1.0
C      1  0.4443370000000  0.5556900000000  0.4484470000000 1.0
C      1  0.4081950000000  0.5129610000000  0.5337660000000 1.0
C      1  0.5841150000000  0.4916890000000  0.4525530000000 1.0
C      1  0.4719640000000  0.4578810000000  0.4253630000000 1.0
C      1  0.4349680000000  0.5120730000000  0.5837810000000 1.0
C      1  0.5703030000000  0.4823570000000  0.5584360000000 1.0
C      1  0.5326360000000  0.5066030000000  0.4773740000000 1.0
C      1  0.4607290000000  0.4973970000000  0.5818110000000 1.0
C      1  0.5208950000000  0.5513890000000  0.5540290000000 1.0
C      1  0.5332040000000  0.4846330000000  0.4960940000000 1.0
C      1  0.5311980000000  0.4739770000000  0.5931590000000 1.0
C      1  0.5684240000000  0.4617530000000  0.5373900000000 1.0
C      1  0.5080580000000  0.4568700000000  0.5888640000000 1.0
C      1  0.5381510000000  0.5442540000000  0.4315260000000 1.0
C      1  0.5208470000000  0.4194570000000  0.4580070000000 1.0
C      1  0.4639520000000  0.5087430000000  0.4894040000000 1.0
C      1  0.4840240000000  0.5848940000000  0.4716900000000 1.0
C      1  0.5693110000000  0.5344360000000  0.5397440000000 1.0
C      1  0.4877160000000  0.4695080000000  0.4477080000000 1.0
C      1  0.4170640000000  0.4968440000000  0.4833310000000 1.0
C      1  0.4139510000000  0.5369710000000  0.5170490000000 1.0
C      1  0.5163470000000  0.5581160000000  0.4496720000000 1.0
C      1  0.5034010000000  0.4534330000000  0.5137900000000 1.0
C      1  0.5644350000000  0.5402420000000  0.4462970000000 1.0
C      1  0.4912750000000  0.5447460000000  0.5223080000000 1.0
C      1  0.4129000000000  0.5249330000000  0.4887270000000 1.0
C      1  0.4579850000000  0.5167340000000  0.5386200000000 1.0
C      1  0.5008320000000  0.5835120000000  0.4961070000000 1.0
C      1  0.4865080000000  0.5743520000000  0.5223920000000 1.0
C      1  0.5005640000000  0.4062770000000  0.5125430000000 1.0
C      1  0.5298040000000  0.4969990000000  0.4239380000000 1.0
C      1  0.5186540000000  0.5243870000000  0.5881940000000 1.0
C      1  0.5105160000000  0.4736180000000  0.4309690000000 1.0
C      1  0.5047040000000  0.4805380000000  0.6026190000000 1.0
C      1  0.5466980000000  0.5405390000000  0.5613120000000 1.0
C      1  0.4480190000000  0.5739730000000  0.4941650000000 1.0
C      1  0.5024470000000  0.4490550000000  0.4161940000000 1.0
C      1  0.4688120000000  0.5053490000000  0.4076780000000 1.0
C      1  0.5733410000000  0.5414850000000  0.5086960000000 1.0
C      1  0.4996620000000  0.4486660000000  0.5638920000000 1.0
C      1  0.5283180000000  0.5411210000000  0.4062760000000 1.0
C      1  0.4271200000000  0.4484340000000  0.5071570000000 1.0
C      1  0.4465730000000  0.5117500000000  0.5127470000000 1.0
C      1  0.5278660000000  0.5828210000000  0.5278810000000 1.0
C      1  0.4413360000000  0.4978650000000  0.4378340000000 1.0
C      1  0.4626950000000  0.4331980000000  0.4945110000000 1.0
C      1  0.5133500000000  0.4315210000000  0.4349070000000 1.0
C      1  0.5036690000000  0.5364930000000  0.4082510000000 1.0
C      1  0.4527910000000  0.4391520000000  0.4404690000000 1.0
C      1  0.4989920000000  0.5332030000000  0.4667900000000 1.0
C      1  0.5505330000000  0.4899910000000  0.5786870000000 1.0
C      1  0.4328640000000  0.5566640000000  0.5290860000000 1.0
C      1  0.4684710000000  0.4925450000000  0.5522690000000 1.0
C      1  0.4471490000000  0.5412110000000  0.5511150000000 1.0
C      1  0.4230230000000  0.4929710000000  0.5141890000000 1.0
C      1  0.5045680000000  0.5353860000000  0.4982630000000 1.0
C      1  0.4383800000000  0.5398380000000  0.5781800000000 1.0
C      1  0.4293350000000  0.4826120000000  0.4589480000000 1.0
C      1  0.4888000000000  0.4880520000000  0.4659620000000 1.0
C      1  0.4532920000000  0.5745620000000  0.5194060000000 1.0
C      1  0.4961220000000  0.5805780000000  0.4449130000000 1.0
C      1  0.5299410000000  0.4121750000000  0.5053850000000 1.0
C      1  0.5471180000000  0.4437290000000  0.5436080000000 1.0
C      1  0.5456470000000  0.5196520000000  0.5817930000000 1.0
C      1  0.4974770000000  0.5316110000000  0.5494800000000 1.0
C      1  0.5824370000000  0.5193400000000  0.4912130000000 1.0
C      1  0.4748660000000  0.4597900000000  0.5080800000000 1.0
C      1  0.5407790000000  0.4252080000000  0.5257010000000 1.0
C      1  0.5216770000000  0.4575490000000  0.4920510000000 1.0
C      1  0.4961890000000  0.5017410000000  0.5452280000000 1.0
C      1  0.4700750000000  0.5285820000000  0.4674300000000 1.0
C      1  0.5774090000000  0.5187700000000  0.4611440000000 1.0
C      1  0.5563470000000  0.4870610000000  0.4128850000000 1.0
C      1  0.5078590000000  0.5765570000000  0.5460650000000 1.0
C      1  0.5750540000000  0.4742310000000  0.4315690000000 1.0
C      1  0.4758870000000  0.4844970000000  0.4895640000000 1.0
C      1  0.5367330000000  0.4319750000000  0.4821830000000 1.0
C      1  0.5518520000000  0.5559080000000  0.4944540000000 1.0
C      1  0.4859050000000  0.4200940000000  0.5325270000000 1.0
C      1  0.4352700000000  0.4367870000000  0.4830710000000 1.0
C      1  0.4807460000000  0.4103570000000  0.4908710000000 1.0
C      1  0.5300830000000  0.5816810000000  0.5002780000000 1.0
C      1  0.4600710000000  0.4634310000000  0.5376550000000 1.0
C      1  0.4549940000000  0.4831400000000  0.4171100000000 1.0
C      1  0.5800050000000  0.5068740000000  0.5464610000000 1.0
C      1  0.4919480000000  0.5262370000000  0.5835890000000 1.0
C      1  0.4342690000000  0.4536660000000  0.4584840000000 1.0
C      1  0.5185860000000  0.4863850000000  0.5420450000000 1.0
C      1  0.4319410000000  0.4653550000000  0.5280700000000 1.0
C      1  0.5743210000000  0.4657870000000  0.5073770000000 1.0
C      1  0.4843440000000  0.5020940000000  0.5981690000000 1.0
C      1  0.5326310000000  0.5311900000000  0.4936230000000 1.0
C      1  0.5737590000000  0.4642040000000  0.4603710000000 1.0
C      1  0.4769660000000  0.5302750000000  0.4131670000000 1.0
END
