TITL C-4164236-1577-538 -1.90015691639134 125000 -9136.96750685926 0 0 61 (C1) n - 1
REM
REM in /home/nfs/bkarasulu/CARBON/AIRSS/Generating-Clusters/ReaxFF-fromJPCA2015/Units_Real/with-SteepDescent/Only-C1/SD-CG/Try1-3A/FIRE-CG
REM
REM
REM
REM
REM
REM ./C.cell (11c1c37f851c82e70ff6c80c92926a4b)
REM
REM compiler GCC version 9.2.1 20190827 (Red Hat 9.2.1-1)
REM options -cpp -mtune=generic -march=x86-64 -g -O0 -fpre-include=/usr/include/finclude/math-vector-fortran.h
REM seed 1444143586 -1778999329 2104682253 371331526 966665078 -7588477 271585556 463491615 -263818210 -1450700957 -27792450 1572490957 -771738672 -1104834392 -1877639586 410604565 1586392823 899471897 277640159 -591842240 -1434525734 409451260 1286851963 -825735494 -439597860 1297777531 1844397868 -1655672762 -953272241 14661095 -766784775 -1515976025 -672727075
REM
CELL 1.54180   50.00000   50.00000   50.00000   90.00000   90.00000   90.00000
LATT -1
SFAC C  
C      1  0.5469670000000  0.5179090000000  0.4506090000000 1.0
C      1  0.4661570000000  0.5673080000000  0.4930470000000 1.0
C      1  0.5614520000000  0.4967240000000  0.5273010000000 1.0
C      1  0.4765100000000  0.4410440000000  0.5463550000000 1.0
C      1  0.5040310000000  0.5077190000000  0.5749540000000 1.0
C      1  0.5491140000000  0.4869010000000  0.4554480000000 1.0
C      1  0.4475380000000  0.5206830000000  0.4479270000000 1.0
C      1  0.5249110000000  0.5763880000000  0.4851620000000 1.0
C      1  0.5022460000000  0.5337900000000  0.5624010000000 1.0
C      1  0.4830840000000  0.5476000000000  0.4783970000000 1.0
C      1  0.5301530000000  0.4388370000000  0.4639360000000 1.0
C      1  0.5450430000000  0.5156460000000  0.4258750000000 1.0
C      1  0.5372220000000  0.5678050000000  0.4652310000000 1.0
C      1  0.5365800000000  0.4472910000000  0.5421940000000 1.0
C      1  0.4833390000000  0.5757860000000  0.5151930000000 1.0
C      1  0.5321560000000  0.5575100000000  0.5223520000000 1.0
C      1  0.5234730000000  0.4899480000000  0.4963810000000 1.0
C      1  0.5461700000000  0.5367780000000  0.5004050000000 1.0
C      1  0.5290120000000  0.4917870000000  0.5704710000000 1.0
C      1  0.4764570000000  0.4875710000000  0.4760650000000 1.0
C      1  0.4685510000000  0.5098590000000  0.4312850000000 1.0
C      1  0.5505000000000  0.4763130000000  0.5041830000000 1.0
C      1  0.4519520000000  0.4715970000000  0.4764140000000 1.0
C      1  0.4957480000000  0.4799540000000  0.4982680000000 1.0
C      1  0.4824860000000  0.5448960000000  0.4497230000000 1.0
C      1  0.5128190000000  0.5765890000000  0.5107640000000 1.0
C      1  0.5432380000000  0.4476530000000  0.5133690000000 1.0
C      1  0.5664380000000  0.4832150000000  0.4785840000000 1.0
C      1  0.5011280000000  0.4679340000000  0.4421610000000 1.0
C      1  0.4914200000000  0.4685650000000  0.5514740000000 1.0
C      1  0.4364590000000  0.4868770000000  0.5399160000000 1.0
C      1  0.5478270000000  0.5439290000000  0.4706060000000 1.0
C      1  0.4743520000000  0.4331470000000  0.4953920000000 1.0
C      1  0.5693930000000  0.5192970000000  0.5100070000000 1.0
C      1  0.4311310000000  0.5022080000000  0.5139530000000 1.0
C      1  0.4332480000000  0.4766510000000  0.4988490000000 1.0
C      1  0.5007030000000  0.4221500000000  0.4894360000000 1.0
C      1  0.4874860000000  0.4867080000000  0.5252320000000 1.0
C      1  0.5842360000000  0.5056490000000  0.4878080000000 1.0
C      1  0.4672030000000  0.5586630000000  0.5336450000000 1.0
C      1  0.4343860000000  0.5284900000000  0.5023740000000 1.0
C      1  0.4794180000000  0.5342140000000  0.5438610000000 1.0
C      1  0.4478990000000  0.5530250000000  0.5115730000000 1.0
C      1  0.5464670000000  0.4960890000000  0.5495160000000 1.0
C      1  0.4942520000000  0.5266960000000  0.4958770000000 1.0
C      1  0.5291870000000  0.4655400000000  0.4513070000000 1.0
C      1  0.4643660000000  0.4454520000000  0.4710740000000 1.0
C      1  0.4853380000000  0.4443140000000  0.4502300000000 1.0
C      1  0.4788080000000  0.5359220000000  0.4268500000000 1.0
C      1  0.5254330000000  0.5474690000000  0.5485540000000 1.0
C      1  0.4831780000000  0.5147520000000  0.5214910000000 1.0
C      1  0.4388090000000  0.4618690000000  0.5231380000000 1.0
C      1  0.4568810000000  0.4912020000000  0.5589090000000 1.0
C      1  0.4611780000000  0.4412650000000  0.5221310000000 1.0
C      1  0.4805360000000  0.4901840000000  0.5727230000000 1.0
C      1  0.5215240000000  0.4644430000000  0.5609230000000 1.0
C      1  0.4336600000000  0.5260590000000  0.4718590000000 1.0
C      1  0.5044910000000  0.4244430000000  0.4599200000000 1.0
C      1  0.4857050000000  0.4917960000000  0.4489020000000 1.0
C      1  0.5216630000000  0.5174190000000  0.4949770000000 1.0
C      1  0.5288890000000  0.4324780000000  0.4930360000000 1.0
END
