TITL C-4164237-1827-457 2.48856584499596 125000 -14787.5545116024 0 0 99 (C1) n - 1
REM
REM in /home/nfs/bkarasulu/CARBON/AIRSS/Generating-Clusters/ReaxFF-fromJPCA2015/Units_Real/with-SteepDescent/Only-C1/SD-CG/Try1-3A/FIRE-CG
REM
REM
REM
REM
REM
REM ./C.cell (11c1c37f851c82e70ff6c80c92926a4b)
REM
REM compiler GCC version 9.2.1 20190827 (Red Hat 9.2.1-1)
REM options -cpp -mtune=generic -march=x86-64 -g -O0 -fpre-include=/usr/include/finclude/math-vector-fortran.h
REM seed 126372111 56913902 567952139 -2108354161 16055662 1024734698 623794572 531403947 -1058588816 752254068 551596466 538585327 2129070162 1840656625 1260018909 793293046 1212695666 327811870 -2100670878 -775233402 816150499 815794670 1729411327 1762804111 1115154247 -217916047 549840546 -103650102 1997612302 -456692900 208713968 123667901 1302627582
REM
CELL 1.54180   50.00000   50.00000   50.00000   90.00000   90.00000   90.00000
LATT -1
SFAC C  
C      1  0.5903770000000  0.4927590000000  0.4873900000000 1.0
C      1  0.5392540000000  0.4849730000000  0.4382240000000 1.0
C      1  0.5005570000000  0.4425060000000  0.5196760000000 1.0
C      1  0.5070560000000  0.5697270000000  0.4389430000000 1.0
C      1  0.5081470000000  0.5042460000000  0.5820190000000 1.0
C      1  0.5129960000000  0.4686370000000  0.5490130000000 1.0
C      1  0.5378690000000  0.4906500000000  0.4796170000000 1.0
C      1  0.5871110000000  0.5096030000000  0.5117240000000 1.0
C      1  0.5013870000000  0.4596660000000  0.4296840000000 1.0
C      1  0.4942090000000  0.5846510000000  0.5140600000000 1.0
C      1  0.5338520000000  0.5192980000000  0.5166170000000 1.0
C      1  0.5028270000000  0.5284760000000  0.4133900000000 1.0
C      1  0.5141570000000  0.5212250000000  0.5364970000000 1.0
C      1  0.5386300000000  0.5438560000000  0.4770200000000 1.0
C      1  0.5386570000000  0.4114030000000  0.5322770000000 1.0
C      1  0.5545150000000  0.4385840000000  0.5305200000000 1.0
C      1  0.5326770000000  0.5175120000000  0.4887180000000 1.0
C      1  0.5580320000000  0.5457560000000  0.5362970000000 1.0
C      1  0.4884280000000  0.4318900000000  0.4945190000000 1.0
C      1  0.5228930000000  0.5795070000000  0.5114320000000 1.0
C      1  0.5567240000000  0.5042590000000  0.5709340000000 1.0
C      1  0.4389910000000  0.4950940000000  0.4348760000000 1.0
C      1  0.4927150000000  0.5349600000000  0.5241220000000 1.0
C      1  0.4732720000000  0.4450820000000  0.5490670000000 1.0
C      1  0.5222020000000  0.5469910000000  0.4260130000000 1.0
C      1  0.4467700000000  0.4543940000000  0.5426530000000 1.0
C      1  0.4217230000000  0.4548370000000  0.4946020000000 1.0
C      1  0.4908040000000  0.4242130000000  0.5397730000000 1.0
C      1  0.5286970000000  0.4582350000000  0.4398630000000 1.0
C      1  0.3994470000000  0.4961790000000  0.4737590000000 1.0
C      1  0.5330190000000  0.5747380000000  0.4847490000000 1.0
C      1  0.5740150000000  0.4901420000000  0.5289660000000 1.0
C      1  0.5378710000000  0.5677890000000  0.5343870000000 1.0
C      1  0.4853090000000  0.4459140000000  0.4493790000000 1.0
C      1  0.4834200000000  0.4925880000000  0.5729010000000 1.0
C      1  0.4661320000000  0.5300790000000  0.4928180000000 1.0
C      1  0.5732620000000  0.5316180000000  0.4585770000000 1.0
C      1  0.4762470000000  0.5609080000000  0.5607680000000 1.0
C      1  0.4684060000000  0.5779730000000  0.5024690000000 1.0
C      1  0.5731950000000  0.4428420000000  0.5030330000000 1.0
C      1  0.4915180000000  0.5653980000000  0.5353310000000 1.0
C      1  0.4390730000000  0.4806730000000  0.5541270000000 1.0
C      1  0.4839410000000  0.5608080000000  0.4567100000000 1.0
C      1  0.4843810000000  0.5341420000000  0.4701220000000 1.0
C      1  0.4255170000000  0.5030130000000  0.5407270000000 1.0
C      1  0.4807870000000  0.5095850000000  0.4165170000000 1.0
C      1  0.4434020000000  0.5228680000000  0.5538510000000 1.0
C      1  0.4394780000000  0.5454310000000  0.4949330000000 1.0
C      1  0.5023050000000  0.5540430000000  0.5718120000000 1.0
C      1  0.5327660000000  0.4637680000000  0.5699960000000 1.0
C      1  0.5252910000000  0.4754670000000  0.5245680000000 1.0
C      1  0.5503870000000  0.5299420000000  0.5594840000000 1.0
C      1  0.4064360000000  0.4797790000000  0.4969050000000 1.0
C      1  0.5594470000000  0.4858170000000  0.4594970000000 1.0
C      1  0.4427220000000  0.5587460000000  0.4652930000000 1.0
C      1  0.5712920000000  0.4819980000000  0.5569330000000 1.0
C      1  0.5187870000000  0.5288260000000  0.5657960000000 1.0
C      1  0.4565700000000  0.4497310000000  0.4494410000000 1.0
C      1  0.5288590000000  0.4483730000000  0.5167820000000 1.0
C      1  0.4126360000000  0.5031220000000  0.5141150000000 1.0
C      1  0.4502560000000  0.5610810000000  0.5182930000000 1.0
C      1  0.4531840000000  0.5197240000000  0.4270870000000 1.0
C      1  0.5334220000000  0.4904880000000  0.5830080000000 1.0
C      1  0.5824450000000  0.5044370000000  0.4615050000000 1.0
C      1  0.4753580000000  0.4903450000000  0.5196760000000 1.0
C      1  0.4539080000000  0.5492410000000  0.5452370000000 1.0
C      1  0.4273400000000  0.4953070000000  0.4608790000000 1.0
C      1  0.5246170000000  0.5102630000000  0.4450310000000 1.0
C      1  0.5005720000000  0.5120890000000  0.4625690000000 1.0
C      1  0.5153710000000  0.4727020000000  0.4827920000000 1.0
C      1  0.4945340000000  0.4923330000000  0.4831440000000 1.0
C      1  0.4556650000000  0.5004110000000  0.5699210000000 1.0
C      1  0.5120190000000  0.4045010000000  0.5239580000000 1.0
C      1  0.4474290000000  0.5401720000000  0.4450080000000 1.0
C      1  0.4408310000000  0.4420350000000  0.4737080000000 1.0
C      1  0.5449780000000  0.4959130000000  0.5282380000000 1.0
C      1  0.4739400000000  0.5176490000000  0.5163090000000 1.0
C      1  0.5198790000000  0.5796310000000  0.4610380000000 1.0
C      1  0.4648240000000  0.5761250000000  0.4731320000000 1.0
C      1  0.4383380000000  0.4432530000000  0.5159390000000 1.0
C      1  0.4558700000000  0.4312030000000  0.4955410000000 1.0
C      1  0.4480920000000  0.4895480000000  0.4747830000000 1.0
C      1  0.5860110000000  0.4632030000000  0.4881090000000 1.0
C      1  0.5572980000000  0.4567900000000  0.5563210000000 1.0
C      1  0.5411780000000  0.4385660000000  0.4601800000000 1.0
C      1  0.5743630000000  0.5359560000000  0.5122720000000 1.0
C      1  0.4120160000000  0.5286330000000  0.4992830000000 1.0
C      1  0.5668660000000  0.4422960000000  0.4753270000000 1.0
C      1  0.5164610000000  0.5711900000000  0.5539540000000 1.0
C      1  0.4846910000000  0.4750590000000  0.5469070000000 1.0
C      1  0.3913530000000  0.5253520000000  0.4782210000000 1.0
C      1  0.4678790000000  0.4826940000000  0.4927860000000 1.0
C      1  0.5277390000000  0.4190420000000  0.4759910000000 1.0
C      1  0.4821400000000  0.4803450000000  0.4204930000000 1.0
C      1  0.5091040000000  0.4086150000000  0.4941910000000 1.0
C      1  0.5425680000000  0.5340090000000  0.4453000000000 1.0
C      1  0.5688870000000  0.5433470000000  0.4844380000000 1.0
C      1  0.5005960000000  0.4489430000000  0.4740700000000 1.0
C      1  0.4565360000000  0.4722190000000  0.4310780000000 1.0
END
