TITL C-4164233-775-597 24.9758921433048 125000 -21417.2163026235 0 0 144 (C1) n - 1
REM
REM in /home/nfs/bkarasulu/CARBON/AIRSS/Generating-Clusters/ReaxFF-fromJPCA2015/Units_Real/with-SteepDescent/Only-C1/SD-CG/Try1-3A/FIRE-CG
REM
REM
REM
REM
REM
REM ./C.cell (11c1c37f851c82e70ff6c80c92926a4b)
REM
REM compiler GCC version 9.2.1 20190827 (Red Hat 9.2.1-1)
REM options -cpp -mtune=generic -march=x86-64 -g -O0 -fpre-include=/usr/include/finclude/math-vector-fortran.h
REM seed -1142563540 154231687 1305975909 369241383 -994798375 1640693299 145267677 285615283 -1523011321 1877728961 1756068680 -323260031 873912420 -2067748997 1429084701 1994093912 -1281974041 -265269624 492423687 236973753 1662211174 297330931 2007269940 -952431095 -854317618 979356631 -653075927 -652306069 -769050878 228683898 -512414210 1405036875 486627955
REM
CELL 1.54180   50.00000   50.00000   50.00000   90.00000   90.00000   90.00000
LATT -1
SFAC C  
C      1  0.5309140000000  0.5394210000000  0.4055990000000 1.0
C      1  0.5577380000000  0.5908550000000  0.5221150000000 1.0
C      1  0.4589240000000  0.5118710000000  0.4682900000000 1.0
C      1  0.5997980000000  0.5081320000000  0.5087920000000 1.0
C      1  0.4813940000000  0.4954190000000  0.6077560000000 1.0
C      1  0.5427870000000  0.5102800000000  0.4375530000000 1.0
C      1  0.5949790000000  0.4789450000000  0.5529000000000 1.0
C      1  0.4433950000000  0.4698990000000  0.4541830000000 1.0
C      1  0.4962190000000  0.4553450000000  0.4230810000000 1.0
C      1  0.4725520000000  0.4421020000000  0.4984560000000 1.0
C      1  0.5289570000000  0.5374670000000  0.5900310000000 1.0
C      1  0.5019720000000  0.4900060000000  0.5594300000000 1.0
C      1  0.4378350000000  0.5250560000000  0.4852240000000 1.0
C      1  0.5028790000000  0.5039750000000  0.6115740000000 1.0
C      1  0.5134340000000  0.4046680000000  0.4906760000000 1.0
C      1  0.5918910000000  0.4993540000000  0.4785290000000 1.0
C      1  0.5278220000000  0.4119450000000  0.4411180000000 1.0
C      1  0.5293360000000  0.5635040000000  0.4937910000000 1.0
C      1  0.4295730000000  0.5207260000000  0.5326630000000 1.0
C      1  0.3952900000000  0.4995490000000  0.5545940000000 1.0
C      1  0.5201320000000  0.4503680000000  0.4801990000000 1.0
C      1  0.4377170000000  0.4417280000000  0.4588930000000 1.0
C      1  0.5609600000000  0.5657300000000  0.4598890000000 1.0
C      1  0.5549140000000  0.4061120000000  0.4881530000000 1.0
C      1  0.4406660000000  0.4030900000000  0.5424730000000 1.0
C      1  0.4719020000000  0.4880140000000  0.5177700000000 1.0
C      1  0.5547870000000  0.5362250000000  0.5524110000000 1.0
C      1  0.5159130000000  0.5223490000000  0.4437040000000 1.0
C      1  0.4366510000000  0.5184610000000  0.4446550000000 1.0
C      1  0.5731990000000  0.4624630000000  0.5643180000000 1.0
C      1  0.4712380000000  0.4707460000000  0.4946710000000 1.0
C      1  0.4482630000000  0.5557210000000  0.5727570000000 1.0
C      1  0.5045130000000  0.5763240000000  0.4301980000000 1.0
C      1  0.4835340000000  0.4228600000000  0.4534610000000 1.0
C      1  0.3961930000000  0.5060890000000  0.5006970000000 1.0
C      1  0.5235370000000  0.5637380000000  0.5853570000000 1.0
C      1  0.5866430000000  0.5591940000000  0.5258590000000 1.0
C      1  0.4718160000000  0.5700680000000  0.5684590000000 1.0
C      1  0.5996030000000  0.4710220000000  0.4694760000000 1.0
C      1  0.3996010000000  0.4776220000000  0.4638790000000 1.0
C      1  0.4139900000000  0.4512180000000  0.4920410000000 1.0
C      1  0.4954660000000  0.4771460000000  0.4491220000000 1.0
C      1  0.5068250000000  0.5282930000000  0.5216630000000 1.0
C      1  0.5242120000000  0.4171790000000  0.5658840000000 1.0
C      1  0.4420950000000  0.4321290000000  0.5492940000000 1.0
C      1  0.5429130000000  0.5705060000000  0.4424140000000 1.0
C      1  0.5631650000000  0.4454280000000  0.4173060000000 1.0
C      1  0.5429260000000  0.5485560000000  0.4760740000000 1.0
C      1  0.3947820000000  0.5039400000000  0.4694470000000 1.0
C      1  0.4696420000000  0.5650650000000  0.4499370000000 1.0
C      1  0.5031090000000  0.4271250000000  0.4333240000000 1.0
C      1  0.4681170000000  0.4815750000000  0.4677660000000 1.0
C      1  0.5169130000000  0.5563400000000  0.5174510000000 1.0
C      1  0.5862010000000  0.4448160000000  0.4670150000000 1.0
C      1  0.5483680000000  0.4669200000000  0.5478550000000 1.0
C      1  0.4342400000000  0.5283390000000  0.5769090000000 1.0
C      1  0.4080350000000  0.4496900000000  0.4640340000000 1.0
C      1  0.4466640000000  0.4781150000000  0.5266240000000 1.0
C      1  0.4853880000000  0.5977140000000  0.5291030000000 1.0
C      1  0.4419660000000  0.3803060000000  0.5339240000000 1.0
C      1  0.4071850000000  0.5263110000000  0.5658400000000 1.0
C      1  0.5257540000000  0.5578470000000  0.4278410000000 1.0
C      1  0.5293910000000  0.5318970000000  0.5614460000000 1.0
C      1  0.4724250000000  0.5995320000000  0.5028770000000 1.0
C      1  0.4649220000000  0.4300260000000  0.5232980000000 1.0
C      1  0.5670020000000  0.5801000000000  0.4833320000000 1.0
C      1  0.5163100000000  0.4715880000000  0.4021260000000 1.0
C      1  0.4593390000000  0.5463560000000  0.5230850000000 1.0
C      1  0.5599910000000  0.4936590000000  0.5297490000000 1.0
C      1  0.5205940000000  0.4722020000000  0.4629890000000 1.0
C      1  0.4952080000000  0.4790560000000  0.5345140000000 1.0
C      1  0.5522190000000  0.5194250000000  0.4108230000000 1.0
C      1  0.5192270000000  0.5131420000000  0.4964920000000 1.0
C      1  0.4924940000000  0.5970710000000  0.4813530000000 1.0
C      1  0.5691510000000  0.4822800000000  0.5859470000000 1.0
C      1  0.4411240000000  0.4827150000000  0.5547190000000 1.0
C      1  0.4145850000000  0.5437510000000  0.5432080000000 1.0
C      1  0.3912040000000  0.4969160000000  0.5267980000000 1.0
C      1  0.4885650000000  0.5869010000000  0.4541380000000 1.0
C      1  0.4965700000000  0.4293770000000  0.4815660000000 1.0
C      1  0.5475140000000  0.5832340000000  0.5470650000000 1.0
C      1  0.4580660000000  0.5610940000000  0.4996840000000 1.0
C      1  0.4576350000000  0.4699460000000  0.5746910000000 1.0
C      1  0.4962520000000  0.5017240000000  0.4365170000000 1.0
C      1  0.5799090000000  0.4498900000000  0.4399110000000 1.0
C      1  0.5324350000000  0.4006070000000  0.4695280000000 1.0
C      1  0.4165980000000  0.4496770000000  0.5432670000000 1.0
C      1  0.5363850000000  0.4087030000000  0.5402250000000 1.0
C      1  0.4103260000000  0.5258440000000  0.4546580000000 1.0
C      1  0.5259980000000  0.4707870000000  0.5724400000000 1.0
C      1  0.5411160000000  0.4873530000000  0.5929700000000 1.0
C      1  0.5480690000000  0.4262820000000  0.4298480000000 1.0
C      1  0.4207590000000  0.5468410000000  0.4737240000000 1.0
C      1  0.5975460000000  0.5238890000000  0.4569540000000 1.0
C      1  0.5866190000000  0.5468910000000  0.4500830000000 1.0
C      1  0.4269250000000  0.5761550000000  0.4774620000000 1.0
C      1  0.4264490000000  0.4586950000000  0.5166530000000 1.0
C      1  0.5660790000000  0.4326900000000  0.4878790000000 1.0
C      1  0.4847880000000  0.4962940000000  0.4097210000000 1.0
C      1  0.5449280000000  0.5016590000000  0.5026410000000 1.0
C      1  0.4633820000000  0.5154260000000  0.4029320000000 1.0
C      1  0.4869700000000  0.4333710000000  0.5781460000000 1.0
C      1  0.4811870000000  0.5252720000000  0.4844200000000 1.0
C      1  0.5223650000000  0.5284880000000  0.4718070000000 1.0
C      1  0.4713790000000  0.5510640000000  0.4760270000000 1.0
C      1  0.4448930000000  0.5879370000000  0.4975220000000 1.0
C      1  0.4956370000000  0.4121840000000  0.5595880000000 1.0
C      1  0.4606580000000  0.4437700000000  0.5709200000000 1.0
C      1  0.4413230000000  0.5575490000000  0.5441340000000 1.0
C      1  0.4819380000000  0.5380020000000  0.4034090000000 1.0
C      1  0.5451900000000  0.4877270000000  0.4562540000000 1.0
C      1  0.5436200000000  0.4488750000000  0.4977570000000 1.0
C      1  0.5803760000000  0.5833970000000  0.5071330000000 1.0
C      1  0.5605440000000  0.4950750000000  0.4797450000000 1.0
C      1  0.5852390000000  0.5016460000000  0.5697040000000 1.0
C      1  0.5448980000000  0.4663770000000  0.4004760000000 1.0
C      1  0.4912310000000  0.5864900000000  0.5570690000000 1.0
C      1  0.4589370000000  0.4323690000000  0.4408890000000 1.0
C      1  0.5354250000000  0.4514430000000  0.5261350000000 1.0
C      1  0.4782690000000  0.4869870000000  0.5829100000000 1.0
C      1  0.5097770000000  0.5850360000000  0.5209480000000 1.0
C      1  0.4440680000000  0.5117390000000  0.5550920000000 1.0
C      1  0.5684020000000  0.5137690000000  0.5495950000000 1.0
C      1  0.4761230000000  0.5230670000000  0.5138250000000 1.0
C      1  0.5111010000000  0.5148280000000  0.5481150000000 1.0
C      1  0.5182220000000  0.5899520000000  0.4934680000000 1.0
C      1  0.5212720000000  0.5829450000000  0.5649460000000 1.0
C      1  0.5348460000000  0.4021450000000  0.5118610000000 1.0
C      1  0.4914770000000  0.4268340000000  0.5335550000000 1.0
C      1  0.5527070000000  0.4931210000000  0.4007600000000 1.0
C      1  0.4466520000000  0.4745890000000  0.4252680000000 1.0
C      1  0.4663660000000  0.4532660000000  0.4211160000000 1.0
C      1  0.4245650000000  0.5099910000000  0.5061370000000 1.0
C      1  0.5891120000000  0.4866740000000  0.5253550000000 1.0
C      1  0.5939880000000  0.5339620000000  0.5166150000000 1.0
C      1  0.4428060000000  0.5038470000000  0.4201470000000 1.0
C      1  0.4809930000000  0.5598530000000  0.4227780000000 1.0
C      1  0.5079060000000  0.5270130000000  0.3946320000000 1.0
C      1  0.5066390000000  0.4527750000000  0.5293020000000 1.0
C      1  0.5295740000000  0.5112460000000  0.6056280000000 1.0
C      1  0.5150680000000  0.4432420000000  0.5787670000000 1.0
C      1  0.4087020000000  0.4735730000000  0.5566600000000 1.0
C      1  0.5669480000000  0.5607700000000  0.5485900000000 1.0
C      1  0.5070850000000  0.4970660000000  0.3909830000000 1.0
END
