TITL C-4164237-1827-576 1.95001068260409 125000 -17592.1146533525 0 0 119 (C1) n - 1
REM
REM in /home/nfs/bkarasulu/CARBON/AIRSS/Generating-Clusters/ReaxFF-fromJPCA2015/Units_Real/with-SteepDescent/Only-C1/SD-CG/Try1-3A/FIRE-CG
REM
REM
REM
REM
REM
REM ./C.cell (11c1c37f851c82e70ff6c80c92926a4b)
REM
REM compiler GCC version 9.2.1 20190827 (Red Hat 9.2.1-1)
REM options -cpp -mtune=generic -march=x86-64 -g -O0 -fpre-include=/usr/include/finclude/math-vector-fortran.h
REM seed -8007144 -146944949 49071676 378764955 -1447094284 75788858 -349208555 -1846175489 -1171407129 1204387807 -1483743978 2066240934 1312939053 -1774626364 -1475008590 -1182272903 770207832 -1852401743 -1054768864 -1165197596 1367903206 523349784 1336276910 -976738441 -475023994 443439865 305749270 1468611643 1098091555 1782114079 1019103579 -1356731426 1413911988
REM
CELL 1.54180   50.00000   50.00000   50.00000   90.00000   90.00000   90.00000
LATT -1
SFAC C  
C      1  0.4477050000000  0.4657750000000  0.5101140000000 1.0
C      1  0.5017950000000  0.4216910000000  0.5184910000000 1.0
C      1  0.5493840000000  0.5141450000000  0.5761250000000 1.0
C      1  0.4943780000000  0.5947100000000  0.5146010000000 1.0
C      1  0.4792280000000  0.5381220000000  0.5201260000000 1.0
C      1  0.4876000000000  0.5581860000000  0.5820700000000 1.0
C      1  0.4832180000000  0.4054490000000  0.4854150000000 1.0
C      1  0.5098140000000  0.5123540000000  0.5878220000000 1.0
C      1  0.4333560000000  0.5149650000000  0.5549340000000 1.0
C      1  0.4509790000000  0.5332260000000  0.4416070000000 1.0
C      1  0.4645700000000  0.5910270000000  0.5188350000000 1.0
C      1  0.4829060000000  0.4821960000000  0.4703680000000 1.0
C      1  0.5347250000000  0.4706370000000  0.4414180000000 1.0
C      1  0.4911290000000  0.5544620000000  0.5407680000000 1.0
C      1  0.5196570000000  0.5034190000000  0.4600240000000 1.0
C      1  0.5018340000000  0.5463610000000  0.4315730000000 1.0
C      1  0.4604860000000  0.5603150000000  0.4488980000000 1.0
C      1  0.4628820000000  0.4813240000000  0.4245970000000 1.0
C      1  0.4350670000000  0.5315820000000  0.5004620000000 1.0
C      1  0.4142360000000  0.5000940000000  0.4594010000000 1.0
C      1  0.4230140000000  0.5030760000000  0.5094880000000 1.0
C      1  0.4199450000000  0.4725410000000  0.4486340000000 1.0
C      1  0.4968520000000  0.4924610000000  0.4486920000000 1.0
C      1  0.4692300000000  0.4506750000000  0.5035800000000 1.0
C      1  0.5113070000000  0.5470030000000  0.4784690000000 1.0
C      1  0.5437310000000  0.4940450000000  0.5026710000000 1.0
C      1  0.5627860000000  0.4760230000000  0.4376790000000 1.0
C      1  0.5061440000000  0.3998800000000  0.4167750000000 1.0
C      1  0.4788350000000  0.4911040000000  0.5471230000000 1.0
C      1  0.5275820000000  0.5261250000000  0.5277490000000 1.0
C      1  0.5063100000000  0.4216390000000  0.5479370000000 1.0
C      1  0.5805750000000  0.5382200000000  0.4652380000000 1.0
C      1  0.5546890000000  0.4301760000000  0.4954960000000 1.0
C      1  0.4950040000000  0.4111780000000  0.4351590000000 1.0
C      1  0.4469800000000  0.5785500000000  0.4694090000000 1.0
C      1  0.5524470000000  0.5910930000000  0.4903020000000 1.0
C      1  0.4904100000000  0.4633550000000  0.4905560000000 1.0
C      1  0.4684880000000  0.5121150000000  0.4292130000000 1.0
C      1  0.5377370000000  0.4428270000000  0.4514150000000 1.0
C      1  0.4652490000000  0.5024810000000  0.5838720000000 1.0
C      1  0.5948850000000  0.5237540000000  0.4768420000000 1.0
C      1  0.5096410000000  0.4816440000000  0.4248680000000 1.0
C      1  0.4919820000000  0.4918660000000  0.5890560000000 1.0
C      1  0.4324620000000  0.5591610000000  0.5148920000000 1.0
C      1  0.5518010000000  0.4720510000000  0.4876420000000 1.0
C      1  0.4874840000000  0.5687220000000  0.4441830000000 1.0
C      1  0.4508110000000  0.5696440000000  0.5343250000000 1.0
C      1  0.5462110000000  0.4843570000000  0.5307690000000 1.0
C      1  0.4220830000000  0.4548760000000  0.5208830000000 1.0
C      1  0.5358230000000  0.4214480000000  0.5472350000000 1.0
C      1  0.5761660000000  0.5249270000000  0.5131510000000 1.0
C      1  0.4575180000000  0.4848710000000  0.5645770000000 1.0
C      1  0.5480360000000  0.5338810000000  0.5079150000000 1.0
C      1  0.4434860000000  0.4601630000000  0.5626680000000 1.0
C      1  0.4175100000000  0.5427400000000  0.4782160000000 1.0
C      1  0.4298840000000  0.4295450000000  0.5093060000000 1.0
C      1  0.5545680000000  0.5546820000000  0.5481620000000 1.0
C      1  0.5799300000000  0.4778400000000  0.4848480000000 1.0
C      1  0.5399080000000  0.5477720000000  0.4834590000000 1.0
C      1  0.5775590000000  0.5177310000000  0.5641350000000 1.0
C      1  0.4246970000000  0.5694280000000  0.4873180000000 1.0
C      1  0.4140420000000  0.4607850000000  0.4748660000000 1.0
C      1  0.5579430000000  0.5516870000000  0.4590140000000 1.0
C      1  0.5108910000000  0.5397630000000  0.5811590000000 1.0
C      1  0.5537280000000  0.5699630000000  0.4223490000000 1.0
C      1  0.4600970000000  0.5901750000000  0.4912020000000 1.0
C      1  0.4205950000000  0.4684940000000  0.5466850000000 1.0
C      1  0.4656510000000  0.5543520000000  0.5602040000000 1.0
C      1  0.5793100000000  0.4623170000000  0.4598810000000 1.0
C      1  0.4617790000000  0.5280440000000  0.4838130000000 1.0
C      1  0.5528120000000  0.5809360000000  0.5163270000000 1.0
C      1  0.4181050000000  0.4969710000000  0.5397200000000 1.0
C      1  0.4535070000000  0.5262210000000  0.5697440000000 1.0
C      1  0.5649740000000  0.4997670000000  0.4195260000000 1.0
C      1  0.4735780000000  0.4228010000000  0.5099450000000 1.0
C      1  0.4543080000000  0.4406460000000  0.4600660000000 1.0
C      1  0.5709470000000  0.4434780000000  0.5443300000000 1.0
C      1  0.5128120000000  0.4356880000000  0.4636350000000 1.0
C      1  0.4334090000000  0.4384520000000  0.4800070000000 1.0
C      1  0.4493610000000  0.4187650000000  0.5322260000000 1.0
C      1  0.5322460000000  0.4489880000000  0.4904140000000 1.0
C      1  0.5636200000000  0.4387250000000  0.4682070000000 1.0
C      1  0.5160140000000  0.5081370000000  0.4106690000000 1.0
C      1  0.5570640000000  0.4264950000000  0.5248610000000 1.0
C      1  0.5085700000000  0.5090170000000  0.5144880000000 1.0
C      1  0.5769050000000  0.5360490000000  0.5408530000000 1.0
C      1  0.5026600000000  0.4630930000000  0.5776480000000 1.0
C      1  0.5492960000000  0.4402410000000  0.5645350000000 1.0
C      1  0.5822780000000  0.4948410000000  0.5491660000000 1.0
C      1  0.4832910000000  0.4668270000000  0.4116280000000 1.0
C      1  0.4629800000000  0.4995280000000  0.4805960000000 1.0
C      1  0.5498690000000  0.5461980000000  0.4287910000000 1.0
C      1  0.5118010000000  0.4528430000000  0.5084870000000 1.0
C      1  0.5336040000000  0.5344880000000  0.5576250000000 1.0
C      1  0.5150450000000  0.5321680000000  0.4534840000000 1.0
C      1  0.5382000000000  0.5766120000000  0.5378260000000 1.0
C      1  0.4880040000000  0.4377210000000  0.5638910000000 1.0
C      1  0.4842240000000  0.4246670000000  0.4592320000000 1.0
C      1  0.5209840000000  0.4703940000000  0.5304140000000 1.0
C      1  0.4519590000000  0.4931220000000  0.5062710000000 1.0
C      1  0.5025930000000  0.5897300000000  0.4599570000000 1.0
C      1  0.5276940000000  0.5987390000000  0.4722920000000 1.0
C      1  0.4849900000000  0.5434540000000  0.4920020000000 1.0
C      1  0.5428430000000  0.5184540000000  0.4136080000000 1.0
C      1  0.5077570000000  0.5776460000000  0.5333800000000 1.0
C      1  0.4251890000000  0.5272910000000  0.4543440000000 1.0
C      1  0.4603840000000  0.4373960000000  0.5562550000000 1.0
C      1  0.4789190000000  0.5077830000000  0.5227870000000 1.0
C      1  0.5029620000000  0.6023100000000  0.4863850000000 1.0
C      1  0.5020010000000  0.4762230000000  0.5509070000000 1.0
C      1  0.5412670000000  0.4876740000000  0.5802160000000 1.0
C      1  0.5334460000000  0.4611570000000  0.5796970000000 1.0
C      1  0.5902580000000  0.5039610000000  0.4959850000000 1.0
C      1  0.4920080000000  0.5238690000000  0.4155200000000 1.0
C      1  0.4467020000000  0.4617250000000  0.4425820000000 1.0
C      1  0.5063780000000  0.3957460000000  0.4979280000000 1.0
C      1  0.5734920000000  0.4722820000000  0.5358050000000 1.0
C      1  0.4101310000000  0.4883620000000  0.4858080000000 1.0
C      1  0.5198090000000  0.5010260000000  0.4891960000000 1.0
END
