TITL C-4164243-3780-625 14.5120954777996 125000 -22719.3996845676 0 0 153 (C1) n - 1
REM
REM in /home/nfs/bkarasulu/CARBON/AIRSS/Generating-Clusters/ReaxFF-fromJPCA2015/Units_Real/with-SteepDescent/Only-C1/SD-CG/Try1-3A/FIRE-CG
REM
REM
REM
REM
REM
REM ./C.cell (11c1c37f851c82e70ff6c80c92926a4b)
REM
REM compiler GCC version 9.2.1 20190827 (Red Hat 9.2.1-1)
REM options -cpp -mtune=generic -march=x86-64 -g -O0 -fpre-include=/usr/include/finclude/math-vector-fortran.h
REM seed 367031980 1452749788 1871378463 -1419385553 648295507 -1918921966 -1833013613 669216570 -1443496767 859140785 -754447978 570205107 -1390254007 246454072 -1446457447 -627534430 -1690278380 1783958970 398885145 1306258393 1642654127 118175623 1670542523 -1366345214 -585019167 859901357 -377179120 1122633630 540249406 1649620079 1555273714 1543771378 119816617
REM
CELL 1.54180   50.00000   50.00000   50.00000   90.00000   90.00000   90.00000
LATT -1
SFAC C  
C      1  0.4541050000000  0.5218970000000  0.5366910000000 1.0
C      1  0.4040110000000  0.4908790000000  0.4848200000000 1.0
C      1  0.4358890000000  0.4413590000000  0.4367210000000 1.0
C      1  0.5283610000000  0.5639770000000  0.4458250000000 1.0
C      1  0.4811630000000  0.4079180000000  0.5239300000000 1.0
C      1  0.3999830000000  0.5134870000000  0.4625430000000 1.0
C      1  0.4365920000000  0.4754810000000  0.5990980000000 1.0
C      1  0.5571090000000  0.4465460000000  0.4349530000000 1.0
C      1  0.5009450000000  0.5739040000000  0.4461070000000 1.0
C      1  0.5949140000000  0.4564620000000  0.4948690000000 1.0
C      1  0.5403440000000  0.4996500000000  0.5920030000000 1.0
C      1  0.4599230000000  0.5833500000000  0.4602020000000 1.0
C      1  0.4676640000000  0.4953960000000  0.5372250000000 1.0
C      1  0.5592060000000  0.4693220000000  0.4152740000000 1.0
C      1  0.4562410000000  0.5218730000000  0.5903880000000 1.0
C      1  0.4754550000000  0.5658410000000  0.5623470000000 1.0
C      1  0.5346940000000  0.5359090000000  0.4605100000000 1.0
C      1  0.5562990000000  0.4723580000000  0.5219930000000 1.0
C      1  0.5326240000000  0.4324180000000  0.4378970000000 1.0
C      1  0.4206680000000  0.5206480000000  0.5338290000000 1.0
C      1  0.5508370000000  0.5605770000000  0.5728460000000 1.0
C      1  0.4472920000000  0.4900840000000  0.5033450000000 1.0
C      1  0.5522540000000  0.5912200000000  0.4806200000000 1.0
C      1  0.4557460000000  0.4507110000000  0.5008240000000 1.0
C      1  0.5196020000000  0.4808660000000  0.5013780000000 1.0
C      1  0.4544760000000  0.5425140000000  0.4258060000000 1.0
C      1  0.4911680000000  0.5689940000000  0.4971510000000 1.0
C      1  0.5072480000000  0.5258330000000  0.4059420000000 1.0
C      1  0.4830000000000  0.4194170000000  0.4360520000000 1.0
C      1  0.4526520000000  0.4132030000000  0.4724200000000 1.0
C      1  0.5942310000000  0.5045930000000  0.5172630000000 1.0
C      1  0.4344580000000  0.4334260000000  0.5132910000000 1.0
C      1  0.4276620000000  0.5684140000000  0.5317450000000 1.0
C      1  0.4534620000000  0.4512550000000  0.6014860000000 1.0
C      1  0.5332430000000  0.4595640000000  0.5126700000000 1.0
C      1  0.5842490000000  0.5496260000000  0.4926920000000 1.0
C      1  0.4991550000000  0.4586950000000  0.4701370000000 1.0
C      1  0.4799240000000  0.4084600000000  0.4826450000000 1.0
C      1  0.5503220000000  0.5844670000000  0.4520760000000 1.0
C      1  0.4099200000000  0.4930590000000  0.4438210000000 1.0
C      1  0.4554350000000  0.4201030000000  0.4435930000000 1.0
C      1  0.5253820000000  0.5111470000000  0.5059910000000 1.0
C      1  0.5672160000000  0.4534380000000  0.4623030000000 1.0
C      1  0.5260540000000  0.5017700000000  0.5619830000000 1.0
C      1  0.5699580000000  0.4951050000000  0.4170040000000 1.0
C      1  0.5629280000000  0.5310470000000  0.4494840000000 1.0
C      1  0.4288620000000  0.4261300000000  0.4831520000000 1.0
C      1  0.5661290000000  0.4818740000000  0.4710730000000 1.0
C      1  0.5697190000000  0.4104320000000  0.4861810000000 1.0
C      1  0.5479160000000  0.5913810000000  0.4227740000000 1.0
C      1  0.4656810000000  0.4603200000000  0.4005700000000 1.0
C      1  0.4135920000000  0.4566450000000  0.5256770000000 1.0
C      1  0.5352330000000  0.4895400000000  0.4498680000000 1.0
C      1  0.4890510000000  0.4195620000000  0.5679190000000 1.0
C      1  0.4432660000000  0.4626930000000  0.4187400000000 1.0
C      1  0.5022020000000  0.4465040000000  0.4287660000000 1.0
C      1  0.5586110000000  0.5203420000000  0.4222510000000 1.0
C      1  0.4608170000000  0.4164530000000  0.5600300000000 1.0
C      1  0.4382810000000  0.4906080000000  0.4315970000000 1.0
C      1  0.4548030000000  0.4160710000000  0.5314310000000 1.0
C      1  0.5226690000000  0.5559450000000  0.5668680000000 1.0
C      1  0.4696420000000  0.5320760000000  0.4677060000000 1.0
C      1  0.5262250000000  0.4152870000000  0.4597440000000 1.0
C      1  0.5696250000000  0.4929160000000  0.5039210000000 1.0
C      1  0.5298810000000  0.4211010000000  0.5390780000000 1.0
C      1  0.4057160000000  0.4705570000000  0.4613180000000 1.0
C      1  0.5184120000000  0.5130570000000  0.4536230000000 1.0
C      1  0.4859970000000  0.5700890000000  0.4216910000000 1.0
C      1  0.4314080000000  0.5771430000000  0.5024880000000 1.0
C      1  0.5323030000000  0.4481730000000  0.5786840000000 1.0
C      1  0.4836310000000  0.4834950000000  0.4035560000000 1.0
C      1  0.5853780000000  0.5336830000000  0.4675760000000 1.0
C      1  0.4141510000000  0.5553220000000  0.4936800000000 1.0
C      1  0.4499850000000  0.4994290000000  0.6092660000000 1.0
C      1  0.5726190000000  0.5006110000000  0.5602650000000 1.0
C      1  0.5833900000000  0.5444040000000  0.5396260000000 1.0
C      1  0.4584930000000  0.5689150000000  0.4326510000000 1.0
C      1  0.4566500000000  0.4586470000000  0.5595610000000 1.0
C      1  0.5145250000000  0.5513910000000  0.5058960000000 1.0
C      1  0.4700200000000  0.5261650000000  0.5112870000000 1.0
C      1  0.5674600000000  0.5114250000000  0.5870820000000 1.0
C      1  0.4404870000000  0.5677040000000  0.5587030000000 1.0
C      1  0.5073120000000  0.5550080000000  0.4071980000000 1.0
C      1  0.5125180000000  0.5301210000000  0.5255310000000 1.0
C      1  0.5474920000000  0.4359680000000  0.5565700000000 1.0
C      1  0.5298330000000  0.6051110000000  0.4955620000000 1.0
C      1  0.4844990000000  0.5908600000000  0.5197910000000 1.0
C      1  0.5581000000000  0.5396360000000  0.5936720000000 1.0
C      1  0.4530420000000  0.4809140000000  0.4556140000000 1.0
C      1  0.4740070000000  0.6077160000000  0.4988450000000 1.0
C      1  0.5675070000000  0.5736430000000  0.4983870000000 1.0
C      1  0.5334390000000  0.5659820000000  0.4156000000000 1.0
C      1  0.4475470000000  0.4709160000000  0.4817150000000 1.0
C      1  0.4819340000000  0.4501070000000  0.5087890000000 1.0
C      1  0.4809530000000  0.4596700000000  0.6027470000000 1.0
C      1  0.4988680000000  0.4462380000000  0.5803310000000 1.0
C      1  0.5681850000000  0.5682870000000  0.5502160000000 1.0
C      1  0.5018740000000  0.6137330000000  0.4892810000000 1.0
C      1  0.5313170000000  0.4810930000000  0.4170300000000 1.0
C      1  0.4939830000000  0.4248510000000  0.5038790000000 1.0
C      1  0.5256410000000  0.5335780000000  0.4878220000000 1.0
C      1  0.4927140000000  0.4743140000000  0.4992790000000 1.0
C      1  0.4907020000000  0.5139300000000  0.4580710000000 1.0
C      1  0.5972670000000  0.5341460000000  0.5142990000000 1.0
C      1  0.5973990000000  0.4926860000000  0.5439340000000 1.0
C      1  0.5320220000000  0.5105770000000  0.4095150000000 1.0
C      1  0.4813510000000  0.5078700000000  0.5838390000000 1.0
C      1  0.5962900000000  0.4639460000000  0.5533210000000 1.0
C      1  0.4931560000000  0.4749450000000  0.4296740000000 1.0
C      1  0.5029860000000  0.4106370000000  0.5450780000000 1.0
C      1  0.5334790000000  0.5970230000000  0.5233790000000 1.0
C      1  0.4780850000000  0.4886740000000  0.6059540000000 1.0
C      1  0.4798970000000  0.5123750000000  0.4041930000000 1.0
C      1  0.4148500000000  0.5388130000000  0.4688170000000 1.0
C      1  0.4409280000000  0.5244410000000  0.4689040000000 1.0
C      1  0.5758520000000  0.4434720000000  0.5456990000000 1.0
C      1  0.5187080000000  0.5296300000000  0.5535760000000 1.0
C      1  0.4114350000000  0.5455700000000  0.5226790000000 1.0
C      1  0.4504210000000  0.5926290000000  0.4860180000000 1.0
C      1  0.4352810000000  0.4765710000000  0.5695840000000 1.0
C      1  0.3989790000000  0.4779100000000  0.5126120000000 1.0
C      1  0.6041050000000  0.5097280000000  0.4707650000000 1.0
C      1  0.5598560000000  0.5330540000000  0.5309710000000 1.0
C      1  0.5777930000000  0.4522380000000  0.5179540000000 1.0
C      1  0.4889830000000  0.4422760000000  0.4030020000000 1.0
C      1  0.4715690000000  0.5462540000000  0.4926440000000 1.0
C      1  0.4798140000000  0.4890870000000  0.4500450000000 1.0
C      1  0.4297460000000  0.5070650000000  0.4896090000000 1.0
C      1  0.4411600000000  0.5459010000000  0.5780810000000 1.0
C      1  0.5277720000000  0.4303600000000  0.5102920000000 1.0
C      1  0.5381370000000  0.5277080000000  0.6111020000000 1.0
C      1  0.4046030000000  0.4967620000000  0.5355920000000 1.0
C      1  0.4127450000000  0.4714160000000  0.5510480000000 1.0
C      1  0.5415260000000  0.4689140000000  0.5959950000000 1.0
C      1  0.5029320000000  0.5770630000000  0.5606870000000 1.0
C      1  0.4967960000000  0.4086660000000  0.4588200000000 1.0
C      1  0.5245160000000  0.4705240000000  0.4693960000000 1.0
C      1  0.4196530000000  0.4444350000000  0.4614130000000 1.0
C      1  0.5854050000000  0.4354900000000  0.4780340000000 1.0
C      1  0.5162060000000  0.4528510000000  0.4053320000000 1.0
C      1  0.5523730000000  0.5133440000000  0.5134770000000 1.0
C      1  0.4714640000000  0.5427770000000  0.5495440000000 1.0
C      1  0.5492550000000  0.4897250000000  0.5494020000000 1.0
C      1  0.4866840000000  0.5788330000000  0.4683920000000 1.0
C      1  0.4545610000000  0.5169870000000  0.4178090000000 1.0
C      1  0.5576160000000  0.5806610000000  0.5252880000000 1.0
C      1  0.5407090000000  0.4142050000000  0.4859670000000 1.0
C      1  0.4849300000000  0.4641900000000  0.5602430000000 1.0
C      1  0.4466190000000  0.4364550000000  0.5763730000000 1.0
C      1  0.4893610000000  0.4930820000000  0.5578280000000 1.0
C      1  0.5955780000000  0.4821490000000  0.4744660000000 1.0
C      1  0.4733230000000  0.4979310000000  0.5099590000000 1.0
C      1  0.5074600000000  0.5939210000000  0.5373690000000 1.0
END
