TITL C-4164237-1827-343 67.354814057857 125000 -15014.3725085342 0 0 102 (C1) n - 1
REM
REM in /home/nfs/bkarasulu/CARBON/AIRSS/Generating-Clusters/ReaxFF-fromJPCA2015/Units_Real/with-SteepDescent/Only-C1/SD-CG/Try1-3A/FIRE-CG
REM
REM
REM
REM
REM
REM ./C.cell (11c1c37f851c82e70ff6c80c92926a4b)
REM
REM compiler GCC version 9.2.1 20190827 (Red Hat 9.2.1-1)
REM options -cpp -mtune=generic -march=x86-64 -g -O0 -fpre-include=/usr/include/finclude/math-vector-fortran.h
REM seed 694138991 -360596160 -1931281716 -1285412666 -1492841648 -19535770 283660792 1172240067 -1986436927 361432607 -513312216 1611217445 939295449 1398044364 -1724447409 -1355795237 1361762197 1242350447 -657769189 -929935278 -716341283 1210765018 5748015 -2128994181 591912041 457019105 -773908194 1836336733 -272188041 -1887971267 -831964631 -98705314 -1659639907
REM
CELL 1.54180   50.00000   50.00000   50.00000   90.00000   90.00000   90.00000
LATT -1
SFAC C  
C      1  0.4801110000000  0.5459340000000  0.5791520000000 1.0
C      1  0.4755690000000  0.5043120000000  0.4092450000000 1.0
C      1  0.4133260000000  0.4583560000000  0.4803990000000 1.0
C      1  0.4790830000000  0.4526790000000  0.4943820000000 1.0
C      1  0.4773290000000  0.4071570000000  0.4869340000000 1.0
C      1  0.4137020000000  0.4865700000000  0.4821180000000 1.0
C      1  0.4627300000000  0.4648040000000  0.5774990000000 1.0
C      1  0.5759760000000  0.4956090000000  0.5475520000000 1.0
C      1  0.4448850000000  0.4922830000000  0.5175100000000 1.0
C      1  0.4746860000000  0.5171750000000  0.5820180000000 1.0
C      1  0.5529760000000  0.5869690000000  0.5138400000000 1.0
C      1  0.4235040000000  0.5134390000000  0.5125930000000 1.0
C      1  0.4825090000000  0.4765410000000  0.4131140000000 1.0
C      1  0.5331570000000  0.5482960000000  0.4446030000000 1.0
C      1  0.5242860000000  0.4197070000000  0.5306200000000 1.0
C      1  0.4643120000000  0.4583290000000  0.4289400000000 1.0
C      1  0.5583860000000  0.5670050000000  0.5359150000000 1.0
C      1  0.5366370000000  0.4693320000000  0.4851100000000 1.0
C      1  0.4428020000000  0.4677230000000  0.5318480000000 1.0
C      1  0.4490250000000  0.5400150000000  0.4550190000000 1.0
C      1  0.5531570000000  0.4486200000000  0.4948050000000 1.0
C      1  0.4345900000000  0.4988050000000  0.4368530000000 1.0
C      1  0.5772980000000  0.4627830000000  0.5051740000000 1.0
C      1  0.4388100000000  0.5329380000000  0.5568340000000 1.0
C      1  0.5569800000000  0.4469300000000  0.4383990000000 1.0
C      1  0.4564260000000  0.5557570000000  0.5645630000000 1.0
C      1  0.5041210000000  0.5647610000000  0.4908810000000 1.0
C      1  0.4447220000000  0.4802710000000  0.5583950000000 1.0
C      1  0.4968880000000  0.5412050000000  0.5263620000000 1.0
C      1  0.5223400000000  0.5769720000000  0.4523200000000 1.0
C      1  0.4500610000000  0.5380320000000  0.4810190000000 1.0
C      1  0.4745150000000  0.5308720000000  0.5113000000000 1.0
C      1  0.5285210000000  0.5360830000000  0.5651220000000 1.0
C      1  0.4857970000000  0.4772690000000  0.5442350000000 1.0
C      1  0.4746850000000  0.5654390000000  0.4349800000000 1.0
C      1  0.5148080000000  0.5288120000000  0.4607240000000 1.0
C      1  0.5599110000000  0.4502300000000  0.5448770000000 1.0
C      1  0.4648700000000  0.4340880000000  0.4451810000000 1.0
C      1  0.4517800000000  0.5158450000000  0.4211190000000 1.0
C      1  0.5205510000000  0.5841250000000  0.4780150000000 1.0
C      1  0.5267880000000  0.4476760000000  0.4412420000000 1.0
C      1  0.5291540000000  0.5039130000000  0.5267600000000 1.0
C      1  0.5621730000000  0.4946540000000  0.5716060000000 1.0
C      1  0.4983000000000  0.4861460000000  0.5071930000000 1.0
C      1  0.4542200000000  0.5468420000000  0.4295070000000 1.0
C      1  0.5841320000000  0.4843260000000  0.4869140000000 1.0
C      1  0.5347730000000  0.5227690000000  0.5050110000000 1.0
C      1  0.4734930000000  0.4163020000000  0.5139390000000 1.0
C      1  0.4942140000000  0.5658210000000  0.5429640000000 1.0
C      1  0.5107770000000  0.4318430000000  0.4607670000000 1.0
C      1  0.4348970000000  0.4393140000000  0.4899580000000 1.0
C      1  0.5556670000000  0.5419870000000  0.5487010000000 1.0
C      1  0.4380470000000  0.4700250000000  0.4347660000000 1.0
C      1  0.5082710000000  0.5002770000000  0.4560680000000 1.0
C      1  0.4945640000000  0.4304570000000  0.5589150000000 1.0
C      1  0.5137750000000  0.4743690000000  0.5500720000000 1.0
C      1  0.5228890000000  0.5330560000000  0.4194920000000 1.0
C      1  0.5394110000000  0.4339390000000  0.5535340000000 1.0
C      1  0.4742390000000  0.4727420000000  0.4772830000000 1.0
C      1  0.5783810000000  0.4679520000000  0.5347830000000 1.0
C      1  0.5617320000000  0.5444820000000  0.4602760000000 1.0
C      1  0.4849150000000  0.4175680000000  0.4593460000000 1.0
C      1  0.5829770000000  0.5133080000000  0.4947820000000 1.0
C      1  0.5211050000000  0.4767850000000  0.5215750000000 1.0
C      1  0.5148290000000  0.4868390000000  0.4828780000000 1.0
C      1  0.5465770000000  0.5871580000000  0.4839450000000 1.0
C      1  0.4980110000000  0.5004060000000  0.5897780000000 1.0
C      1  0.5145460000000  0.5240170000000  0.5411310000000 1.0
C      1  0.4544690000000  0.5643710000000  0.4882760000000 1.0
C      1  0.4242990000000  0.5250960000000  0.4854630000000 1.0
C      1  0.5166760000000  0.4488970000000  0.5656940000000 1.0
C      1  0.4959240000000  0.4148850000000  0.5342410000000 1.0
C      1  0.4894970000000  0.4735810000000  0.5845790000000 1.0
C      1  0.5050780000000  0.5554000000000  0.5677630000000 1.0
C      1  0.4759880000000  0.4936990000000  0.4596170000000 1.0
C      1  0.4509870000000  0.5082720000000  0.5671340000000 1.0
C      1  0.5061040000000  0.4390090000000  0.4885020000000 1.0
C      1  0.5480770000000  0.4958360000000  0.5902780000000 1.0
C      1  0.5260150000000  0.4785370000000  0.4366070000000 1.0
C      1  0.4543550000000  0.4434070000000  0.5117650000000 1.0
C      1  0.5260770000000  0.5114540000000  0.5863080000000 1.0
C      1  0.4928990000000  0.5801820000000  0.4493650000000 1.0
C      1  0.5735210000000  0.5683900000000  0.5090080000000 1.0
C      1  0.5622810000000  0.5255820000000  0.5082390000000 1.0
C      1  0.5664210000000  0.5648320000000  0.4798440000000 1.0
C      1  0.4199950000000  0.5057130000000  0.4634610000000 1.0
C      1  0.4218850000000  0.4518860000000  0.4520070000000 1.0
C      1  0.4744300000000  0.4516270000000  0.5535550000000 1.0
C      1  0.5113590000000  0.4833220000000  0.4109270000000 1.0
C      1  0.5070460000000  0.5126490000000  0.4075140000000 1.0
C      1  0.5148710000000  0.5374020000000  0.4883260000000 1.0
C      1  0.4306960000000  0.5358580000000  0.5293810000000 1.0
C      1  0.5719270000000  0.5219430000000  0.5339040000000 1.0
C      1  0.4741770000000  0.5017800000000  0.5172520000000 1.0
C      1  0.4529380000000  0.5542830000000  0.5179960000000 1.0
C      1  0.5740960000000  0.4917110000000  0.4601820000000 1.0
C      1  0.5765950000000  0.5205850000000  0.4656050000000 1.0
C      1  0.5294110000000  0.4319860000000  0.5048210000000 1.0
C      1  0.4800470000000  0.5727990000000  0.4766980000000 1.0
C      1  0.5574090000000  0.4768770000000  0.4401120000000 1.0
C      1  0.4655260000000  0.5696310000000  0.5412660000000 1.0
C      1  0.4402460000000  0.4314760000000  0.4615540000000 1.0
END
