TITL C-4164239-2837-442 22.7678623491294 125000 -9618.58728459756 0 0 66 (C1) n - 1
REM
REM in /home/nfs/bkarasulu/CARBON/AIRSS/Generating-Clusters/ReaxFF-fromJPCA2015/Units_Real/with-SteepDescent/Only-C1/SD-CG/Try1-3A/FIRE-CG
REM
REM
REM
REM
REM
REM ./C.cell (11c1c37f851c82e70ff6c80c92926a4b)
REM
REM compiler GCC version 9.2.1 20190827 (Red Hat 9.2.1-1)
REM options -cpp -mtune=generic -march=x86-64 -g -O0 -fpre-include=/usr/include/finclude/math-vector-fortran.h
REM seed 1726302076 1679430487 -2089791124 265462787 -698711926 1291480981 -1573931703 -1025919459 829843898 1770136950 -559052593 -1784808225 -1539740992 304771878 -222367471 904359493 -1447722377 1353196490 152729512 -1871185778 507611448 73215073 -790494512 -1203195163 -1316315012 1961452043 186155069 -1277474291 554414338 -716137748 39023138 740336038 -328127927
REM
CELL 1.54180   50.00000   50.00000   50.00000   90.00000   90.00000   90.00000
LATT -1
SFAC C  
C      1  0.5125070000000  0.4586790000000  0.4488470000000 1.0
C      1  0.5155670000000  0.5735970000000  0.5269430000000 1.0
C      1  0.5643860000000  0.4640130000000  0.5564800000000 1.0
C      1  0.5402660000000  0.5577210000000  0.5286100000000 1.0
C      1  0.5291410000000  0.4394160000000  0.5291240000000 1.0
C      1  0.4752710000000  0.5638090000000  0.5288860000000 1.0
C      1  0.5007330000000  0.4385040000000  0.5384140000000 1.0
C      1  0.5397890000000  0.4886760000000  0.5318810000000 1.0
C      1  0.4904170000000  0.4822650000000  0.4754930000000 1.0
C      1  0.5480590000000  0.4681830000000  0.4853720000000 1.0
C      1  0.5138170000000  0.5419430000000  0.4327120000000 1.0
C      1  0.4610590000000  0.4369290000000  0.5225750000000 1.0
C      1  0.4478870000000  0.4934390000000  0.4420310000000 1.0
C      1  0.4268410000000  0.4977640000000  0.5184080000000 1.0
C      1  0.5760830000000  0.5136060000000  0.4796900000000 1.0
C      1  0.4370280000000  0.4779160000000  0.5362800000000 1.0
C      1  0.4943020000000  0.5535790000000  0.4515940000000 1.0
C      1  0.5571530000000  0.4861370000000  0.5071990000000 1.0
C      1  0.5282850000000  0.4491100000000  0.4994800000000 1.0
C      1  0.4952470000000  0.5714440000000  0.5484670000000 1.0
C      1  0.5404120000000  0.4993150000000  0.4448350000000 1.0
C      1  0.5224130000000  0.5533400000000  0.4554000000000 1.0
C      1  0.5437260000000  0.5345770000000  0.5123730000000 1.0
C      1  0.5313810000000  0.5517190000000  0.5762340000000 1.0
C      1  0.4354570000000  0.5382250000000  0.4888910000000 1.0
C      1  0.4940200000000  0.5006400000000  0.4256660000000 1.0
C      1  0.4555070000000  0.4565300000000  0.5444400000000 1.0
C      1  0.5147280000000  0.4967720000000  0.5177250000000 1.0
C      1  0.4726000000000  0.5002070000000  0.4898140000000 1.0
C      1  0.4476010000000  0.5425990000000  0.4672390000000 1.0
C      1  0.4685120000000  0.5131540000000  0.4358130000000 1.0
C      1  0.4746730000000  0.5271210000000  0.5002320000000 1.0
C      1  0.5061000000000  0.4310020000000  0.4912540000000 1.0
C      1  0.5510090000000  0.5327400000000  0.5689020000000 1.0
C      1  0.5018320000000  0.4347790000000  0.4632850000000 1.0
C      1  0.5662900000000  0.5146980000000  0.5058580000000 1.0
C      1  0.4678060000000  0.4805630000000  0.5100030000000 1.0
C      1  0.4843340000000  0.4610770000000  0.5482730000000 1.0
C      1  0.5361440000000  0.4739330000000  0.4585950000000 1.0
C      1  0.5493680000000  0.5566350000000  0.5553160000000 1.0
C      1  0.4749850000000  0.4328880000000  0.4598290000000 1.0
C      1  0.4943130000000  0.5678450000000  0.5070380000000 1.0
C      1  0.4901060000000  0.5294560000000  0.5615580000000 1.0
C      1  0.4356930000000  0.5269630000000  0.5143990000000 1.0
C      1  0.5499620000000  0.4492480000000  0.5442780000000 1.0
C      1  0.4935170000000  0.4719510000000  0.4300020000000 1.0
C      1  0.4292260000000  0.4804490000000  0.4946480000000 1.0
C      1  0.4696700000000  0.4604040000000  0.4596190000000 1.0
C      1  0.5219410000000  0.5272970000000  0.4957310000000 1.0
C      1  0.5363450000000  0.5363140000000  0.4722960000000 1.0
C      1  0.4517670000000  0.4561140000000  0.5007080000000 1.0
C      1  0.4642440000000  0.4713210000000  0.4314790000000 1.0
C      1  0.5023910000000  0.5523410000000  0.5708430000000 1.0
C      1  0.4628500000000  0.5347640000000  0.5271940000000 1.0
C      1  0.5574620000000  0.5192850000000  0.4591910000000 1.0
C      1  0.4755950000000  0.5136610000000  0.5472340000000 1.0
C      1  0.4682160000000  0.5398590000000  0.4478080000000 1.0
C      1  0.5663670000000  0.4870830000000  0.5633350000000 1.0
C      1  0.4861000000000  0.4874860000000  0.5330950000000 1.0
C      1  0.5198900000000  0.5134740000000  0.4296300000000 1.0
C      1  0.4330980000000  0.4898860000000  0.4680750000000 1.0
C      1  0.4971960000000  0.5428390000000  0.4913310000000 1.0
C      1  0.5090480000000  0.4777900000000  0.4962820000000 1.0
C      1  0.4541490000000  0.4409830000000  0.4751990000000 1.0
C      1  0.5502830000000  0.5063240000000  0.5559200000000 1.0
C      1  0.4878360000000  0.4276170000000  0.5146430000000 1.0
END
