TITL C-4164247-2821-129 0.832892095154348 125000 -28226.2106202935 0 0 189 (C1) n - 1
REM
REM in /home/nfs/bkarasulu/CARBON/AIRSS/Generating-Clusters/ReaxFF-fromJPCA2015/Units_Real/with-SteepDescent/Only-C1/SD-CG/Try1-3A/FIRE-CG
REM
REM
REM
REM
REM
REM ./C.cell (11c1c37f851c82e70ff6c80c92926a4b)
REM
REM compiler GCC version 9.2.1 20190827 (Red Hat 9.2.1-1)
REM options -cpp -mtune=generic -march=x86-64 -g -O0 -fpre-include=/usr/include/finclude/math-vector-fortran.h
REM seed -350494938 810433907 -1510364836 1652579034 286061377 2056569036 -534781269 -1722678498 1607799146 -299090381 231370657 -1272084552 -198396964 848811078 -1558566267 180960825 -1575030070 -1275044391 454648869 -932645936 -1389784846 -82527297 -1671399973 -1877636066 -521796994 1863538750 -1719521276 1901874067 175765751 -1190727840 -588300895 -2060484274 -901409512
REM
CELL 1.54180   50.00000   50.00000   50.00000   90.00000   90.00000   90.00000
LATT -1
SFAC C  
C      1  0.5473690000000  0.4282380000000  0.4594310000000 1.0
C      1  0.4714210000000  0.4192790000000  0.4173800000000 1.0
C      1  0.4861880000000  0.4504380000000  0.5429140000000 1.0
C      1  0.5817660000000  0.5031880000000  0.4134970000000 1.0
C      1  0.4869940000000  0.5188310000000  0.3905740000000 1.0
C      1  0.4214100000000  0.5403010000000  0.5664720000000 1.0
C      1  0.4932400000000  0.5082380000000  0.5322280000000 1.0
C      1  0.5252760000000  0.4571280000000  0.4804360000000 1.0
C      1  0.4619800000000  0.4217240000000  0.5713180000000 1.0
C      1  0.4361650000000  0.4347600000000  0.4872680000000 1.0
C      1  0.6093660000000  0.4947580000000  0.5059590000000 1.0
C      1  0.5085690000000  0.4928670000000  0.6062810000000 1.0
C      1  0.5528950000000  0.4999450000000  0.5845660000000 1.0
C      1  0.5700970000000  0.4457480000000  0.5054130000000 1.0
C      1  0.3979730000000  0.5370310000000  0.5489700000000 1.0
C      1  0.5022250000000  0.3872950000000  0.5098250000000 1.0
C      1  0.5310080000000  0.4946120000000  0.3929480000000 1.0
C      1  0.3903170000000  0.4724430000000  0.5287710000000 1.0
C      1  0.4877470000000  0.4673800000000  0.3970170000000 1.0
C      1  0.5338480000000  0.4203630000000  0.5192800000000 1.0
C      1  0.3934660000000  0.5142940000000  0.5337630000000 1.0
C      1  0.4512480000000  0.5975480000000  0.5396640000000 1.0
C      1  0.4284880000000  0.5804420000000  0.5412110000000 1.0
C      1  0.5079380000000  0.4420640000000  0.4322400000000 1.0
C      1  0.4219230000000  0.4596510000000  0.5708410000000 1.0
C      1  0.4861950000000  0.4459510000000  0.5096540000000 1.0
C      1  0.5347300000000  0.4816790000000  0.6008390000000 1.0
C      1  0.5027500000000  0.5821280000000  0.4145510000000 1.0
C      1  0.6052490000000  0.5223760000000  0.4601090000000 1.0
C      1  0.4415260000000  0.5424630000000  0.4953000000000 1.0
C      1  0.5916600000000  0.4998620000000  0.4444020000000 1.0
C      1  0.4584350000000  0.3779500000000  0.4890120000000 1.0
C      1  0.4138350000000  0.4737130000000  0.5470120000000 1.0
C      1  0.4856680000000  0.4175030000000  0.5523480000000 1.0
C      1  0.4857440000000  0.4226890000000  0.4950120000000 1.0
C      1  0.5313680000000  0.4483100000000  0.4158030000000 1.0
C      1  0.4707990000000  0.5051590000000  0.4431760000000 1.0
C      1  0.6125380000000  0.5185950000000  0.4884320000000 1.0
C      1  0.5615680000000  0.5810700000000  0.4733780000000 1.0
C      1  0.5782190000000  0.4766800000000  0.4111850000000 1.0
C      1  0.4861980000000  0.3952580000000  0.4831790000000 1.0
C      1  0.4560150000000  0.5623690000000  0.4766100000000 1.0
C      1  0.4515620000000  0.5088780000000  0.5472610000000 1.0
C      1  0.5710380000000  0.4569070000000  0.5638070000000 1.0
C      1  0.4542870000000  0.4102080000000  0.4387130000000 1.0
C      1  0.5305790000000  0.5822090000000  0.4235730000000 1.0
C      1  0.5061470000000  0.5711230000000  0.5127530000000 1.0
C      1  0.5979420000000  0.4708430000000  0.4469280000000 1.0
C      1  0.4325680000000  0.5131230000000  0.4816410000000 1.0
C      1  0.5768080000000  0.5388940000000  0.5563790000000 1.0
C      1  0.4712810000000  0.5245700000000  0.5349170000000 1.0
C      1  0.4962530000000  0.5535950000000  0.4179510000000 1.0
C      1  0.3944210000000  0.5535220000000  0.5296600000000 1.0
C      1  0.5922160000000  0.5029210000000  0.5710230000000 1.0
C      1  0.5207370000000  0.4277110000000  0.5918620000000 1.0
C      1  0.4824000000000  0.3960460000000  0.5289910000000 1.0
C      1  0.4561660000000  0.6069900000000  0.5124920000000 1.0
C      1  0.5909900000000  0.5297920000000  0.5317050000000 1.0
C      1  0.4555580000000  0.4994280000000  0.4187160000000 1.0
C      1  0.4849270000000  0.5253530000000  0.4880100000000 1.0
C      1  0.5705870000000  0.5527280000000  0.4372130000000 1.0
C      1  0.4707540000000  0.5607150000000  0.5660500000000 1.0
C      1  0.3874860000000  0.4534410000000  0.5033670000000 1.0
C      1  0.5120310000000  0.5734010000000  0.5892240000000 1.0
C      1  0.4122760000000  0.5657640000000  0.4684120000000 1.0
C      1  0.5083370000000  0.5215490000000  0.5980270000000 1.0
C      1  0.4399150000000  0.5612440000000  0.5588250000000 1.0
C      1  0.4827990000000  0.4549530000000  0.5831710000000 1.0
C      1  0.4927810000000  0.5920460000000  0.5267560000000 1.0
C      1  0.5031140000000  0.4739670000000  0.4871220000000 1.0
C      1  0.4975050000000  0.4928990000000  0.4415650000000 1.0
C      1  0.5040770000000  0.3999610000000  0.4570790000000 1.0
C      1  0.5621360000000  0.4884850000000  0.5337950000000 1.0
C      1  0.5406090000000  0.5346690000000  0.4016130000000 1.0
C      1  0.4738040000000  0.4932520000000  0.3960690000000 1.0
C      1  0.4796470000000  0.6071180000000  0.4777400000000 1.0
C      1  0.5394740000000  0.4476450000000  0.5060950000000 1.0
C      1  0.4263920000000  0.5051230000000  0.5876650000000 1.0
C      1  0.4799130000000  0.5436070000000  0.4679750000000 1.0
C      1  0.5743260000000  0.5212760000000  0.5810730000000 1.0
C      1  0.5370800000000  0.4775740000000  0.5213530000000 1.0
C      1  0.5763950000000  0.5770010000000  0.4976310000000 1.0
C      1  0.4997000000000  0.5483850000000  0.4467130000000 1.0
C      1  0.4397660000000  0.4384740000000  0.5562590000000 1.0
C      1  0.5390760000000  0.4772630000000  0.4651330000000 1.0
C      1  0.4957310000000  0.4141950000000  0.4328970000000 1.0
C      1  0.5347410000000  0.4135870000000  0.5481050000000 1.0
C      1  0.5807030000000  0.4552060000000  0.4289160000000 1.0
C      1  0.4681860000000  0.4467970000000  0.4064810000000 1.0
C      1  0.4791720000000  0.4697760000000  0.4947110000000 1.0
C      1  0.5361920000000  0.6116500000000  0.5011360000000 1.0
C      1  0.5378380000000  0.5269840000000  0.5453930000000 1.0
C      1  0.4962940000000  0.5473190000000  0.5564200000000 1.0
C      1  0.6036930000000  0.5398050000000  0.5060940000000 1.0
C      1  0.5800390000000  0.4311270000000  0.5524620000000 1.0
C      1  0.4541790000000  0.5336570000000  0.6011240000000 1.0
C      1  0.4923960000000  0.4646500000000  0.4425970000000 1.0
C      1  0.4550650000000  0.4283640000000  0.4632370000000 1.0
C      1  0.5083070000000  0.5021050000000  0.4858290000000 1.0
C      1  0.5583480000000  0.4168820000000  0.5657510000000 1.0
C      1  0.4173200000000  0.5606160000000  0.4972330000000 1.0
C      1  0.5124450000000  0.4161210000000  0.5661700000000 1.0
C      1  0.5743310000000  0.4234400000000  0.4647020000000 1.0
C      1  0.4001640000000  0.4337730000000  0.5195640000000 1.0
C      1  0.4585420000000  0.4591470000000  0.5430990000000 1.0
C      1  0.6028740000000  0.4588250000000  0.4729200000000 1.0
C      1  0.5950060000000  0.5588870000000  0.4856360000000 1.0
C      1  0.4404270000000  0.5197210000000  0.5721820000000 1.0
C      1  0.4659830000000  0.5320930000000  0.5080490000000 1.0
C      1  0.5474470000000  0.5023780000000  0.5556370000000 1.0
C      1  0.5537290000000  0.4418310000000  0.4333610000000 1.0
C      1  0.4555500000000  0.5019760000000  0.4676720000000 1.0
C      1  0.6146390000000  0.4486950000000  0.5205790000000 1.0
C      1  0.5234520000000  0.5927680000000  0.4524170000000 1.0
C      1  0.5858580000000  0.5025890000000  0.5236350000000 1.0
C      1  0.4090350000000  0.5722240000000  0.5209600000000 1.0
C      1  0.5291640000000  0.5946050000000  0.5485760000000 1.0
C      1  0.4046000000000  0.5392260000000  0.4285880000000 1.0
C      1  0.4785110000000  0.5910210000000  0.5535000000000 1.0
C      1  0.5176110000000  0.4692660000000  0.3995680000000 1.0
C      1  0.4554280000000  0.4825210000000  0.6095500000000 1.0
C      1  0.5183420000000  0.5213220000000  0.5234310000000 1.0
C      1  0.4473570000000  0.4568710000000  0.4244200000000 1.0
C      1  0.5214440000000  0.5665690000000  0.5602630000000 1.0
C      1  0.4087550000000  0.5153310000000  0.4623430000000 1.0
C      1  0.3993930000000  0.4956800000000  0.5134970000000 1.0
C      1  0.4266600000000  0.5054650000000  0.4186170000000 1.0
C      1  0.5357370000000  0.4516220000000  0.6027660000000 1.0
C      1  0.4569160000000  0.4745170000000  0.4761770000000 1.0
C      1  0.6011300000000  0.4248900000000  0.4695050000000 1.0
C      1  0.4057100000000  0.4665320000000  0.4499400000000 1.0
C      1  0.5414400000000  0.5447810000000  0.4970990000000 1.0
C      1  0.4782550000000  0.5909080000000  0.4303380000000 1.0
C      1  0.4640470000000  0.4566710000000  0.4492850000000 1.0
C      1  0.5006550000000  0.5493250000000  0.6043620000000 1.0
C      1  0.5438160000000  0.5512670000000  0.4682150000000 1.0
C      1  0.5013590000000  0.4945740000000  0.5557750000000 1.0
C      1  0.6179540000000  0.4680230000000  0.4987600000000 1.0
C      1  0.5495260000000  0.4278000000000  0.5923680000000 1.0
C      1  0.5673680000000  0.5066710000000  0.4625310000000 1.0
C      1  0.5517870000000  0.5520560000000  0.5470690000000 1.0
C      1  0.4927120000000  0.6018290000000  0.4524050000000 1.0
C      1  0.4372050000000  0.5722040000000  0.4547660000000 1.0
C      1  0.4847550000000  0.4744620000000  0.6038050000000 1.0
C      1  0.4523840000000  0.5751370000000  0.4294730000000 1.0
C      1  0.5969100000000  0.4765900000000  0.5620340000000 1.0
C      1  0.4097820000000  0.4955180000000  0.4412070000000 1.0
C      1  0.4735140000000  0.5547080000000  0.5967000000000 1.0
C      1  0.5163460000000  0.5196520000000  0.3910130000000 1.0
C      1  0.5236020000000  0.5020070000000  0.4554400000000 1.0
C      1  0.5778020000000  0.4655680000000  0.4868220000000 1.0
C      1  0.4951240000000  0.5950120000000  0.5805560000000 1.0
C      1  0.4310470000000  0.4231810000000  0.4487550000000 1.0
C      1  0.4846430000000  0.6126780000000  0.5078370000000 1.0
C      1  0.4341020000000  0.4634370000000  0.4899610000000 1.0
C      1  0.5916690000000  0.5479490000000  0.4564980000000 1.0
C      1  0.6124870000000  0.4693760000000  0.5393860000000 1.0
C      1  0.4564170000000  0.3917390000000  0.5139020000000 1.0
C      1  0.5204400000000  0.5644640000000  0.4591940000000 1.0
C      1  0.5163150000000  0.4696910000000  0.5482420000000 1.0
C      1  0.4251710000000  0.5346010000000  0.4101620000000 1.0
C      1  0.4490950000000  0.5531290000000  0.4106900000000 1.0
C      1  0.5883490000000  0.4339410000000  0.5243920000000 1.0
C      1  0.5361940000000  0.6130270000000  0.5296970000000 1.0
C      1  0.3982710000000  0.5429260000000  0.4558400000000 1.0
C      1  0.5424250000000  0.4613390000000  0.5596020000000 1.0
C      1  0.4226890000000  0.4470150000000  0.4356720000000 1.0
C      1  0.5313290000000  0.5824540000000  0.5055710000000 1.0
C      1  0.5443000000000  0.6033030000000  0.4736690000000 1.0
C      1  0.4275770000000  0.4882570000000  0.5036320000000 1.0
C      1  0.5481450000000  0.5580900000000  0.4193410000000 1.0
C      1  0.5030400000000  0.5210950000000  0.5695390000000 1.0
C      1  0.5157190000000  0.5451030000000  0.5082730000000 1.0
C      1  0.4554890000000  0.5935190000000  0.4860440000000 1.0
C      1  0.5544800000000  0.5643780000000  0.5150120000000 1.0
C      1  0.5263730000000  0.4011220000000  0.4997620000000 1.0
C      1  0.4747080000000  0.5434140000000  0.4008590000000 1.0
C      1  0.5598500000000  0.4865530000000  0.4804740000000 1.0
C      1  0.4305880000000  0.4775060000000  0.5925530000000 1.0
C      1  0.4221490000000  0.4234520000000  0.5332860000000 1.0
C      1  0.5276040000000  0.4074600000000  0.4702450000000 1.0
C      1  0.4360770000000  0.4153570000000  0.5094000000000 1.0
C      1  0.5454650000000  0.5236630000000  0.4546520000000 1.0
C      1  0.4415950000000  0.4838670000000  0.5348220000000 1.0
C      1  0.3941990000000  0.4599210000000  0.4757550000000 1.0
C      1  0.5311570000000  0.5004300000000  0.5043200000000 1.0
C      1  0.4569280000000  0.5099340000000  0.6134640000000 1.0
C      1  0.4693570000000  0.4379140000000  0.5926450000000 1.0
C      1  0.5565000000000  0.5103520000000  0.4005420000000 1.0
END
