TITL C-4164243-3780-530 31.4400384615074 125000 -18510.6172596273 0 0 124 (C1) n - 1
REM
REM in /home/nfs/bkarasulu/CARBON/AIRSS/Generating-Clusters/ReaxFF-fromJPCA2015/Units_Real/with-SteepDescent/Only-C1/SD-CG/Try1-3A/FIRE-CG
REM
REM
REM
REM
REM
REM ./C.cell (11c1c37f851c82e70ff6c80c92926a4b)
REM
REM compiler GCC version 9.2.1 20190827 (Red Hat 9.2.1-1)
REM options -cpp -mtune=generic -march=x86-64 -g -O0 -fpre-include=/usr/include/finclude/math-vector-fortran.h
REM seed -1800666473 -1794867178 1058658978 -346021727 142349685 -761187156 45616851 1759258247 1842707416 -1969739279 1998964449 -2059432429 -1729298592 -1550165678 -1837361205 -506119201 -1879323428 726838884 -1021672456 -769420748 -677648966 1808667669 -511025556 -637018428 -1508359012 1545597438 932407960 179282309 -2094994972 -148317834 866703268 446347871 -707508162
REM
CELL 1.54180   50.00000   50.00000   50.00000   90.00000   90.00000   90.00000
LATT -1
SFAC C  
C      1  0.5017370000000  0.4500380000000  0.5202680000000 1.0
C      1  0.4401890000000  0.5307100000000  0.4734630000000 1.0
C      1  0.5134240000000  0.4537990000000  0.5734800000000 1.0
C      1  0.4383560000000  0.5431260000000  0.5564560000000 1.0
C      1  0.4966060000000  0.4253010000000  0.4454350000000 1.0
C      1  0.4486090000000  0.5717670000000  0.4897450000000 1.0
C      1  0.5588430000000  0.4972720000000  0.4288890000000 1.0
C      1  0.4925740000000  0.5094460000000  0.5568540000000 1.0
C      1  0.5321130000000  0.4894830000000  0.4225810000000 1.0
C      1  0.4907900000000  0.4943480000000  0.4249500000000 1.0
C      1  0.5503130000000  0.4674000000000  0.4569100000000 1.0
C      1  0.5151970000000  0.4113120000000  0.5258180000000 1.0
C      1  0.4113050000000  0.5473690000000  0.5207250000000 1.0
C      1  0.5033880000000  0.5916570000000  0.4803480000000 1.0
C      1  0.4258150000000  0.5133620000000  0.4891290000000 1.0
C      1  0.4978730000000  0.5722390000000  0.5031700000000 1.0
C      1  0.4352510000000  0.4364420000000  0.5318160000000 1.0
C      1  0.5548330000000  0.4877660000000  0.5761720000000 1.0
C      1  0.5791550000000  0.4976590000000  0.4763990000000 1.0
C      1  0.5839990000000  0.5484000000000  0.5205690000000 1.0
C      1  0.5645230000000  0.5423230000000  0.4806730000000 1.0
C      1  0.5626450000000  0.5425690000000  0.4523340000000 1.0
C      1  0.5244820000000  0.4003460000000  0.4825760000000 1.0
C      1  0.5482380000000  0.4467880000000  0.4405000000000 1.0
C      1  0.4563940000000  0.4735620000000  0.4726940000000 1.0
C      1  0.5907070000000  0.5408730000000  0.4933520000000 1.0
C      1  0.5063440000000  0.4773720000000  0.5272090000000 1.0
C      1  0.5763760000000  0.4556230000000  0.5089600000000 1.0
C      1  0.4275540000000  0.4890250000000  0.5618140000000 1.0
C      1  0.4691110000000  0.4616710000000  0.5833050000000 1.0
C      1  0.4843660000000  0.5476130000000  0.5813230000000 1.0
C      1  0.5435660000000  0.5792580000000  0.5072180000000 1.0
C      1  0.5027230000000  0.5678140000000  0.4418620000000 1.0
C      1  0.5565820000000  0.4921890000000  0.4925720000000 1.0
C      1  0.5387630000000  0.4702290000000  0.4822690000000 1.0
C      1  0.4765330000000  0.4078460000000  0.4859820000000 1.0
C      1  0.4527810000000  0.4544530000000  0.5428120000000 1.0
C      1  0.4258960000000  0.5400280000000  0.4499190000000 1.0
C      1  0.4408100000000  0.5694460000000  0.5417600000000 1.0
C      1  0.4894320000000  0.5440380000000  0.4940550000000 1.0
C      1  0.4823070000000  0.5306720000000  0.5175490000000 1.0
C      1  0.5256880000000  0.4608800000000  0.4271150000000 1.0
C      1  0.4656510000000  0.5790130000000  0.5379720000000 1.0
C      1  0.5809130000000  0.5182440000000  0.5262630000000 1.0
C      1  0.5019390000000  0.4006350000000  0.5010050000000 1.0
C      1  0.4498640000000  0.4444720000000  0.4620370000000 1.0
C      1  0.4731200000000  0.5085630000000  0.5769460000000 1.0
C      1  0.5858690000000  0.4781290000000  0.5283330000000 1.0
C      1  0.6007290000000  0.5130680000000  0.4885670000000 1.0
C      1  0.4595490000000  0.5354190000000  0.5772520000000 1.0
C      1  0.4253720000000  0.4783320000000  0.4313950000000 1.0
C      1  0.5318600000000  0.5855880000000  0.4801090000000 1.0
C      1  0.5597880000000  0.5257970000000  0.4283850000000 1.0
C      1  0.5226200000000  0.5648260000000  0.5152320000000 1.0
C      1  0.4182810000000  0.5281190000000  0.5426650000000 1.0
C      1  0.4744360000000  0.4676510000000  0.4943890000000 1.0
C      1  0.4026270000000  0.4754830000000  0.4868360000000 1.0
C      1  0.4986740000000  0.4496790000000  0.4286750000000 1.0
C      1  0.5323020000000  0.5298760000000  0.5877930000000 1.0
C      1  0.5514150000000  0.4730440000000  0.5511500000000 1.0
C      1  0.4297590000000  0.5041370000000  0.4177290000000 1.0
C      1  0.5318750000000  0.5331240000000  0.4230500000000 1.0
C      1  0.5190690000000  0.5111060000000  0.5523620000000 1.0
C      1  0.5478170000000  0.4187510000000  0.4848910000000 1.0
C      1  0.4942880000000  0.5438410000000  0.4287340000000 1.0
C      1  0.5863750000000  0.4479380000000  0.4535140000000 1.0
C      1  0.5124730000000  0.5516700000000  0.5829400000000 1.0
C      1  0.5532520000000  0.5598360000000  0.5548170000000 1.0
C      1  0.5017030000000  0.4570470000000  0.4912650000000 1.0
C      1  0.5091210000000  0.5040620000000  0.4721600000000 1.0
C      1  0.4469160000000  0.5584800000000  0.4417810000000 1.0
C      1  0.4488650000000  0.4610660000000  0.4340470000000 1.0
C      1  0.4822790000000  0.4856660000000  0.5933280000000 1.0
C      1  0.5402710000000  0.5353270000000  0.4978550000000 1.0
C      1  0.4049060000000  0.4922570000000  0.4490600000000 1.0
C      1  0.4033820000000  0.5006010000000  0.4763770000000 1.0
C      1  0.5276060000000  0.5694250000000  0.5634520000000 1.0
C      1  0.4298720000000  0.5699680000000  0.5129720000000 1.0
C      1  0.5008480000000  0.5300780000000  0.5389680000000 1.0
C      1  0.4888130000000  0.5037890000000  0.4521840000000 1.0
C      1  0.5458100000000  0.4234030000000  0.4557990000000 1.0
C      1  0.4768910000000  0.4387730000000  0.5397880000000 1.0
C      1  0.5101240000000  0.4786450000000  0.5895570000000 1.0
C      1  0.4610640000000  0.5456060000000  0.4867110000000 1.0
C      1  0.5174620000000  0.5808560000000  0.5387280000000 1.0
C      1  0.5203330000000  0.4095490000000  0.4545980000000 1.0
C      1  0.4178760000000  0.4963200000000  0.5339540000000 1.0
C      1  0.4664440000000  0.5393030000000  0.4288770000000 1.0
C      1  0.5366480000000  0.4485690000000  0.5553010000000 1.0
C      1  0.5143830000000  0.4801460000000  0.4837920000000 1.0
C      1  0.5753350000000  0.4810240000000  0.4511960000000 1.0
C      1  0.5622680000000  0.5661100000000  0.5269970000000 1.0
C      1  0.5562460000000  0.5367080000000  0.5736710000000 1.0
C      1  0.4112880000000  0.5179570000000  0.4359000000000 1.0
C      1  0.4739920000000  0.4236860000000  0.4623330000000 1.0
C      1  0.5498070000000  0.5111390000000  0.5138530000000 1.0
C      1  0.5339530000000  0.5452030000000  0.4513990000000 1.0
C      1  0.4654600000000  0.5088170000000  0.5183210000000 1.0
C      1  0.5562740000000  0.4342840000000  0.5088800000000 1.0
C      1  0.5381500000000  0.4295050000000  0.5323550000000 1.0
C      1  0.4345970000000  0.4329610000000  0.4857150000000 1.0
C      1  0.4849590000000  0.5842270000000  0.4585910000000 1.0
C      1  0.5815150000000  0.5001720000000  0.5483040000000 1.0
C      1  0.5318080000000  0.4920210000000  0.5349980000000 1.0
C      1  0.4612710000000  0.4974790000000  0.4562830000000 1.0
C      1  0.4076920000000  0.4712240000000  0.5124700000000 1.0
C      1  0.5127610000000  0.5118700000000  0.4151910000000 1.0
C      1  0.4513130000000  0.4134700000000  0.4994220000000 1.0
C      1  0.4868650000000  0.4444020000000  0.5681370000000 1.0
C      1  0.4806220000000  0.4849960000000  0.5167770000000 1.0
C      1  0.6015040000000  0.4981920000000  0.5134820000000 1.0
C      1  0.5706740000000  0.5109660000000  0.5718390000000 1.0
C      1  0.4893600000000  0.5872890000000  0.5315130000000 1.0
C      1  0.4376620000000  0.5050050000000  0.5131170000000 1.0
C      1  0.5290330000000  0.5727380000000  0.4542540000000 1.0
C      1  0.4557470000000  0.4171640000000  0.5280210000000 1.0
C      1  0.4539620000000  0.5119230000000  0.4322860000000 1.0
C      1  0.4763660000000  0.4678650000000  0.4239310000000 1.0
C      1  0.4450140000000  0.4658880000000  0.5672440000000 1.0
C      1  0.5176670000000  0.5309880000000  0.4791630000000 1.0
C      1  0.4563550000000  0.5781240000000  0.4613880000000 1.0
C      1  0.5827260000000  0.4537400000000  0.4812820000000 1.0
C      1  0.4190560000000  0.4443390000000  0.5079740000000 1.0
C      1  0.5309760000000  0.4997340000000  0.5890850000000 1.0
END
