TITL C-4164232-771-647 17.7457484944253 125000 -19018.500417209 0 0 128 (C1) n - 1
REM
REM in /home/nfs/bkarasulu/CARBON/AIRSS/Generating-Clusters/ReaxFF-fromJPCA2015/Units_Real/with-SteepDescent/Only-C1/SD-CG/Try1-3A/FIRE-CG
REM
REM
REM
REM
REM
REM ./C.cell (11c1c37f851c82e70ff6c80c92926a4b)
REM
REM compiler GCC version 9.2.1 20190827 (Red Hat 9.2.1-1)
REM options -cpp -mtune=generic -march=x86-64 -g -O0 -fpre-include=/usr/include/finclude/math-vector-fortran.h
REM seed 793693585 -754471713 1766267519 -609647508 -1834824593 1404557989 2100832713 13465122 -2057784536 1364965748 1786878951 689483018 1577160334 -656426939 -836654820 176230523 -1325420961 -802866357 -1105216052 -1625312362 -743742315 1586449663 -1410422175 -1325579967 1750021541 129665293 -1977550227 218334216 2113443934 51322502 839244000 2115987070 1929883406
REM
CELL 1.54180   50.00000   50.00000   50.00000   90.00000   90.00000   90.00000
LATT -1
SFAC C  
C      1  0.4335620000000  0.4748370000000  0.5374780000000 1.0
C      1  0.5793310000000  0.5548620000000  0.5322590000000 1.0
C      1  0.5140630000000  0.4646710000000  0.5338880000000 1.0
C      1  0.5128810000000  0.4398620000000  0.5508770000000 1.0
C      1  0.5582810000000  0.4535730000000  0.5414910000000 1.0
C      1  0.4569370000000  0.4392080000000  0.5513470000000 1.0
C      1  0.4632210000000  0.4684380000000  0.5407410000000 1.0
C      1  0.5126980000000  0.5233830000000  0.5346080000000 1.0
C      1  0.4274100000000  0.5283210000000  0.5514010000000 1.0
C      1  0.4354610000000  0.4797790000000  0.5697960000000 1.0
C      1  0.4970060000000  0.5305270000000  0.5105910000000 1.0
C      1  0.4836630000000  0.5096320000000  0.5077660000000 1.0
C      1  0.4600380000000  0.4693940000000  0.4736650000000 1.0
C      1  0.5930280000000  0.5095000000000  0.4749770000000 1.0
C      1  0.5662060000000  0.4582320000000  0.4354330000000 1.0
C      1  0.5491940000000  0.4363080000000  0.4313180000000 1.0
C      1  0.4856810000000  0.5133210000000  0.5965960000000 1.0
C      1  0.5512170000000  0.4195070000000  0.4542670000000 1.0
C      1  0.5627720000000  0.5098670000000  0.5829670000000 1.0
C      1  0.4393600000000  0.4355600000000  0.5087040000000 1.0
C      1  0.4992650000000  0.5298350000000  0.4198420000000 1.0
C      1  0.4528140000000  0.4666280000000  0.4440390000000 1.0
C      1  0.5702130000000  0.5424460000000  0.5569170000000 1.0
C      1  0.5457520000000  0.5474290000000  0.5066170000000 1.0
C      1  0.4152790000000  0.5197410000000  0.5254480000000 1.0
C      1  0.4884370000000  0.5893950000000  0.4660420000000 1.0
C      1  0.5135240000000  0.4651150000000  0.4321950000000 1.0
C      1  0.5230030000000  0.4395700000000  0.4255280000000 1.0
C      1  0.5061930000000  0.4189790000000  0.4357110000000 1.0
C      1  0.4135100000000  0.4907840000000  0.4491480000000 1.0
C      1  0.4972300000000  0.4422400000000  0.5761670000000 1.0
C      1  0.4078060000000  0.5425220000000  0.5039290000000 1.0
C      1  0.5763690000000  0.5352760000000  0.4693090000000 1.0
C      1  0.4865480000000  0.4654840000000  0.4219750000000 1.0
C      1  0.5026210000000  0.4675040000000  0.5890760000000 1.0
C      1  0.4971620000000  0.4857790000000  0.5036640000000 1.0
C      1  0.5097940000000  0.5903780000000  0.5144920000000 1.0
C      1  0.4678190000000  0.4480290000000  0.4301740000000 1.0
C      1  0.4042180000000  0.4686990000000  0.4702740000000 1.0
C      1  0.5378970000000  0.5758790000000  0.5504630000000 1.0
C      1  0.5024030000000  0.5786300000000  0.4891460000000 1.0
C      1  0.5171880000000  0.4699010000000  0.4666700000000 1.0
C      1  0.4515520000000  0.4402840000000  0.4826350000000 1.0
C      1  0.4548540000000  0.5640370000000  0.4467790000000 1.0
C      1  0.4545330000000  0.5135580000000  0.4275360000000 1.0
C      1  0.4459250000000  0.5819440000000  0.4949800000000 1.0
C      1  0.5445050000000  0.5565300000000  0.5683750000000 1.0
C      1  0.5019220000000  0.5467770000000  0.4854590000000 1.0
C      1  0.5159430000000  0.5032730000000  0.5546040000000 1.0
C      1  0.5892220000000  0.4893520000000  0.5376070000000 1.0
C      1  0.4880680000000  0.5650190000000  0.5365540000000 1.0
C      1  0.5381410000000  0.5880460000000  0.5256170000000 1.0
C      1  0.4598230000000  0.5826830000000  0.4684910000000 1.0
C      1  0.5863380000000  0.4611880000000  0.5440920000000 1.0
C      1  0.4880110000000  0.5300810000000  0.4629120000000 1.0
C      1  0.4199520000000  0.4561810000000  0.5188540000000 1.0
C      1  0.5629680000000  0.4872450000000  0.4391750000000 1.0
C      1  0.4801310000000  0.4837970000000  0.5962230000000 1.0
C      1  0.4711480000000  0.5745130000000  0.4244580000000 1.0
C      1  0.5225570000000  0.4857500000000  0.5750130000000 1.0
C      1  0.5403430000000  0.4699200000000  0.5250170000000 1.0
C      1  0.5140480000000  0.4201380000000  0.5301000000000 1.0
C      1  0.4665520000000  0.4195930000000  0.4690470000000 1.0
C      1  0.5296190000000  0.5474260000000  0.4705770000000 1.0
C      1  0.5825460000000  0.4863050000000  0.4611250000000 1.0
C      1  0.5596780000000  0.5700060000000  0.5156860000000 1.0
C      1  0.5327970000000  0.4274250000000  0.5093420000000 1.0
C      1  0.5493150000000  0.5307190000000  0.4833150000000 1.0
C      1  0.4570370000000  0.4224710000000  0.5282750000000 1.0
C      1  0.5149190000000  0.4384150000000  0.4867870000000 1.0
C      1  0.4431420000000  0.5087960000000  0.5690430000000 1.0
C      1  0.3956030000000  0.5204580000000  0.4880060000000 1.0
C      1  0.5530570000000  0.4891320000000  0.5052490000000 1.0
C      1  0.5180270000000  0.4859010000000  0.4070550000000 1.0
C      1  0.4911710000000  0.4771690000000  0.4764880000000 1.0
C      1  0.5340110000000  0.5076880000000  0.5924430000000 1.0
C      1  0.5779290000000  0.5134520000000  0.5581670000000 1.0
C      1  0.4390080000000  0.5175150000000  0.4716760000000 1.0
C      1  0.5853130000000  0.4869060000000  0.5088950000000 1.0
C      1  0.5380630000000  0.5036490000000  0.4493270000000 1.0
C      1  0.5390050000000  0.5319490000000  0.5273820000000 1.0
C      1  0.5670270000000  0.4334560000000  0.4744140000000 1.0
C      1  0.4590660000000  0.5322490000000  0.4520450000000 1.0
C      1  0.3972130000000  0.5003630000000  0.5088020000000 1.0
C      1  0.4893770000000  0.4880720000000  0.4022450000000 1.0
C      1  0.4846970000000  0.4142650000000  0.5164410000000 1.0
C      1  0.4593170000000  0.5615910000000  0.5306130000000 1.0
C      1  0.4260790000000  0.5622860000000  0.4982740000000 1.0
C      1  0.4441000000000  0.5513770000000  0.5539030000000 1.0
C      1  0.4632360000000  0.5271230000000  0.5867450000000 1.0
C      1  0.5358260000000  0.4920090000000  0.4767550000000 1.0
C      1  0.4404300000000  0.4990260000000  0.5160020000000 1.0
C      1  0.5251600000000  0.4059090000000  0.4539240000000 1.0
C      1  0.4762840000000  0.5142100000000  0.4090240000000 1.0
C      1  0.5416690000000  0.5685040000000  0.4541450000000 1.0
C      1  0.4904900000000  0.4402190000000  0.5028750000000 1.0
C      1  0.5120400000000  0.5272880000000  0.5927490000000 1.0
C      1  0.4786380000000  0.4253530000000  0.4428540000000 1.0
C      1  0.4835840000000  0.4035110000000  0.4870560000000 1.0
C      1  0.4026260000000  0.4722150000000  0.5020030000000 1.0
C      1  0.4380940000000  0.4897290000000  0.4333610000000 1.0
C      1  0.5804580000000  0.4559010000000  0.4607040000000 1.0
C      1  0.5159990000000  0.5510470000000  0.5766590000000 1.0
C      1  0.5593320000000  0.5138400000000  0.5230740000000 1.0
C      1  0.4650520000000  0.5117250000000  0.5268660000000 1.0
C      1  0.4672280000000  0.4959250000000  0.5511460000000 1.0
C      1  0.5616760000000  0.4301510000000  0.5034130000000 1.0
C      1  0.4451870000000  0.4940440000000  0.4872360000000 1.0
C      1  0.4868300000000  0.5922280000000  0.5344300000000 1.0
C      1  0.5466890000000  0.5253310000000  0.4281070000000 1.0
C      1  0.5696130000000  0.5602070000000  0.4516990000000 1.0
C      1  0.4107080000000  0.5158820000000  0.4628080000000 1.0
C      1  0.4679500000000  0.4418340000000  0.5778610000000 1.0
C      1  0.5254480000000  0.5434850000000  0.4177620000000 1.0
C      1  0.4663030000000  0.5521840000000  0.5737940000000 1.0
C      1  0.4565940000000  0.4683370000000  0.5862540000000 1.0
C      1  0.4918850000000  0.5639600000000  0.5643580000000 1.0
C      1  0.4598930000000  0.5886730000000  0.5209040000000 1.0
C      1  0.4887680000000  0.4637670000000  0.5192250000000 1.0
C      1  0.6013570000000  0.5105770000000  0.5030780000000 1.0
C      1  0.3942640000000  0.4457240000000  0.4706140000000 1.0
C      1  0.5838800000000  0.5289140000000  0.5193470000000 1.0
C      1  0.5229230000000  0.5697810000000  0.4315380000000 1.0
C      1  0.5778040000000  0.4381500000000  0.5265380000000 1.0
C      1  0.4973260000000  0.5820650000000  0.4385050000000 1.0
C      1  0.5101970000000  0.4094510000000  0.4780960000000 1.0
C      1  0.5716500000000  0.5364010000000  0.4369950000000 1.0
C      1  0.5062030000000  0.5173450000000  0.4454030000000 1.0
END
