TITL C-4164244-2836-225 19.8012162425466 125000 -22921.4718843511 0 0 155 (C1) n - 1
REM
REM in /home/nfs/bkarasulu/CARBON/AIRSS/Generating-Clusters/ReaxFF-fromJPCA2015/Units_Real/with-SteepDescent/Only-C1/SD-CG/Try1-3A/FIRE-CG
REM
REM
REM
REM
REM
REM ./C.cell (11c1c37f851c82e70ff6c80c92926a4b)
REM
REM compiler GCC version 9.2.1 20190827 (Red Hat 9.2.1-1)
REM options -cpp -mtune=generic -march=x86-64 -g -O0 -fpre-include=/usr/include/finclude/math-vector-fortran.h
REM seed 2001649963 -1469983201 -1785289294 1147868154 1006480400 -2019181071 546316043 -567194935 -2048677065 -306617500 716205739 446034467 -1978896690 -888011314 -1207425222 -1900832502 -138960251 -1259664965 149668505 1230579792 1557422109 -1778015509 161187218 967082410 277533372 1446431690 1430773246 368133547 1797976142 -619970575 1126503677 1538700409 -893408309
REM
CELL 1.54180   50.00000   50.00000   50.00000   90.00000   90.00000   90.00000
LATT -1
SFAC C  
C      1  0.5219110000000  0.5433800000000  0.5914000000000 1.0
C      1  0.4676070000000  0.4615990000000  0.3979580000000 1.0
C      1  0.4055640000000  0.5423340000000  0.5021690000000 1.0
C      1  0.5259170000000  0.5718630000000  0.5815630000000 1.0
C      1  0.4955800000000  0.4260120000000  0.5685320000000 1.0
C      1  0.4290790000000  0.4446290000000  0.5583400000000 1.0
C      1  0.5745660000000  0.5600730000000  0.4489570000000 1.0
C      1  0.5131190000000  0.4627030000000  0.5513700000000 1.0
C      1  0.4556650000000  0.5241440000000  0.5934430000000 1.0
C      1  0.4086160000000  0.5036710000000  0.4747830000000 1.0
C      1  0.4285530000000  0.4613280000000  0.4653700000000 1.0
C      1  0.5946960000000  0.5169790000000  0.4519150000000 1.0
C      1  0.5047990000000  0.4702100000000  0.4417610000000 1.0
C      1  0.4601700000000  0.4500330000000  0.5071110000000 1.0
C      1  0.5468610000000  0.4949720000000  0.5790270000000 1.0
C      1  0.4332610000000  0.5142190000000  0.4097980000000 1.0
C      1  0.5483710000000  0.5209870000000  0.5166490000000 1.0
C      1  0.5637220000000  0.4665050000000  0.4371770000000 1.0
C      1  0.5076040000000  0.5285960000000  0.5459400000000 1.0
C      1  0.4742120000000  0.4602020000000  0.4870490000000 1.0
C      1  0.5983540000000  0.5249680000000  0.5341950000000 1.0
C      1  0.5567130000000  0.5146440000000  0.5425980000000 1.0
C      1  0.5044080000000  0.5838320000000  0.5638810000000 1.0
C      1  0.4104210000000  0.5162240000000  0.5462450000000 1.0
C      1  0.5941050000000  0.4993040000000  0.5484960000000 1.0
C      1  0.4189020000000  0.4865210000000  0.4543300000000 1.0
C      1  0.5620630000000  0.4804660000000  0.5013500000000 1.0
C      1  0.4684080000000  0.5391650000000  0.5179870000000 1.0
C      1  0.4483190000000  0.5519930000000  0.5964740000000 1.0
C      1  0.5158370000000  0.5056150000000  0.4927520000000 1.0
C      1  0.4720600000000  0.4581870000000  0.4410530000000 1.0
C      1  0.5076080000000  0.4965040000000  0.5153420000000 1.0
C      1  0.4809530000000  0.5048690000000  0.4668430000000 1.0
C      1  0.4565860000000  0.5814920000000  0.5438000000000 1.0
C      1  0.4510240000000  0.4558650000000  0.5748180000000 1.0
C      1  0.4260950000000  0.5595950000000  0.5773100000000 1.0
C      1  0.4662190000000  0.4896430000000  0.5365150000000 1.0
C      1  0.5201420000000  0.4529380000000  0.4617880000000 1.0
C      1  0.4637810000000  0.5894670000000  0.5160830000000 1.0
C      1  0.5424130000000  0.5708790000000  0.4871970000000 1.0
C      1  0.4905320000000  0.5047660000000  0.5870490000000 1.0
C      1  0.5850710000000  0.5527980000000  0.5367500000000 1.0
C      1  0.4754990000000  0.5806480000000  0.5680560000000 1.0
C      1  0.4879920000000  0.4058540000000  0.5466530000000 1.0
C      1  0.4738300000000  0.5301390000000  0.4291000000000 1.0
C      1  0.5623550000000  0.4319120000000  0.5624480000000 1.0
C      1  0.5021830000000  0.4412460000000  0.4810620000000 1.0
C      1  0.4812750000000  0.4528510000000  0.5762050000000 1.0
C      1  0.5224210000000  0.4273070000000  0.5729090000000 1.0
C      1  0.5176920000000  0.4290600000000  0.5090380000000 1.0
C      1  0.5741390000000  0.5638420000000  0.5129700000000 1.0
C      1  0.4546590000000  0.5316070000000  0.4051430000000 1.0
C      1  0.5603570000000  0.5318460000000  0.5663830000000 1.0
C      1  0.5211610000000  0.3998580000000  0.4751230000000 1.0
C      1  0.5431530000000  0.5222600000000  0.5877880000000 1.0
C      1  0.5134980000000  0.6061210000000  0.4790280000000 1.0
C      1  0.5233400000000  0.5634700000000  0.5209730000000 1.0
C      1  0.4970320000000  0.3941860000000  0.4935780000000 1.0
C      1  0.5714410000000  0.4441640000000  0.4721540000000 1.0
C      1  0.5479410000000  0.5060580000000  0.4906890000000 1.0
C      1  0.5532740000000  0.5796230000000  0.5734250000000 1.0
C      1  0.4081010000000  0.4663830000000  0.5128530000000 1.0
C      1  0.5218060000000  0.4711100000000  0.4156600000000 1.0
C      1  0.4385630000000  0.4822600000000  0.5752500000000 1.0
C      1  0.4901350000000  0.5759940000000  0.4273540000000 1.0
C      1  0.4917460000000  0.4463910000000  0.4013060000000 1.0
C      1  0.4233210000000  0.4164470000000  0.5197260000000 1.0
C      1  0.5621780000000  0.5787090000000  0.4660910000000 1.0
C      1  0.4692580000000  0.4278300000000  0.4423080000000 1.0
C      1  0.4644430000000  0.4850600000000  0.3811050000000 1.0
C      1  0.4447580000000  0.4104310000000  0.4710780000000 1.0
C      1  0.5966800000000  0.4734750000000  0.5352680000000 1.0
C      1  0.4613890000000  0.5797770000000  0.4576120000000 1.0
C      1  0.5663850000000  0.4244460000000  0.4935730000000 1.0
C      1  0.4614800000000  0.5117000000000  0.4460890000000 1.0
C      1  0.5435610000000  0.5370750000000  0.4094320000000 1.0
C      1  0.5908070000000  0.4788380000000  0.5068090000000 1.0
C      1  0.4287200000000  0.4493630000000  0.4381540000000 1.0
C      1  0.4718610000000  0.4893110000000  0.4905970000000 1.0
C      1  0.5265580000000  0.4518070000000  0.5284480000000 1.0
C      1  0.5718640000000  0.5583450000000  0.5630670000000 1.0
C      1  0.4130700000000  0.4644310000000  0.5427800000000 1.0
C      1  0.4910450000000  0.6077890000000  0.4626210000000 1.0
C      1  0.5391580000000  0.4136080000000  0.4932290000000 1.0
C      1  0.6003570000000  0.4916500000000  0.4649550000000 1.0
C      1  0.5854250000000  0.4665890000000  0.4573170000000 1.0
C      1  0.5026210000000  0.5689960000000  0.5396440000000 1.0
C      1  0.6069890000000  0.4983410000000  0.4924090000000 1.0
C      1  0.5765650000000  0.4249510000000  0.5216100000000 1.0
C      1  0.4393730000000  0.4971130000000  0.4344480000000 1.0
C      1  0.4469430000000  0.5008510000000  0.4951030000000 1.0
C      1  0.5388370000000  0.5778870000000  0.4484580000000 1.0
C      1  0.4249850000000  0.5562280000000  0.4863010000000 1.0
C      1  0.4519030000000  0.5749740000000  0.4866950000000 1.0
C      1  0.5480040000000  0.4477140000000  0.4545870000000 1.0
C      1  0.5447440000000  0.5149440000000  0.4606940000000 1.0
C      1  0.4326240000000  0.4171910000000  0.5463110000000 1.0
C      1  0.5147760000000  0.5393210000000  0.4039310000000 1.0
C      1  0.6038490000000  0.5245660000000  0.5063300000000 1.0
C      1  0.5422200000000  0.5634960000000  0.4237830000000 1.0
C      1  0.4902600000000  0.5977870000000  0.5122940000000 1.0
C      1  0.4155500000000  0.4888770000000  0.5576400000000 1.0
C      1  0.4571600000000  0.4641160000000  0.5294080000000 1.0
C      1  0.5486200000000  0.4828700000000  0.4176420000000 1.0
C      1  0.5206760000000  0.5748250000000  0.4706400000000 1.0
C      1  0.5018500000000  0.4053520000000  0.5201820000000 1.0
C      1  0.4579520000000  0.4616620000000  0.4656760000000 1.0
C      1  0.5521870000000  0.4642300000000  0.5222430000000 1.0
C      1  0.4480720000000  0.4660290000000  0.4229080000000 1.0
C      1  0.4711360000000  0.3991320000000  0.4784370000000 1.0
C      1  0.4490390000000  0.5108080000000  0.3852180000000 1.0
C      1  0.5033410000000  0.5232680000000  0.4249200000000 1.0
C      1  0.4846760000000  0.4209240000000  0.4654000000000 1.0
C      1  0.4764090000000  0.5992710000000  0.4409670000000 1.0
C      1  0.4757210000000  0.5596550000000  0.5890010000000 1.0
C      1  0.4156010000000  0.5435760000000  0.5559440000000 1.0
C      1  0.5667050000000  0.4915640000000  0.5575290000000 1.0
C      1  0.4971190000000  0.4752890000000  0.5877010000000 1.0
C      1  0.5422970000000  0.4424590000000  0.5806670000000 1.0
C      1  0.4111490000000  0.5334060000000  0.4744780000000 1.0
C      1  0.4608000000000  0.4117940000000  0.5379680000000 1.0
C      1  0.4617950000000  0.5267830000000  0.5659300000000 1.0
C      1  0.5267220000000  0.4708260000000  0.5779200000000 1.0
C      1  0.5173370000000  0.6014350000000  0.5074440000000 1.0
C      1  0.5758320000000  0.4508250000000  0.5379840000000 1.0
C      1  0.4970930000000  0.5252470000000  0.4811290000000 1.0
C      1  0.5561400000000  0.5112620000000  0.4154380000000 1.0
C      1  0.5196720000000  0.5131830000000  0.4462770000000 1.0
C      1  0.4032890000000  0.4935610000000  0.5015680000000 1.0
C      1  0.5664120000000  0.5158350000000  0.4429450000000 1.0
C      1  0.4986770000000  0.4866170000000  0.5398550000000 1.0
C      1  0.5047050000000  0.4935180000000  0.4571190000000 1.0
C      1  0.4960220000000  0.5527910000000  0.4724240000000 1.0
C      1  0.5145810000000  0.4449110000000  0.4057900000000 1.0
C      1  0.5435870000000  0.5804880000000  0.5120670000000 1.0
C      1  0.4951820000000  0.5351410000000  0.5928280000000 1.0
C      1  0.5195480000000  0.4087450000000  0.4470730000000 1.0
C      1  0.4145920000000  0.4473850000000  0.4925490000000 1.0
C      1  0.5920780000000  0.5440190000000  0.4636090000000 1.0
C      1  0.5040890000000  0.5063100000000  0.5620750000000 1.0
C      1  0.5156540000000  0.4228160000000  0.4244760000000 1.0
C      1  0.4308870000000  0.5698100000000  0.5503900000000 1.0
C      1  0.5651450000000  0.4082780000000  0.5441620000000 1.0
C      1  0.4031520000000  0.5170120000000  0.5183710000000 1.0
C      1  0.4590250000000  0.4996230000000  0.5616920000000 1.0
C      1  0.4706990000000  0.4384550000000  0.5289830000000 1.0
C      1  0.4777260000000  0.5588960000000  0.4461080000000 1.0
C      1  0.4728720000000  0.5555410000000  0.4938870000000 1.0
C      1  0.5146100000000  0.5673450000000  0.4137260000000 1.0
C      1  0.4408020000000  0.4231550000000  0.4450040000000 1.0
C      1  0.5897300000000  0.5480600000000  0.4946830000000 1.0
C      1  0.4548930000000  0.5135440000000  0.5186650000000 1.0
C      1  0.5261010000000  0.5363520000000  0.5258760000000 1.0
C      1  0.4818900000000  0.5440690000000  0.5443530000000 1.0
C      1  0.4229080000000  0.4196490000000  0.4918520000000 1.0
END
