TITL C-4164236-1577-461 214.691186916438 125000 -20832.2006430372 0 0 142 (C1) n - 1
REM
REM in /home/nfs/bkarasulu/CARBON/AIRSS/Generating-Clusters/ReaxFF-fromJPCA2015/Units_Real/with-SteepDescent/Only-C1/SD-CG/Try1-3A/FIRE-CG
REM
REM
REM
REM
REM
REM ./C.cell (11c1c37f851c82e70ff6c80c92926a4b)
REM
REM compiler GCC version 9.2.1 20190827 (Red Hat 9.2.1-1)
REM options -cpp -mtune=generic -march=x86-64 -g -O0 -fpre-include=/usr/include/finclude/math-vector-fortran.h
REM seed 606258447 192457711 1919655411 -1246910181 -429312253 94752841 484145549 114616049 589066114 1004158011 369699689 -750533390 -627103823 -2078323143 1415920305 1650758050 168067013 1152832776 1691850198 -1036405391 383617388 1762065874 -1910890031 1434279628 428187108 -577088979 2003519285 1087080883 1212445376 -1489606232 -438511779 1185189712 -2008880323
REM
CELL 1.54180   50.00000   50.00000   50.00000   90.00000   90.00000   90.00000
LATT -1
SFAC C  
C      1  0.5864680000000  0.4903940000000  0.5515420000000 1.0
C      1  0.5358790000000  0.5912160000000  0.4968550000000 1.0
C      1  0.5525580000000  0.4201980000000  0.5056680000000 1.0
C      1  0.4599180000000  0.5109640000000  0.4162630000000 1.0
C      1  0.4821440000000  0.4951470000000  0.5963010000000 1.0
C      1  0.4140170000000  0.4657590000000  0.5069510000000 1.0
C      1  0.4417160000000  0.4702080000000  0.5129660000000 1.0
C      1  0.4724120000000  0.5196960000000  0.5177970000000 1.0
C      1  0.4331460000000  0.4654660000000  0.4350360000000 1.0
C      1  0.5327480000000  0.5257620000000  0.5509420000000 1.0
C      1  0.4452110000000  0.5474440000000  0.4923720000000 1.0
C      1  0.4101240000000  0.4557940000000  0.5355590000000 1.0
C      1  0.5036250000000  0.4395170000000  0.5792300000000 1.0
C      1  0.5780750000000  0.4505540000000  0.4647950000000 1.0
C      1  0.5819470000000  0.5233280000000  0.4411540000000 1.0
C      1  0.4777970000000  0.4484950000000  0.4784640000000 1.0
C      1  0.4751530000000  0.4480030000000  0.5793050000000 1.0
C      1  0.5494650000000  0.4786150000000  0.4242320000000 1.0
C      1  0.5151520000000  0.5790870000000  0.4477140000000 1.0
C      1  0.5225870000000  0.5153050000000  0.4489610000000 1.0
C      1  0.4989900000000  0.5030830000000  0.4389940000000 1.0
C      1  0.5178000000000  0.4242290000000  0.5576030000000 1.0
C      1  0.5191450000000  0.4664590000000  0.4659190000000 1.0
C      1  0.5321570000000  0.4775820000000  0.5220270000000 1.0
C      1  0.4576910000000  0.4608540000000  0.4207640000000 1.0
C      1  0.4139020000000  0.5538730000000  0.4601520000000 1.0
C      1  0.4596640000000  0.4387330000000  0.5563850000000 1.0
C      1  0.5146260000000  0.5440020000000  0.4134140000000 1.0
C      1  0.4887400000000  0.4410860000000  0.4517150000000 1.0
C      1  0.4479710000000  0.5038950000000  0.4591710000000 1.0
C      1  0.4497640000000  0.4203140000000  0.5192170000000 1.0
C      1  0.5191010000000  0.5159450000000  0.4051970000000 1.0
C      1  0.4322310000000  0.4925980000000  0.4394030000000 1.0
C      1  0.5219030000000  0.5912410000000  0.5241180000000 1.0
C      1  0.5452130000000  0.4477230000000  0.5015250000000 1.0
C      1  0.5586340000000  0.4339350000000  0.4568820000000 1.0
C      1  0.4775850000000  0.4754920000000  0.4841350000000 1.0
C      1  0.4845160000000  0.5244220000000  0.5946740000000 1.0
C      1  0.5570410000000  0.4872730000000  0.5041920000000 1.0
C      1  0.4582780000000  0.5726990000000  0.5306910000000 1.0
C      1  0.4972410000000  0.5629400000000  0.4287440000000 1.0
C      1  0.4768220000000  0.4955920000000  0.4599230000000 1.0
C      1  0.4816680000000  0.5460490000000  0.4666820000000 1.0
C      1  0.5630960000000  0.5277170000000  0.4190360000000 1.0
C      1  0.5250880000000  0.4022090000000  0.4696390000000 1.0
C      1  0.5176210000000  0.5909440000000  0.4739450000000 1.0
C      1  0.6023490000000  0.5259830000000  0.4825540000000 1.0
C      1  0.4988910000000  0.4751060000000  0.5478750000000 1.0
C      1  0.5078760000000  0.5527880000000  0.4788680000000 1.0
C      1  0.4974690000000  0.4027880000000  0.4806640000000 1.0
C      1  0.3943680000000  0.5269620000000  0.5035730000000 1.0
C      1  0.4788590000000  0.5263980000000  0.5660310000000 1.0
C      1  0.5827160000000  0.4442480000000  0.5228460000000 1.0
C      1  0.4652290000000  0.4912170000000  0.5077280000000 1.0
C      1  0.4742890000000  0.4806890000000  0.5350980000000 1.0
C      1  0.4691750000000  0.4356230000000  0.4308120000000 1.0
C      1  0.5241030000000  0.4674050000000  0.4206090000000 1.0
C      1  0.5523930000000  0.5690970000000  0.5551420000000 1.0
C      1  0.4558600000000  0.4152060000000  0.4475850000000 1.0
C      1  0.4938660000000  0.5605000000000  0.5031310000000 1.0
C      1  0.4707160000000  0.4062530000000  0.4716200000000 1.0
C      1  0.4382330000000  0.5192970000000  0.4815470000000 1.0
C      1  0.5193100000000  0.4612230000000  0.5900250000000 1.0
C      1  0.5346120000000  0.4021040000000  0.4969840000000 1.0
C      1  0.5238030000000  0.5336130000000  0.5258490000000 1.0
C      1  0.4167120000000  0.5485420000000  0.5364870000000 1.0
C      1  0.4562780000000  0.5790160000000  0.4444600000000 1.0
C      1  0.4848990000000  0.5190610000000  0.4762510000000 1.0
C      1  0.5297800000000  0.5379880000000  0.4649410000000 1.0
C      1  0.5282790000000  0.4975600000000  0.4700400000000 1.0
C      1  0.4358370000000  0.5443140000000  0.5585330000000 1.0
C      1  0.5822100000000  0.5405280000000  0.5491570000000 1.0
C      1  0.5997160000000  0.4971830000000  0.4765980000000 1.0
C      1  0.5715350000000  0.4720830000000  0.4446690000000 1.0
C      1  0.5802910000000  0.4620290000000  0.5463750000000 1.0
C      1  0.5018740000000  0.4237950000000  0.5313040000000 1.0
C      1  0.5034650000000  0.4843030000000  0.5769350000000 1.0
C      1  0.4063660000000  0.4660410000000  0.4775040000000 1.0
C      1  0.4008790000000  0.4927490000000  0.4680770000000 1.0
C      1  0.5948720000000  0.5168030000000  0.5366310000000 1.0
C      1  0.5456750000000  0.5057310000000  0.4114550000000 1.0
C      1  0.4815650000000  0.5869620000000  0.5343620000000 1.0
C      1  0.5697670000000  0.5012400000000  0.5702080000000 1.0
C      1  0.5156100000000  0.4566800000000  0.5337100000000 1.0
C      1  0.4031740000000  0.5237080000000  0.5316040000000 1.0
C      1  0.5257850000000  0.5188820000000  0.5917480000000 1.0
C      1  0.5606080000000  0.5759050000000  0.4904510000000 1.0
C      1  0.5255370000000  0.5785490000000  0.5508330000000 1.0
C      1  0.5597620000000  0.4526870000000  0.5647350000000 1.0
C      1  0.4681160000000  0.5597390000000  0.4267350000000 1.0
C      1  0.5178470000000  0.4465520000000  0.4411410000000 1.0
C      1  0.5086990000000  0.4059840000000  0.5075830000000 1.0
C      1  0.5026600000000  0.4891340000000  0.4132500000000 1.0
C      1  0.4212610000000  0.4505390000000  0.4576330000000 1.0
C      1  0.5732770000000  0.5642680000000  0.5341350000000 1.0
C      1  0.5082110000000  0.5645180000000  0.5718770000000 1.0
C      1  0.5096550000000  0.5431470000000  0.5926450000000 1.0
C      1  0.4129720000000  0.5086090000000  0.4894910000000 1.0
C      1  0.5872910000000  0.4955190000000  0.4501450000000 1.0
C      1  0.5361490000000  0.4210650000000  0.4501250000000 1.0
C      1  0.5643390000000  0.4233900000000  0.5314380000000 1.0
C      1  0.4207390000000  0.4787780000000  0.5545590000000 1.0
C      1  0.4238860000000  0.5055080000000  0.5426890000000 1.0
C      1  0.5855290000000  0.5426140000000  0.4623960000000 1.0
C      1  0.4397810000000  0.4859620000000  0.5752220000000 1.0
C      1  0.4828330000000  0.5552370000000  0.5607880000000 1.0
C      1  0.5497800000000  0.4995550000000  0.5886880000000 1.0
C      1  0.5855030000000  0.4810220000000  0.4977700000000 1.0
C      1  0.4104300000000  0.5075100000000  0.4437380000000 1.0
C      1  0.5416570000000  0.5614640000000  0.4475500000000 1.0
C      1  0.4543140000000  0.4627450000000  0.5375080000000 1.0
C      1  0.4989800000000  0.5177700000000  0.5256590000000 1.0
C      1  0.5454590000000  0.5346260000000  0.5063550000000 1.0
C      1  0.5464150000000  0.4694890000000  0.5854020000000 1.0
C      1  0.4560180000000  0.4262230000000  0.4878440000000 1.0
C      1  0.4452270000000  0.5165960000000  0.5616050000000 1.0
C      1  0.5068400000000  0.5055180000000  0.4872700000000 1.0
C      1  0.4489430000000  0.5356140000000  0.4250800000000 1.0
C      1  0.4549910000000  0.5668960000000  0.5588340000000 1.0
C      1  0.4229270000000  0.5342020000000  0.4407760000000 1.0
C      1  0.6000310000000  0.5220590000000  0.5098590000000 1.0
C      1  0.5673440000000  0.5644380000000  0.4650410000000 1.0
C      1  0.4604130000000  0.5678940000000  0.4734790000000 1.0
C      1  0.5641140000000  0.5560520000000  0.5091570000000 1.0
C      1  0.4722480000000  0.4206350000000  0.5371490000000 1.0
C      1  0.5876580000000  0.4526840000000  0.4949360000000 1.0
C      1  0.4268550000000  0.4335600000000  0.5301060000000 1.0
C      1  0.4213550000000  0.5589030000000  0.5088760000000 1.0
C      1  0.4331570000000  0.5755090000000  0.4604570000000 1.0
C      1  0.5113460000000  0.5127150000000  0.5662120000000 1.0
C      1  0.5096080000000  0.4948950000000  0.5124170000000 1.0
C      1  0.4707860000000  0.4855880000000  0.4112350000000 1.0
C      1  0.5469680000000  0.4287280000000  0.5543610000000 1.0
C      1  0.5322160000000  0.4570650000000  0.4837730000000 1.0
C      1  0.5425820000000  0.5484440000000  0.4197290000000 1.0
C      1  0.5558140000000  0.5401130000000  0.5631300000000 1.0
C      1  0.4633870000000  0.4742910000000  0.5883900000000 1.0
C      1  0.4961010000000  0.5895910000000  0.5095310000000 1.0
C      1  0.4684540000000  0.5479460000000  0.5111330000000 1.0
C      1  0.4027790000000  0.5510170000000  0.4886320000000 1.0
C      1  0.5498140000000  0.5111110000000  0.4894270000000 1.0
C      1  0.4350180000000  0.4262900000000  0.4651700000000 1.0
END
