TITL C-4164240-4114-458 -8.27712955747405 125000 -11033.0879469069 0 0 74 (C1) n - 1
REM
REM in /home/nfs/bkarasulu/CARBON/AIRSS/Generating-Clusters/ReaxFF-fromJPCA2015/Units_Real/with-SteepDescent/Only-C1/SD-CG/Try1-3A/FIRE-CG
REM
REM
REM
REM
REM
REM ./C.cell (11c1c37f851c82e70ff6c80c92926a4b)
REM
REM compiler GCC version 9.2.1 20190827 (Red Hat 9.2.1-1)
REM options -cpp -mtune=generic -march=x86-64 -g -O0 -fpre-include=/usr/include/finclude/math-vector-fortran.h
REM seed 230411153 1199020692 1486499031 -1967744953 -213435627 -1022810889 870648234 -1230589369 -1694101454 858921408 -2120302219 -1161025209 136362582 849593556 -1183578690 902695916 -720886056 -1860275437 -514423936 783019830 467161571 -1328507600 1262439717 1729476934 1952073959 1201391892 -419285198 840421054 1284506884 -925561367 -250200685 -1441764722 83977946
REM
CELL 1.54180   50.00000   50.00000   50.00000   90.00000   90.00000   90.00000
LATT -1
SFAC C  
C      1  0.5482780000000  0.5750610000000  0.4798260000000 1.0
C      1  0.4914560000000  0.4360630000000  0.5519530000000 1.0
C      1  0.4556410000000  0.5553910000000  0.4907880000000 1.0
C      1  0.4379000000000  0.5253530000000  0.5224000000000 1.0
C      1  0.5519800000000  0.4874480000000  0.5104610000000 1.0
C      1  0.5716420000000  0.4963820000000  0.4672400000000 1.0
C      1  0.4850980000000  0.4312930000000  0.4829180000000 1.0
C      1  0.5410280000000  0.5547950000000  0.4523570000000 1.0
C      1  0.5429060000000  0.5401660000000  0.4247740000000 1.0
C      1  0.5018180000000  0.4556990000000  0.5694480000000 1.0
C      1  0.4861660000000  0.5474500000000  0.5369320000000 1.0
C      1  0.5375950000000  0.4305430000000  0.5033560000000 1.0
C      1  0.4734350000000  0.4961880000000  0.5739200000000 1.0
C      1  0.5183150000000  0.5266970000000  0.4163950000000 1.0
C      1  0.5112900000000  0.5598710000000  0.4454360000000 1.0
C      1  0.4749090000000  0.4668360000000  0.5727960000000 1.0
C      1  0.4664460000000  0.5104120000000  0.5161000000000 1.0
C      1  0.5431420000000  0.5664950000000  0.5040320000000 1.0
C      1  0.4966110000000  0.5388580000000  0.4320840000000 1.0
C      1  0.5222110000000  0.5125590000000  0.4689270000000 1.0
C      1  0.5110150000000  0.4350570000000  0.5345600000000 1.0
C      1  0.4623550000000  0.5526770000000  0.5590040000000 1.0
C      1  0.4410480000000  0.4564350000000  0.5037310000000 1.0
C      1  0.5001660000000  0.5526720000000  0.4912160000000 1.0
C      1  0.5053450000000  0.4320280000000  0.4620900000000 1.0
C      1  0.5145170000000  0.5496060000000  0.5467160000000 1.0
C      1  0.5008480000000  0.5065800000000  0.5751970000000 1.0
C      1  0.4648690000000  0.4496580000000  0.5512430000000 1.0
C      1  0.4436460000000  0.5323600000000  0.5536970000000 1.0
C      1  0.4822280000000  0.5026560000000  0.4926800000000 1.0
C      1  0.5569940000000  0.4478680000000  0.4708250000000 1.0
C      1  0.4881640000000  0.5136130000000  0.5333730000000 1.0
C      1  0.4219910000000  0.4740680000000  0.4886320000000 1.0
C      1  0.5381920000000  0.5541730000000  0.5295100000000 1.0
C      1  0.5202120000000  0.4788790000000  0.5148730000000 1.0
C      1  0.5445950000000  0.4871210000000  0.4372050000000 1.0
C      1  0.5480380000000  0.4883890000000  0.5623300000000 1.0
C      1  0.4330390000000  0.5230080000000  0.4778460000000 1.0
C      1  0.5657960000000  0.4709030000000  0.5471040000000 1.0
C      1  0.5015290000000  0.5235670000000  0.4852820000000 1.0
C      1  0.5550620000000  0.5304990000000  0.5342330000000 1.0
C      1  0.4744330000000  0.4684560000000  0.4519040000000 1.0
C      1  0.5644070000000  0.4727860000000  0.4541060000000 1.0
C      1  0.4841910000000  0.4542500000000  0.4978300000000 1.0
C      1  0.4309050000000  0.4788950000000  0.4617230000000 1.0
C      1  0.5239040000000  0.4482320000000  0.5201310000000 1.0
C      1  0.5322870000000  0.4327910000000  0.4734560000000 1.0
C      1  0.4458610000000  0.4609460000000  0.5318820000000 1.0
C      1  0.5454400000000  0.5171780000000  0.5582760000000 1.0
C      1  0.4790930000000  0.5582500000000  0.5096060000000 1.0
C      1  0.5701740000000  0.5200620000000  0.4826430000000 1.0
C      1  0.4987260000000  0.4775310000000  0.4413250000000 1.0
C      1  0.4980180000000  0.4781310000000  0.4961610000000 1.0
C      1  0.4935810000000  0.5685100000000  0.4667900000000 1.0
C      1  0.5636120000000  0.5138400000000  0.5117320000000 1.0
C      1  0.5207660000000  0.4893940000000  0.4524090000000 1.0
C      1  0.4208600000000  0.5011700000000  0.5199720000000 1.0
C      1  0.5084260000000  0.4932750000000  0.5368200000000 1.0
C      1  0.4664760000000  0.5586740000000  0.4629510000000 1.0
C      1  0.5643000000000  0.4433320000000  0.4987930000000 1.0
C      1  0.4606650000000  0.4475640000000  0.4841410000000 1.0
C      1  0.5439060000000  0.5115250000000  0.4207710000000 1.0
C      1  0.4688640000000  0.5362670000000  0.4446160000000 1.0
C      1  0.4943310000000  0.4501240000000  0.4420400000000 1.0
C      1  0.5702070000000  0.4660300000000  0.5171080000000 1.0
C      1  0.5459650000000  0.5302740000000  0.4689630000000 1.0
C      1  0.4515520000000  0.4872530000000  0.4448780000000 1.0
C      1  0.4345900000000  0.5406210000000  0.4992810000000 1.0
C      1  0.5160080000000  0.4834320000000  0.5632690000000 1.0
C      1  0.5186700000000  0.5279950000000  0.5654580000000 1.0
C      1  0.4349940000000  0.4863430000000  0.5407900000000 1.0
C      1  0.4487340000000  0.5037920000000  0.5602560000000 1.0
C      1  0.4178820000000  0.5018150000000  0.4922020000000 1.0
C      1  0.4506590000000  0.5158840000000  0.4542310000000 1.0
END
