TITL C-4164237-1827-426 1.03533061315535 125000 -27407.8998779218 0 0 183 (C1) n - 1
REM
REM in /home/nfs/bkarasulu/CARBON/AIRSS/Generating-Clusters/ReaxFF-fromJPCA2015/Units_Real/with-SteepDescent/Only-C1/SD-CG/Try1-3A/FIRE-CG
REM
REM
REM
REM
REM
REM ./C.cell (11c1c37f851c82e70ff6c80c92926a4b)
REM
REM compiler GCC version 9.2.1 20190827 (Red Hat 9.2.1-1)
REM options -cpp -mtune=generic -march=x86-64 -g -O0 -fpre-include=/usr/include/finclude/math-vector-fortran.h
REM seed -1485272105 -2103410209 -1767838906 -1406552890 1375106329 -532763624 414433722 1960564358 -1551215382 -977293557 -723272252 -883026731 -1482939848 -2092556452 355585433 -255919394 -1004965402 -1712252130 124031977 473163827 -885246955 1942742841 -23161693 -1040485097 -1839882517 -858593004 469523870 -985980736 679313642 -28806052 155188682 1361250846 346040409
REM
CELL 1.54180   50.00000   50.00000   50.00000   90.00000   90.00000   90.00000
LATT -1
SFAC C  
C      1  0.5857730000000  0.4683760000000  0.5681870000000 1.0
C      1  0.4543920000000  0.4587790000000  0.5272150000000 1.0
C      1  0.4654160000000  0.5396350000000  0.4059040000000 1.0
C      1  0.4815120000000  0.4655070000000  0.4309670000000 1.0
C      1  0.5147930000000  0.5669810000000  0.4059490000000 1.0
C      1  0.5238560000000  0.3988420000000  0.4507870000000 1.0
C      1  0.6047120000000  0.4499460000000  0.5236260000000 1.0
C      1  0.5036220000000  0.4468680000000  0.5243360000000 1.0
C      1  0.4494840000000  0.4410240000000  0.4096800000000 1.0
C      1  0.5078310000000  0.4716240000000  0.5698250000000 1.0
C      1  0.4430830000000  0.5685770000000  0.5246320000000 1.0
C      1  0.5692440000000  0.5469480000000  0.5341940000000 1.0
C      1  0.5110050000000  0.5625920000000  0.4942630000000 1.0
C      1  0.4842980000000  0.5653880000000  0.4152370000000 1.0
C      1  0.5010240000000  0.3942920000000  0.5201890000000 1.0
C      1  0.4494620000000  0.5426540000000  0.5928530000000 1.0
C      1  0.4375810000000  0.4988390000000  0.4815700000000 1.0
C      1  0.5543180000000  0.5071660000000  0.5953210000000 1.0
C      1  0.5731660000000  0.4978000000000  0.5725640000000 1.0
C      1  0.4747980000000  0.3977820000000  0.5058770000000 1.0
C      1  0.4706720000000  0.4230900000000  0.4132680000000 1.0
C      1  0.5158400000000  0.4831480000000  0.5007340000000 1.0
C      1  0.4043990000000  0.4330790000000  0.4830420000000 1.0
C      1  0.4401160000000  0.5393500000000  0.4185570000000 1.0
C      1  0.5031040000000  0.4711250000000  0.4483880000000 1.0
C      1  0.5655020000000  0.4900040000000  0.5222250000000 1.0
C      1  0.4617710000000  0.4349130000000  0.5444590000000 1.0
C      1  0.5651500000000  0.4169010000000  0.5345660000000 1.0
C      1  0.4413060000000  0.4397190000000  0.4587050000000 1.0
C      1  0.5956230000000  0.4869460000000  0.4534450000000 1.0
C      1  0.4888670000000  0.4479590000000  0.4537890000000 1.0
C      1  0.5464760000000  0.5351990000000  0.5948490000000 1.0
C      1  0.4958620000000  0.6139760000000  0.5152770000000 1.0
C      1  0.5485380000000  0.4065180000000  0.5560060000000 1.0
C      1  0.5744420000000  0.4717310000000  0.4394110000000 1.0
C      1  0.5003930000000  0.5004160000000  0.4017060000000 1.0
C      1  0.4093340000000  0.4997860000000  0.5540570000000 1.0
C      1  0.4453620000000  0.5621940000000  0.4382020000000 1.0
C      1  0.5645290000000  0.5951000000000  0.5202110000000 1.0
C      1  0.4528680000000  0.4150040000000  0.4618920000000 1.0
C      1  0.4366470000000  0.4939710000000  0.5940880000000 1.0
C      1  0.4845660000000  0.5194260000000  0.5674320000000 1.0
C      1  0.5027150000000  0.5120870000000  0.4288670000000 1.0
C      1  0.4133790000000  0.5276310000000  0.5476660000000 1.0
C      1  0.5335800000000  0.4109740000000  0.4251890000000 1.0
C      1  0.6027160000000  0.5347430000000  0.4930430000000 1.0
C      1  0.5379870000000  0.3997420000000  0.4758810000000 1.0
C      1  0.4260060000000  0.4503410000000  0.5164710000000 1.0
C      1  0.4649760000000  0.5842380000000  0.4287530000000 1.0
C      1  0.5219600000000  0.4653790000000  0.5949600000000 1.0
C      1  0.4409660000000  0.5202420000000  0.5027730000000 1.0
C      1  0.4155020000000  0.4911530000000  0.4295450000000 1.0
C      1  0.5208740000000  0.4704940000000  0.5246440000000 1.0
C      1  0.4181000000000  0.5648430000000  0.4524890000000 1.0
C      1  0.5454370000000  0.5299510000000  0.5374230000000 1.0
C      1  0.5358040000000  0.5748810000000  0.4907440000000 1.0
C      1  0.5105270000000  0.5138040000000  0.6059960000000 1.0
C      1  0.5209790000000  0.4306750000000  0.5389470000000 1.0
C      1  0.4270470000000  0.4240100000000  0.5006550000000 1.0
C      1  0.4949330000000  0.5626870000000  0.4456080000000 1.0
C      1  0.4620230000000  0.5141580000000  0.5291890000000 1.0
C      1  0.4152960000000  0.5301460000000  0.5189460000000 1.0
C      1  0.5683560000000  0.5117620000000  0.4716770000000 1.0
C      1  0.4717540000000  0.5129160000000  0.3966460000000 1.0
C      1  0.4595040000000  0.5805240000000  0.5676060000000 1.0
C      1  0.5229850000000  0.4904990000000  0.5512840000000 1.0
C      1  0.5425960000000  0.5423790000000  0.4502100000000 1.0
C      1  0.5693930000000  0.4475290000000  0.5733140000000 1.0
C      1  0.5183100000000  0.5282990000000  0.5259990000000 1.0
C      1  0.4138880000000  0.5667880000000  0.4814270000000 1.0
C      1  0.5826140000000  0.5129980000000  0.4471600000000 1.0
C      1  0.4564970000000  0.4832420000000  0.4328460000000 1.0
C      1  0.5146060000000  0.5470290000000  0.4547600000000 1.0
C      1  0.5296600000000  0.6006400000000  0.4568010000000 1.0
C      1  0.5029590000000  0.4659420000000  0.4060530000000 1.0
C      1  0.4212300000000  0.4451640000000  0.4390270000000 1.0
C      1  0.5472380000000  0.4402260000000  0.5337490000000 1.0
C      1  0.5266950000000  0.5158380000000  0.3931370000000 1.0
C      1  0.4712900000000  0.5949320000000  0.4816390000000 1.0
C      1  0.5168960000000  0.4033930000000  0.5476730000000 1.0
C      1  0.5070970000000  0.5152700000000  0.5500730000000 1.0
C      1  0.5467450000000  0.4873710000000  0.4279700000000 1.0
C      1  0.4713260000000  0.4087730000000  0.4401730000000 1.0
C      1  0.5018830000000  0.4007410000000  0.5722740000000 1.0
C      1  0.5287450000000  0.5090370000000  0.4993710000000 1.0
C      1  0.4572770000000  0.4258450000000  0.5714140000000 1.0
C      1  0.5512600000000  0.5023360000000  0.5469020000000 1.0
C      1  0.5270060000000  0.4647670000000  0.4237340000000 1.0
C      1  0.5282520000000  0.5107020000000  0.4430980000000 1.0
C      1  0.5053110000000  0.5803430000000  0.5633370000000 1.0
C      1  0.5510300000000  0.5863770000000  0.4431100000000 1.0
C      1  0.4290190000000  0.4572060000000  0.4143220000000 1.0
C      1  0.4740790000000  0.4742560000000  0.5958520000000 1.0
C      1  0.5596900000000  0.4210830000000  0.4789200000000 1.0
C      1  0.5283100000000  0.4368690000000  0.5944440000000 1.0
C      1  0.4350090000000  0.4903930000000  0.5646990000000 1.0
C      1  0.4029630000000  0.4685980000000  0.4435100000000 1.0
C      1  0.4052290000000  0.5385320000000  0.4511880000000 1.0
C      1  0.5175350000000  0.5406220000000  0.5979080000000 1.0
C      1  0.4235650000000  0.4725770000000  0.4890590000000 1.0
C      1  0.6043030000000  0.5061100000000  0.5009830000000 1.0
C      1  0.4530480000000  0.4996360000000  0.4567020000000 1.0
C      1  0.4801740000000  0.5865470000000  0.5474540000000 1.0
C      1  0.4061090000000  0.4541490000000  0.5389420000000 1.0
C      1  0.5698140000000  0.4461560000000  0.4347290000000 1.0
C      1  0.5065810000000  0.5370390000000  0.4798470000000 1.0
C      1  0.3918440000000  0.5228690000000  0.5035930000000 1.0
C      1  0.5120280000000  0.4189320000000  0.4094610000000 1.0
C      1  0.5344940000000  0.6039430000000  0.4859810000000 1.0
C      1  0.4503500000000  0.5002350000000  0.4107520000000 1.0
C      1  0.4997870000000  0.5615900000000  0.5853870000000 1.0
C      1  0.4366280000000  0.5706740000000  0.5530160000000 1.0
C      1  0.5911740000000  0.5530480000000  0.5137880000000 1.0
C      1  0.4943540000000  0.4374870000000  0.3996590000000 1.0
C      1  0.5460170000000  0.4385640000000  0.4249130000000 1.0
C      1  0.4330420000000  0.5433960000000  0.5653490000000 1.0
C      1  0.4712190000000  0.6077410000000  0.5224650000000 1.0
C      1  0.5316830000000  0.5907310000000  0.5548470000000 1.0
C      1  0.4600040000000  0.5271340000000  0.5550890000000 1.0
C      1  0.3829710000000  0.4952010000000  0.5120840000000 1.0
C      1  0.5745790000000  0.5721610000000  0.4623120000000 1.0
C      1  0.5537450000000  0.5572530000000  0.4755730000000 1.0
C      1  0.4861170000000  0.5762320000000  0.4983510000000 1.0
C      1  0.5584420000000  0.5072690000000  0.4971490000000 1.0
C      1  0.6019920000000  0.4833680000000  0.4829310000000 1.0
C      1  0.4798380000000  0.4119710000000  0.5845350000000 1.0
C      1  0.4751460000000  0.5993950000000  0.4515750000000 1.0
C      1  0.4669510000000  0.5440610000000  0.4577530000000 1.0
C      1  0.5517710000000  0.4265260000000  0.5784000000000 1.0
C      1  0.5901720000000  0.4238820000000  0.5203410000000 1.0
C      1  0.5423450000000  0.5731470000000  0.4184740000000 1.0
C      1  0.4505070000000  0.6026490000000  0.5006670000000 1.0
C      1  0.5224030000000  0.6187160000000  0.5086710000000 1.0
C      1  0.4891340000000  0.4402200000000  0.5002990000000 1.0
C      1  0.4737500000000  0.5641710000000  0.5224680000000 1.0
C      1  0.5026220000000  0.5922970000000  0.4467660000000 1.0
C      1  0.4866440000000  0.4887670000000  0.4938620000000 1.0
C      1  0.4584140000000  0.4842340000000  0.5475270000000 1.0
C      1  0.4957800000000  0.4937080000000  0.4659740000000 1.0
C      1  0.4587220000000  0.5380900000000  0.4850270000000 1.0
C      1  0.4294680000000  0.5817100000000  0.5022860000000 1.0
C      1  0.4790380000000  0.4732560000000  0.5674000000000 1.0
C      1  0.5409520000000  0.6063560000000  0.5285020000000 1.0
C      1  0.5837510000000  0.5418620000000  0.5595790000000 1.0
C      1  0.4013580000000  0.4605970000000  0.4727040000000 1.0
C      1  0.5047010000000  0.4429810000000  0.4760390000000 1.0
C      1  0.5863870000000  0.4294670000000  0.4914330000000 1.0
C      1  0.5064510000000  0.4175060000000  0.5942290000000 1.0
C      1  0.5311780000000  0.4926790000000  0.6045360000000 1.0
C      1  0.4189390000000  0.5193820000000  0.4311050000000 1.0
C      1  0.4463470000000  0.4668430000000  0.6001500000000 1.0
C      1  0.4836070000000  0.5341110000000  0.5223020000000 1.0
C      1  0.5220870000000  0.5426960000000  0.3980080000000 1.0
C      1  0.5520840000000  0.5065400000000  0.4057910000000 1.0
C      1  0.5493810000000  0.4656360000000  0.5225970000000 1.0
C      1  0.5936900000000  0.5529430000000  0.4718410000000 1.0
C      1  0.3985840000000  0.5403640000000  0.4800000000000 1.0
C      1  0.6013810000000  0.4711570000000  0.5432900000000 1.0
C      1  0.3937750000000  0.4819200000000  0.5359950000000 1.0
C      1  0.4698530000000  0.4622390000000  0.4977090000000 1.0
C      1  0.4704990000000  0.5628130000000  0.5886920000000 1.0
C      1  0.5920720000000  0.5146350000000  0.5571220000000 1.0
C      1  0.4481480000000  0.4588460000000  0.4774530000000 1.0
C      1  0.4913580000000  0.4041870000000  0.4819750000000 1.0
C      1  0.4768640000000  0.5166010000000  0.4485850000000 1.0
C      1  0.5498540000000  0.4450990000000  0.4820340000000 1.0
C      1  0.5701770000000  0.5235000000000  0.4202970000000 1.0
C      1  0.5475540000000  0.5727150000000  0.5667530000000 1.0
C      1  0.4190500000000  0.4481520000000  0.5628080000000 1.0
C      1  0.5164210000000  0.3939390000000  0.4956800000000 1.0
C      1  0.4516940000000  0.4101300000000  0.4908170000000 1.0
C      1  0.5187850000000  0.5111560000000  0.4721940000000 1.0
C      1  0.4542720000000  0.5163420000000  0.6030370000000 1.0
C      1  0.4820010000000  0.5057610000000  0.5969190000000 1.0
C      1  0.4353870000000  0.4437130000000  0.5845980000000 1.0
C      1  0.5831230000000  0.5797880000000  0.5143500000000 1.0
C      1  0.5280870000000  0.4601470000000  0.4807820000000 1.0
C      1  0.5639080000000  0.5541510000000  0.5790210000000 1.0
C      1  0.4823980000000  0.5239310000000  0.4952820000000 1.0
C      1  0.5591680000000  0.5496400000000  0.4253270000000 1.0
C      1  0.5977850000000  0.4983480000000  0.5312820000000 1.0
C      1  0.6001380000000  0.4560730000000  0.4950200000000 1.0
C      1  0.4942050000000  0.3976340000000  0.4531350000000 1.0
END
