TITL C-4164235-1454-543 15.2273057356131 125000 -18594.7795335815 0 0 126 (C1) n - 1
REM
REM in /home/nfs/bkarasulu/CARBON/AIRSS/Generating-Clusters/ReaxFF-fromJPCA2015/Units_Real/with-SteepDescent/Only-C1/SD-CG/Try1-3A/FIRE-CG
REM
REM
REM
REM
REM
REM ./C.cell (11c1c37f851c82e70ff6c80c92926a4b)
REM
REM compiler GCC version 9.2.1 20190827 (Red Hat 9.2.1-1)
REM options -cpp -mtune=generic -march=x86-64 -g -O0 -fpre-include=/usr/include/finclude/math-vector-fortran.h
REM seed 1757893371 -1412701083 831470369 811147531 322236077 1405648636 -313536039 -1932024471 -1944640138 302743411 -38460462 1100420450 -1177639890 -518748520 81599655 1542626559 -1844246349 911584657 1792358988 -663512522 265881740 -1865579955 2074381777 802492477 -231950458 -314149024 1328476079 2047975835 -449037226 1052649849 -429779074 1473807415 -828518206
REM
CELL 1.54180   50.00000   50.00000   50.00000   90.00000   90.00000   90.00000
LATT -1
SFAC C  
C      1  0.5501850000000  0.5745350000000  0.5346390000000 1.0
C      1  0.5688170000000  0.5575500000000  0.4817230000000 1.0
C      1  0.5816170000000  0.4726710000000  0.4602220000000 1.0
C      1  0.4370390000000  0.5261330000000  0.5460850000000 1.0
C      1  0.5061130000000  0.5951110000000  0.5109040000000 1.0
C      1  0.4643860000000  0.5449460000000  0.5085030000000 1.0
C      1  0.4874230000000  0.4262520000000  0.5750320000000 1.0
C      1  0.4472390000000  0.4312950000000  0.5482240000000 1.0
C      1  0.4131500000000  0.5195970000000  0.4757960000000 1.0
C      1  0.5837170000000  0.4459580000000  0.4929500000000 1.0
C      1  0.5153740000000  0.5037230000000  0.3969770000000 1.0
C      1  0.5306060000000  0.4365900000000  0.4315950000000 1.0
C      1  0.5421940000000  0.4259570000000  0.5760230000000 1.0
C      1  0.5428840000000  0.5480720000000  0.5480170000000 1.0
C      1  0.5595850000000  0.4876630000000  0.4151760000000 1.0
C      1  0.4657760000000  0.4877770000000  0.5048330000000 1.0
C      1  0.5318410000000  0.5318940000000  0.5005040000000 1.0
C      1  0.5356720000000  0.5863660000000  0.5117130000000 1.0
C      1  0.5276140000000  0.4634190000000  0.5862710000000 1.0
C      1  0.4543450000000  0.4608760000000  0.5798090000000 1.0
C      1  0.4355070000000  0.4823390000000  0.5739580000000 1.0
C      1  0.4385160000000  0.5626500000000  0.4778510000000 1.0
C      1  0.5238010000000  0.5504760000000  0.4227760000000 1.0
C      1  0.5336100000000  0.4426780000000  0.5383630000000 1.0
C      1  0.5050090000000  0.5956540000000  0.4394160000000 1.0
C      1  0.4515450000000  0.4179200000000  0.4481530000000 1.0
C      1  0.4740270000000  0.5211820000000  0.5909300000000 1.0
C      1  0.4261510000000  0.4410410000000  0.5481060000000 1.0
C      1  0.4546860000000  0.4275590000000  0.4762120000000 1.0
C      1  0.4937930000000  0.5242870000000  0.4733510000000 1.0
C      1  0.4714430000000  0.5104510000000  0.4609990000000 1.0
C      1  0.5217340000000  0.5024620000000  0.5372370000000 1.0
C      1  0.4138120000000  0.4825890000000  0.4594260000000 1.0
C      1  0.5721300000000  0.4932250000000  0.4414840000000 1.0
C      1  0.5286030000000  0.4475070000000  0.4864900000000 1.0
C      1  0.4752140000000  0.4945200000000  0.5602310000000 1.0
C      1  0.5340360000000  0.5477160000000  0.4510510000000 1.0
C      1  0.4535090000000  0.5686080000000  0.5204670000000 1.0
C      1  0.5403160000000  0.4723400000000  0.4759640000000 1.0
C      1  0.4055080000000  0.5365260000000  0.5116490000000 1.0
C      1  0.4149060000000  0.5469640000000  0.4873380000000 1.0
C      1  0.5422670000000  0.5160280000000  0.5921930000000 1.0
C      1  0.4317040000000  0.4438390000000  0.4819850000000 1.0
C      1  0.4815810000000  0.5628620000000  0.4310140000000 1.0
C      1  0.5172550000000  0.4610490000000  0.4242620000000 1.0
C      1  0.5155590000000  0.4545040000000  0.5171670000000 1.0
C      1  0.5528590000000  0.4519590000000  0.5745660000000 1.0
C      1  0.5468210000000  0.4873680000000  0.4980820000000 1.0
C      1  0.5103730000000  0.4286470000000  0.4738220000000 1.0
C      1  0.4977690000000  0.5892520000000  0.5383480000000 1.0
C      1  0.5218520000000  0.4947360000000  0.5928630000000 1.0
C      1  0.5019210000000  0.5585010000000  0.5336560000000 1.0
C      1  0.5788000000000  0.5234160000000  0.4435920000000 1.0
C      1  0.4748430000000  0.5615940000000  0.4591640000000 1.0
C      1  0.5746610000000  0.5636880000000  0.5269710000000 1.0
C      1  0.4930470000000  0.5103530000000  0.5432650000000 1.0
C      1  0.5679980000000  0.4348380000000  0.5150090000000 1.0
C      1  0.4013460000000  0.5096370000000  0.5135500000000 1.0
C      1  0.5469190000000  0.4265180000000  0.4973870000000 1.0
C      1  0.4401160000000  0.5573480000000  0.5449180000000 1.0
C      1  0.4563980000000  0.5220630000000  0.4163630000000 1.0
C      1  0.4249470000000  0.4555400000000  0.4564190000000 1.0
C      1  0.5479350000000  0.5787890000000  0.4866030000000 1.0
C      1  0.4796150000000  0.5390120000000  0.4136950000000 1.0
C      1  0.4120160000000  0.5086010000000  0.5405990000000 1.0
C      1  0.4881400000000  0.4386640000000  0.5151800000000 1.0
C      1  0.4685780000000  0.4858580000000  0.4774800000000 1.0
C      1  0.5065570000000  0.4455880000000  0.5825680000000 1.0
C      1  0.4814080000000  0.4959720000000  0.4377770000000 1.0
C      1  0.5506100000000  0.5385390000000  0.5746730000000 1.0
C      1  0.4537210000000  0.5222300000000  0.5209990000000 1.0
C      1  0.4994370000000  0.4096650000000  0.5541640000000 1.0
C      1  0.4913360000000  0.4896210000000  0.3986940000000 1.0
C      1  0.4832170000000  0.4641540000000  0.4681660000000 1.0
C      1  0.4553900000000  0.5820560000000  0.4940950000000 1.0
C      1  0.4871590000000  0.5476020000000  0.4878560000000 1.0
C      1  0.4838370000000  0.5891290000000  0.4890230000000 1.0
C      1  0.5777830000000  0.4972840000000  0.5596370000000 1.0
C      1  0.5690870000000  0.4459700000000  0.4662630000000 1.0
C      1  0.5217590000000  0.5194710000000  0.4690010000000 1.0
C      1  0.4204110000000  0.5098580000000  0.4508740000000 1.0
C      1  0.4509140000000  0.5079380000000  0.5716630000000 1.0
C      1  0.5761300000000  0.4919720000000  0.5079370000000 1.0
C      1  0.5905950000000  0.5457830000000  0.5141570000000 1.0
C      1  0.4124760000000  0.4591660000000  0.5320440000000 1.0
C      1  0.4980390000000  0.5075310000000  0.5921810000000 1.0
C      1  0.4520500000000  0.5458270000000  0.4594470000000 1.0
C      1  0.4239260000000  0.4642820000000  0.5034600000000 1.0
C      1  0.5072170000000  0.5751370000000  0.4202400000000 1.0
C      1  0.5813840000000  0.5216520000000  0.5034370000000 1.0
C      1  0.4493960000000  0.4698720000000  0.5172280000000 1.0
C      1  0.4096050000000  0.4920900000000  0.4872100000000 1.0
C      1  0.5596390000000  0.5340520000000  0.4922000000000 1.0
C      1  0.5466790000000  0.4266460000000  0.4553910000000 1.0
C      1  0.5261860000000  0.4075330000000  0.4868110000000 1.0
C      1  0.5911660000000  0.4738740000000  0.4880850000000 1.0
C      1  0.5277480000000  0.4171770000000  0.5529780000000 1.0
C      1  0.5690570000000  0.5121260000000  0.4047600000000 1.0
C      1  0.5083730000000  0.3934600000000  0.5071820000000 1.0
C      1  0.4741040000000  0.4663500000000  0.5592770000000 1.0
C      1  0.4777900000000  0.5079950000000  0.5181320000000 1.0
C      1  0.5015240000000  0.4759510000000  0.4476630000000 1.0
C      1  0.5249020000000  0.4834160000000  0.5168160000000 1.0
C      1  0.4776890000000  0.5470830000000  0.5767260000000 1.0
C      1  0.5310800000000  0.4808120000000  0.4080230000000 1.0
C      1  0.4368380000000  0.4398360000000  0.4334040000000 1.0
C      1  0.5644490000000  0.5471110000000  0.4544960000000 1.0
C      1  0.5750950000000  0.4794320000000  0.5374670000000 1.0
C      1  0.4654090000000  0.4503090000000  0.5327830000000 1.0
C      1  0.4668730000000  0.4942230000000  0.4123890000000 1.0
C      1  0.4158960000000  0.4813110000000  0.5517710000000 1.0
C      1  0.4924470000000  0.4102190000000  0.5252460000000 1.0
C      1  0.5353770000000  0.5267350000000  0.5294580000000 1.0
C      1  0.5752800000000  0.5326520000000  0.4178300000000 1.0
C      1  0.5097830000000  0.5498470000000  0.5062430000000 1.0
C      1  0.4838970000000  0.4383370000000  0.4820020000000 1.0
C      1  0.5238520000000  0.4906510000000  0.4636280000000 1.0
C      1  0.4565350000000  0.4315160000000  0.5743210000000 1.0
C      1  0.5050480000000  0.5939420000000  0.4676150000000 1.0
C      1  0.5694180000000  0.5167220000000  0.5806140000000 1.0
C      1  0.4399470000000  0.5282500000000  0.4393620000000 1.0
C      1  0.4533650000000  0.5645400000000  0.5699700000000 1.0
C      1  0.5077260000000  0.5308620000000  0.4089420000000 1.0
C      1  0.5622020000000  0.4527580000000  0.5422990000000 1.0
C      1  0.5291250000000  0.5752860000000  0.4652690000000 1.0
C      1  0.4933040000000  0.5408520000000  0.5534540000000 1.0
END
