TITL C-4164244-2836-235 -24.6332924218875 125000 -11019.1509648321 0 0 75 (C1) n - 1
REM
REM in /home/nfs/bkarasulu/CARBON/AIRSS/Generating-Clusters/ReaxFF-fromJPCA2015/Units_Real/with-SteepDescent/Only-C1/SD-CG/Try1-3A/FIRE-CG
REM
REM
REM
REM
REM
REM ./C.cell (11c1c37f851c82e70ff6c80c92926a4b)
REM
REM compiler GCC version 9.2.1 20190827 (Red Hat 9.2.1-1)
REM options -cpp -mtune=generic -march=x86-64 -g -O0 -fpre-include=/usr/include/finclude/math-vector-fortran.h
REM seed 784795417 1062036522 -368529880 1967044215 -788038503 -1727018914 -632774639 210621218 287046186 1287807344 545241524 40683950 858047326 1094400649 -1542712073 684051487 2065352296 -2023039233 803921124 -1706807716 148474636 -1129251780 -1412953528 849959622 -590749372 1054620532 12845419 806624130 1411427848 -1321654411 -558976595 -136004414 884900636
REM
CELL 1.54180   50.00000   50.00000   50.00000   90.00000   90.00000   90.00000
LATT -1
SFAC C  
C      1  0.5676360000000  0.5171590000000  0.4846330000000 1.0
C      1  0.5707550000000  0.5194110000000  0.5137840000000 1.0
C      1  0.4874600000000  0.5021770000000  0.4644320000000 1.0
C      1  0.4849450000000  0.6002010000000  0.4915390000000 1.0
C      1  0.5599780000000  0.4752890000000  0.5045450000000 1.0
C      1  0.5169810000000  0.4738590000000  0.5381880000000 1.0
C      1  0.5268840000000  0.4448210000000  0.4961320000000 1.0
C      1  0.5644730000000  0.4688370000000  0.5330880000000 1.0
C      1  0.5624800000000  0.4885620000000  0.4786950000000 1.0
C      1  0.5277490000000  0.4582050000000  0.4509070000000 1.0
C      1  0.4672760000000  0.4456830000000  0.5644600000000 1.0
C      1  0.5167830000000  0.4380460000000  0.4698890000000 1.0
C      1  0.4531740000000  0.4804840000000  0.5345530000000 1.0
C      1  0.5426320000000  0.4699770000000  0.5505700000000 1.0
C      1  0.5140000000000  0.4710260000000  0.4929960000000 1.0
C      1  0.5107310000000  0.5219890000000  0.5806190000000 1.0
C      1  0.5543700000000  0.5409550000000  0.5248850000000 1.0
C      1  0.4534790000000  0.4882120000000  0.5631220000000 1.0
C      1  0.4917940000000  0.5097180000000  0.4358990000000 1.0
C      1  0.4656260000000  0.4299260000000  0.4887330000000 1.0
C      1  0.4896490000000  0.4833770000000  0.4233740000000 1.0
C      1  0.4707880000000  0.5382400000000  0.4777740000000 1.0
C      1  0.5149680000000  0.5459800000000  0.5658640000000 1.0
C      1  0.5002170000000  0.5414880000000  0.4767710000000 1.0
C      1  0.4684220000000  0.5028210000000  0.5473710000000 1.0
C      1  0.4934510000000  0.4266620000000  0.5326400000000 1.0
C      1  0.4683080000000  0.4311580000000  0.5182140000000 1.0
C      1  0.5292240000000  0.5381700000000  0.5403810000000 1.0
C      1  0.4596270000000  0.5859820000000  0.4898930000000 1.0
C      1  0.5093350000000  0.5333420000000  0.4296870000000 1.0
C      1  0.5190550000000  0.4427420000000  0.5256500000000 1.0
C      1  0.5273410000000  0.5756340000000  0.5058450000000 1.0
C      1  0.5259190000000  0.4968760000000  0.4974340000000 1.0
C      1  0.5126030000000  0.4980090000000  0.5233940000000 1.0
C      1  0.5193320000000  0.4373840000000  0.5722010000000 1.0
C      1  0.4525570000000  0.4613270000000  0.4505560000000 1.0
C      1  0.5054890000000  0.5255910000000  0.5299830000000 1.0
C      1  0.5366600000000  0.4821240000000  0.4118810000000 1.0
C      1  0.5029860000000  0.5885820000000  0.5141270000000 1.0
C      1  0.5500350000000  0.5577930000000  0.5010970000000 1.0
C      1  0.5148530000000  0.4686070000000  0.4261950000000 1.0
C      1  0.4857570000000  0.4675660000000  0.4894320000000 1.0
C      1  0.5563140000000  0.5423900000000  0.4759930000000 1.0
C      1  0.4894210000000  0.4757900000000  0.5960960000000 1.0
C      1  0.5392480000000  0.4411820000000  0.5495680000000 1.0
C      1  0.5382530000000  0.5304050000000  0.4266170000000 1.0
C      1  0.4854340000000  0.5761590000000  0.5347910000000 1.0
C      1  0.5052630000000  0.4992190000000  0.5911460000000 1.0
C      1  0.5594410000000  0.4850880000000  0.4287820000000 1.0
C      1  0.5101930000000  0.5135960000000  0.4788490000000 1.0
C      1  0.4889540000000  0.5553050000000  0.5545880000000 1.0
C      1  0.5133630000000  0.5517130000000  0.4523960000000 1.0
C      1  0.5427480000000  0.5473900000000  0.4505880000000 1.0
C      1  0.4454680000000  0.4444600000000  0.4722490000000 1.0
C      1  0.4921220000000  0.4295130000000  0.5613860000000 1.0
C      1  0.4537710000000  0.5454690000000  0.4541150000000 1.0
C      1  0.4185810000000  0.4870650000000  0.4804480000000 1.0
C      1  0.4751610000000  0.5313230000000  0.5411770000000 1.0
C      1  0.4371720000000  0.4684060000000  0.4901330000000 1.0
C      1  0.4600430000000  0.4809840000000  0.4313670000000 1.0
C      1  0.5520170000000  0.4746620000000  0.4551000000000 1.0
C      1  0.4574610000000  0.4503360000000  0.5377100000000 1.0
C      1  0.4604140000000  0.5718360000000  0.5186080000000 1.0
C      1  0.4618880000000  0.5094120000000  0.4824300000000 1.0
C      1  0.4644400000000  0.4695560000000  0.5802900000000 1.0
C      1  0.4872130000000  0.4428950000000  0.4743020000000 1.0
C      1  0.4624290000000  0.4827590000000  0.4995960000000 1.0
C      1  0.4514230000000  0.5457720000000  0.5237590000000 1.0
C      1  0.4483600000000  0.5723840000000  0.4653480000000 1.0
C      1  0.5100320000000  0.4593140000000  0.5866560000000 1.0
C      1  0.4308630000000  0.5112110000000  0.4739380000000 1.0
C      1  0.5495400000000  0.5071230000000  0.4154110000000 1.0
C      1  0.5758590000000  0.4922180000000  0.5225760000000 1.0
C      1  0.4468730000000  0.5076140000000  0.4359030000000 1.0
C      1  0.4344560000000  0.5234580000000  0.4466510000000 1.0
END
