TITL C-4164244-2836-443 8.01103858689499 125000 -15546.5944820002 0 0 105 (C1) n - 1
REM
REM in /home/nfs/bkarasulu/CARBON/AIRSS/Generating-Clusters/ReaxFF-fromJPCA2015/Units_Real/with-SteepDescent/Only-C1/SD-CG/Try1-3A/FIRE-CG
REM
REM
REM
REM
REM
REM ./C.cell (11c1c37f851c82e70ff6c80c92926a4b)
REM
REM compiler GCC version 9.2.1 20190827 (Red Hat 9.2.1-1)
REM options -cpp -mtune=generic -march=x86-64 -g -O0 -fpre-include=/usr/include/finclude/math-vector-fortran.h
REM seed 1584546340 970177740 613801817 -688401147 1285673646 890735661 1207836689 1812660419 668506972 -986770740 -2067894512 1958718315 -1075956760 1196860 -2043118877 746578547 -2128603801 -508629925 572516529 761709262 -1981733882 1748245520 1266938918 -1610894273 -1629626884 -2022463476 -1976814817 688208064 356101779 -528908134 1167884739 803953064 1860339487
REM
CELL 1.54180   50.00000   50.00000   50.00000   90.00000   90.00000   90.00000
LATT -1
SFAC C  
C      1  0.5723730000000  0.4590370000000  0.5052820000000 1.0
C      1  0.5164300000000  0.4892000000000  0.5359930000000 1.0
C      1  0.4139870000000  0.5134400000000  0.5774870000000 1.0
C      1  0.4964040000000  0.5708440000000  0.5477330000000 1.0
C      1  0.4691150000000  0.5600460000000  0.5433410000000 1.0
C      1  0.4130860000000  0.5182220000000  0.4835370000000 1.0
C      1  0.5105010000000  0.4242930000000  0.4520680000000 1.0
C      1  0.4403070000000  0.4765090000000  0.5300240000000 1.0
C      1  0.4487670000000  0.5377600000000  0.4513990000000 1.0
C      1  0.5132740000000  0.5680480000000  0.5234860000000 1.0
C      1  0.5737800000000  0.5153150000000  0.5449850000000 1.0
C      1  0.5177240000000  0.4533980000000  0.4911140000000 1.0
C      1  0.4292980000000  0.4338600000000  0.5074610000000 1.0
C      1  0.5468450000000  0.4529820000000  0.5210840000000 1.0
C      1  0.5019780000000  0.5410370000000  0.5773780000000 1.0
C      1  0.5405320000000  0.4705970000000  0.5447600000000 1.0
C      1  0.4732990000000  0.5230000000000  0.5111490000000 1.0
C      1  0.5480300000000  0.4940180000000  0.4407630000000 1.0
C      1  0.4634210000000  0.4065560000000  0.5317070000000 1.0
C      1  0.5222990000000  0.5344850000000  0.5154360000000 1.0
C      1  0.5687980000000  0.4892780000000  0.5408750000000 1.0
C      1  0.4557530000000  0.5884160000000  0.4684170000000 1.0
C      1  0.5173950000000  0.5620570000000  0.5667980000000 1.0
C      1  0.5098780000000  0.4139500000000  0.5429340000000 1.0
C      1  0.5016160000000  0.4975520000000  0.4720980000000 1.0
C      1  0.4344940000000  0.5148660000000  0.4621220000000 1.0
C      1  0.4685750000000  0.4054030000000  0.4909850000000 1.0
C      1  0.4503660000000  0.5657630000000  0.5211560000000 1.0
C      1  0.4144450000000  0.4908300000000  0.5285770000000 1.0
C      1  0.5092250000000  0.4929180000000  0.5922920000000 1.0
C      1  0.4541260000000  0.4777350000000  0.3958860000000 1.0
C      1  0.5871860000000  0.5784450000000  0.4679730000000 1.0
C      1  0.4533710000000  0.5565980000000  0.4730830000000 1.0
C      1  0.5744770000000  0.5349460000000  0.4982090000000 1.0
C      1  0.5388960000000  0.5212750000000  0.5651530000000 1.0
C      1  0.5627430000000  0.5380300000000  0.5586680000000 1.0
C      1  0.4786500000000  0.5877450000000  0.4852470000000 1.0
C      1  0.5173030000000  0.5634400000000  0.4574130000000 1.0
C      1  0.4200040000000  0.5603260000000  0.5202740000000 1.0
C      1  0.5728250000000  0.4430330000000  0.4549120000000 1.0
C      1  0.4904160000000  0.5462200000000  0.4158180000000 1.0
C      1  0.4988850000000  0.5257730000000  0.4934550000000 1.0
C      1  0.4415200000000  0.5230860000000  0.5809020000000 1.0
C      1  0.5229550000000  0.5166930000000  0.5408540000000 1.0
C      1  0.5857450000000  0.5275240000000  0.4508280000000 1.0
C      1  0.4562930000000  0.4302340000000  0.5489590000000 1.0
C      1  0.5140080000000  0.4248690000000  0.4799430000000 1.0
C      1  0.5493880000000  0.5347240000000  0.5064920000000 1.0
C      1  0.4378360000000  0.4476300000000  0.5313990000000 1.0
C      1  0.5455520000000  0.5620270000000  0.5551560000000 1.0
C      1  0.5610610000000  0.4541700000000  0.4352760000000 1.0
C      1  0.5531960000000  0.5852820000000  0.5067130000000 1.0
C      1  0.4633770000000  0.5405150000000  0.4252020000000 1.0
C      1  0.4981960000000  0.4727890000000  0.4871690000000 1.0
C      1  0.4918970000000  0.4014950000000  0.5250130000000 1.0
C      1  0.5420110000000  0.5788020000000  0.5310690000000 1.0
C      1  0.5491240000000  0.4713460000000  0.4196220000000 1.0
C      1  0.5020350000000  0.4842390000000  0.3961790000000 1.0
C      1  0.5872760000000  0.4136050000000  0.4796320000000 1.0
C      1  0.5917880000000  0.3903460000000  0.4859470000000 1.0
C      1  0.4202060000000  0.5534970000000  0.5474630000000 1.0
C      1  0.4461890000000  0.4086110000000  0.5077310000000 1.0
C      1  0.4801530000000  0.4632680000000  0.4365350000000 1.0
C      1  0.4724640000000  0.4694520000000  0.4946650000000 1.0
C      1  0.5169540000000  0.5517010000000  0.4287520000000 1.0
C      1  0.4779170000000  0.4883870000000  0.4507900000000 1.0
C      1  0.5208040000000  0.4296300000000  0.5560370000000 1.0
C      1  0.5892800000000  0.5073910000000  0.4984240000000 1.0
C      1  0.5861520000000  0.5502030000000  0.4714530000000 1.0
C      1  0.5397220000000  0.5369550000000  0.4307590000000 1.0
C      1  0.4735600000000  0.4457480000000  0.5637230000000 1.0
C      1  0.4581810000000  0.4567330000000  0.4155060000000 1.0
C      1  0.4994160000000  0.5515880000000  0.4794030000000 1.0
C      1  0.4959340000000  0.4058420000000  0.4947120000000 1.0
C      1  0.4273890000000  0.4497070000000  0.4824450000000 1.0
C      1  0.5046570000000  0.4650560000000  0.5821350000000 1.0
C      1  0.4585410000000  0.5471660000000  0.5002330000000 1.0
C      1  0.4884290000000  0.4826760000000  0.5372260000000 1.0
C      1  0.4670010000000  0.5183420000000  0.5670730000000 1.0
C      1  0.5919450000000  0.5090820000000  0.4712060000000 1.0
C      1  0.4746430000000  0.5253910000000  0.4028170000000 1.0
C      1  0.4213820000000  0.5435800000000  0.5730180000000 1.0
C      1  0.5824160000000  0.4404780000000  0.4796200000000 1.0
C      1  0.5385780000000  0.5770040000000  0.4684160000000 1.0
C      1  0.4661850000000  0.4876240000000  0.5178320000000 1.0
C      1  0.5268290000000  0.4706960000000  0.3980310000000 1.0
C      1  0.5601920000000  0.5906950000000  0.4800790000000 1.0
C      1  0.4815440000000  0.4716030000000  0.5645450000000 1.0
C      1  0.4516730000000  0.4656490000000  0.4746510000000 1.0
C      1  0.4497820000000  0.4902450000000  0.4577020000000 1.0
C      1  0.4102280000000  0.4689620000000  0.4929550000000 1.0
C      1  0.4907300000000  0.5174340000000  0.5854820000000 1.0
C      1  0.4970200000000  0.4415050000000  0.4446790000000 1.0
C      1  0.4028300000000  0.4943250000000  0.5003880000000 1.0
C      1  0.5362140000000  0.5033480000000  0.5904450000000 1.0
C      1  0.5256950000000  0.4957180000000  0.4558420000000 1.0
C      1  0.4023940000000  0.4988680000000  0.5551560000000 1.0
C      1  0.5008190000000  0.5753190000000  0.4967010000000 1.0
C      1  0.5841990000000  0.4853080000000  0.5174560000000 1.0
C      1  0.5620480000000  0.5220600000000  0.4336940000000 1.0
C      1  0.5435990000000  0.4653040000000  0.4958080000000 1.0
C      1  0.4712060000000  0.5310610000000  0.5404370000000 1.0
C      1  0.4143780000000  0.5391070000000  0.5011800000000 1.0
C      1  0.5279680000000  0.4539340000000  0.5674900000000 1.0
C      1  0.4784170000000  0.4971210000000  0.3944200000000 1.0
END
