TITL C-4164238-4211-75 -0.620825028162969 125000 -15964.4720553909 0 0 106 (C1) n - 1
REM
REM in /home/nfs/bkarasulu/CARBON/AIRSS/Generating-Clusters/ReaxFF-fromJPCA2015/Units_Real/with-SteepDescent/Only-C1/SD-CG/Try1-3A/FIRE-CG
REM
REM
REM
REM
REM
REM ./C.cell (11c1c37f851c82e70ff6c80c92926a4b)
REM
REM compiler GCC version 9.2.1 20190827 (Red Hat 9.2.1-1)
REM options -cpp -mtune=generic -march=x86-64 -g -O0 -fpre-include=/usr/include/finclude/math-vector-fortran.h
REM seed -960715881 -1165800240 460455235 1860135037 -986505095 1857034889 1426674465 -2116867404 -1940999750 954856422 1734222803 -546379000 -1534463468 831572806 1978484044 839789226 -926902723 582142879 604033023 -902614323 -1586261217 -1687615822 -1232262442 -370033082 1713534480 1903044397 -630649810 -69887370 1857270716 -1530102909 -86247530 137782531 760069468
REM
CELL 1.54180   50.00000   50.00000   50.00000   90.00000   90.00000   90.00000
LATT -1
SFAC C  
C      1  0.5572600000000  0.5526820000000  0.4346890000000 1.0
C      1  0.4978730000000  0.5891460000000  0.4799460000000 1.0
C      1  0.4788140000000  0.4301800000000  0.4857940000000 1.0
C      1  0.4133600000000  0.4544250000000  0.4931880000000 1.0
C      1  0.4063030000000  0.5111640000000  0.5375590000000 1.0
C      1  0.4656700000000  0.5348890000000  0.5578610000000 1.0
C      1  0.4889650000000  0.5759720000000  0.5446640000000 1.0
C      1  0.5630200000000  0.5311570000000  0.5306840000000 1.0
C      1  0.4116090000000  0.4628280000000  0.5214280000000 1.0
C      1  0.4971210000000  0.5769220000000  0.4297470000000 1.0
C      1  0.4938760000000  0.5491540000000  0.5520850000000 1.0
C      1  0.5413180000000  0.5085680000000  0.5254050000000 1.0
C      1  0.5419260000000  0.4247180000000  0.4772610000000 1.0
C      1  0.5122720000000  0.5223330000000  0.4224710000000 1.0
C      1  0.4905800000000  0.4180340000000  0.5246280000000 1.0
C      1  0.4952700000000  0.4476350000000  0.4435390000000 1.0
C      1  0.4421480000000  0.5565590000000  0.5138470000000 1.0
C      1  0.5363780000000  0.5312460000000  0.4378730000000 1.0
C      1  0.5462110000000  0.4815980000000  0.5298520000000 1.0
C      1  0.4843310000000  0.4593260000000  0.4917170000000 1.0
C      1  0.5235180000000  0.4755380000000  0.4728690000000 1.0
C      1  0.5119490000000  0.5848950000000  0.5052140000000 1.0
C      1  0.4158330000000  0.5228460000000  0.4817590000000 1.0
C      1  0.5020370000000  0.4121850000000  0.5013930000000 1.0
C      1  0.5716190000000  0.4952270000000  0.5651960000000 1.0
C      1  0.4351650000000  0.4689410000000  0.5648130000000 1.0
C      1  0.5093230000000  0.5711300000000  0.4583850000000 1.0
C      1  0.5586700000000  0.5625930000000  0.4631900000000 1.0
C      1  0.4519470000000  0.4887540000000  0.5776500000000 1.0
C      1  0.5077170000000  0.4519730000000  0.4168990000000 1.0
C      1  0.5417930000000  0.5529310000000  0.5375350000000 1.0
C      1  0.4888670000000  0.5096980000000  0.5969380000000 1.0
C      1  0.4651480000000  0.5069820000000  0.4245480000000 1.0
C      1  0.5511580000000  0.5440390000000  0.4856070000000 1.0
C      1  0.5449370000000  0.4927850000000  0.4644010000000 1.0
C      1  0.4938000000000  0.4477130000000  0.5603160000000 1.0
C      1  0.5112980000000  0.4700790000000  0.4983670000000 1.0
C      1  0.5280490000000  0.4751840000000  0.5827250000000 1.0
C      1  0.5312010000000  0.4137230000000  0.4995150000000 1.0
C      1  0.5124010000000  0.4949390000000  0.4129580000000 1.0
C      1  0.4659750000000  0.5136130000000  0.5775940000000 1.0
C      1  0.5065170000000  0.4885870000000  0.5909430000000 1.0
C      1  0.5543720000000  0.4384360000000  0.4598930000000 1.0
C      1  0.4856050000000  0.5452950000000  0.4968710000000 1.0
C      1  0.5173300000000  0.5169560000000  0.5155470000000 1.0
C      1  0.5984670000000  0.5016020000000  0.5249900000000 1.0
C      1  0.5478670000000  0.5808810000000  0.4265830000000 1.0
C      1  0.4690870000000  0.5838260000000  0.4767200000000 1.0
C      1  0.5939040000000  0.5147250000000  0.4984510000000 1.0
C      1  0.4292150000000  0.5242530000000  0.4558560000000 1.0
C      1  0.5068810000000  0.5423520000000  0.5186190000000 1.0
C      1  0.4392890000000  0.4954240000000  0.5532580000000 1.0
C      1  0.4750280000000  0.5582880000000  0.4306760000000 1.0
C      1  0.5694380000000  0.4398790000000  0.5128710000000 1.0
C      1  0.5489760000000  0.4240330000000  0.5234440000000 1.0
C      1  0.4530220000000  0.5021590000000  0.5037720000000 1.0
C      1  0.5116330000000  0.5297170000000  0.6013510000000 1.0
C      1  0.4995680000000  0.4703800000000  0.5429320000000 1.0
C      1  0.4583760000000  0.5690320000000  0.4541080000000 1.0
C      1  0.4759870000000  0.5077600000000  0.4857930000000 1.0
C      1  0.4655500000000  0.5721660000000  0.5038480000000 1.0
C      1  0.5934050000000  0.4724690000000  0.5262150000000 1.0
C      1  0.5735400000000  0.5345110000000  0.5020820000000 1.0
C      1  0.5839900000000  0.5139710000000  0.5467300000000 1.0
C      1  0.5719220000000  0.4572520000000  0.4506280000000 1.0
C      1  0.5219680000000  0.4461370000000  0.5691810000000 1.0
C      1  0.5424770000000  0.5218050000000  0.4644670000000 1.0
C      1  0.4767330000000  0.4273870000000  0.5464610000000 1.0
C      1  0.4362860000000  0.5526270000000  0.4618330000000 1.0
C      1  0.4311550000000  0.4527760000000  0.5407500000000 1.0
C      1  0.4024930000000  0.4906640000000  0.5198200000000 1.0
C      1  0.4171050000000  0.4766810000000  0.4753960000000 1.0
C      1  0.5330880000000  0.5264360000000  0.5806680000000 1.0
C      1  0.5960620000000  0.4953420000000  0.4749460000000 1.0
C      1  0.4526040000000  0.4272530000000  0.5023420000000 1.0
C      1  0.4213220000000  0.4993710000000  0.4952720000000 1.0
C      1  0.5253380000000  0.5448370000000  0.5588920000000 1.0
C      1  0.4837520000000  0.5294440000000  0.4257680000000 1.0
C      1  0.5371070000000  0.4337440000000  0.5484160000000 1.0
C      1  0.4826610000000  0.4892900000000  0.5283420000000 1.0
C      1  0.4268920000000  0.5486270000000  0.4904370000000 1.0
C      1  0.4348980000000  0.4747900000000  0.4530240000000 1.0
C      1  0.5889630000000  0.4674040000000  0.4734490000000 1.0
C      1  0.4999690000000  0.4740860000000  0.4560870000000 1.0
C      1  0.5228850000000  0.4645920000000  0.5254600000000 1.0
C      1  0.4459820000000  0.4471540000000  0.4573660000000 1.0
C      1  0.5293710000000  0.4721690000000  0.4201190000000 1.0
C      1  0.5301880000000  0.5610810000000  0.5112910000000 1.0
C      1  0.4436540000000  0.5438620000000  0.5411030000000 1.0
C      1  0.5455950000000  0.4984500000000  0.5785040000000 1.0
C      1  0.4720620000000  0.4352160000000  0.4555610000000 1.0
C      1  0.5708770000000  0.4737010000000  0.5451960000000 1.0
C      1  0.4878970000000  0.5899300000000  0.5210530000000 1.0
C      1  0.4957280000000  0.5415100000000  0.4709320000000 1.0
C      1  0.4428080000000  0.5014980000000  0.4427360000000 1.0
C      1  0.5891040000000  0.4552840000000  0.5022360000000 1.0
C      1  0.4977690000000  0.4996250000000  0.5058780000000 1.0
C      1  0.4835380000000  0.4604310000000  0.4002710000000 1.0
C      1  0.4338730000000  0.4363280000000  0.4825810000000 1.0
C      1  0.5383900000000  0.5826570000000  0.4555090000000 1.0
C      1  0.5506820000000  0.4751180000000  0.4405570000000 1.0
C      1  0.4778640000000  0.4807970000000  0.4736270000000 1.0
C      1  0.4570280000000  0.4947700000000  0.5291060000000 1.0
C      1  0.4828990000000  0.4892210000000  0.4081040000000 1.0
C      1  0.4515100000000  0.4338250000000  0.5307380000000 1.0
C      1  0.4237480000000  0.5258230000000  0.5522280000000 1.0
END
