TITL C-4164244-2836-78 100.968055678194 125000 -19804.3199960281 0 0 133 (C1) n - 1
REM
REM in /home/nfs/bkarasulu/CARBON/AIRSS/Generating-Clusters/ReaxFF-fromJPCA2015/Units_Real/with-SteepDescent/Only-C1/SD-CG/Try1-3A/FIRE-CG
REM
REM
REM
REM
REM
REM ./C.cell (11c1c37f851c82e70ff6c80c92926a4b)
REM
REM compiler GCC version 9.2.1 20190827 (Red Hat 9.2.1-1)
REM options -cpp -mtune=generic -march=x86-64 -g -O0 -fpre-include=/usr/include/finclude/math-vector-fortran.h
REM seed 1585467669 -1776964171 -1057159476 1685228189 279888926 1735899500 564345802 1560903751 -1175194411 498452423 -1603233989 1734592357 -177267622 1544475750 66894489 -1735946502 1996183512 1656280158 -1864147947 493568630 2050189082 -1401478757 88348070 225888372 -1949478580 -937051684 -2114189572 -832334133 1150132080 999961558 1272236723 765424351 240172545
REM
CELL 1.54180   50.00000   50.00000   50.00000   90.00000   90.00000   90.00000
LATT -1
SFAC C  
C      1  0.4403040000000  0.5432310000000  0.5659420000000 1.0
C      1  0.4075170000000  0.5159740000000  0.4771580000000 1.0
C      1  0.4494540000000  0.5121400000000  0.4282370000000 1.0
C      1  0.5723410000000  0.5293830000000  0.4996090000000 1.0
C      1  0.5096410000000  0.5020920000000  0.4524770000000 1.0
C      1  0.5121220000000  0.5584500000000  0.4682620000000 1.0
C      1  0.5040790000000  0.4143010000000  0.5411860000000 1.0
C      1  0.5458760000000  0.4181870000000  0.5054690000000 1.0
C      1  0.4694040000000  0.4691320000000  0.5827130000000 1.0
C      1  0.4501340000000  0.4895740000000  0.5741480000000 1.0
C      1  0.4966070000000  0.4718660000000  0.5924250000000 1.0
C      1  0.5685000000000  0.4481520000000  0.4467990000000 1.0
C      1  0.5013950000000  0.5151450000000  0.4272500000000 1.0
C      1  0.5526170000000  0.5812940000000  0.4649570000000 1.0
C      1  0.4990650000000  0.4497820000000  0.4774060000000 1.0
C      1  0.5079920000000  0.5109870000000  0.5507770000000 1.0
C      1  0.5234210000000  0.5023830000000  0.4770590000000 1.0
C      1  0.5148720000000  0.5092410000000  0.5029350000000 1.0
C      1  0.5607480000000  0.5261190000000  0.5569250000000 1.0
C      1  0.4031440000000  0.5058470000000  0.5044520000000 1.0
C      1  0.5711950000000  0.4772170000000  0.4382500000000 1.0
C      1  0.4904920000000  0.5421640000000  0.4745720000000 1.0
C      1  0.5132320000000  0.5619810000000  0.5834890000000 1.0
C      1  0.4673580000000  0.4445450000000  0.5669130000000 1.0
C      1  0.4276620000000  0.4727400000000  0.4686350000000 1.0
C      1  0.4406820000000  0.5361400000000  0.4441320000000 1.0
C      1  0.4335030000000  0.4657800000000  0.4251120000000 1.0
C      1  0.5013520000000  0.5012690000000  0.5972750000000 1.0
C      1  0.4866060000000  0.5507710000000  0.5813510000000 1.0
C      1  0.5047400000000  0.4641500000000  0.5345270000000 1.0
C      1  0.4579540000000  0.5180900000000  0.5655600000000 1.0
C      1  0.4889230000000  0.6078220000000  0.5234340000000 1.0
C      1  0.4891180000000  0.5631920000000  0.4208740000000 1.0
C      1  0.5362230000000  0.5629940000000  0.4809170000000 1.0
C      1  0.4476210000000  0.5096660000000  0.5167370000000 1.0
C      1  0.5268940000000  0.4611750000000  0.5173050000000 1.0
C      1  0.4756060000000  0.4591540000000  0.4907380000000 1.0
C      1  0.5829000000000  0.4462590000000  0.5314290000000 1.0
C      1  0.4256960000000  0.5575010000000  0.5206170000000 1.0
C      1  0.4612700000000  0.5960780000000  0.5251970000000 1.0
C      1  0.5368590000000  0.5223810000000  0.5152930000000 1.0
C      1  0.5341170000000  0.5432680000000  0.5943830000000 1.0
C      1  0.4621770000000  0.5624240000000  0.5694030000000 1.0
C      1  0.4863380000000  0.5161130000000  0.4647560000000 1.0
C      1  0.4294110000000  0.4313720000000  0.4899030000000 1.0
C      1  0.4130120000000  0.4951460000000  0.4575280000000 1.0
C      1  0.5284250000000  0.5033730000000  0.3899710000000 1.0
C      1  0.4527000000000  0.5592140000000  0.4389880000000 1.0
C      1  0.5405620000000  0.4496440000000  0.5736220000000 1.0
C      1  0.5644490000000  0.4243400000000  0.5305620000000 1.0
C      1  0.4275910000000  0.4938350000000  0.4308900000000 1.0
C      1  0.5796320000000  0.4361320000000  0.4716830000000 1.0
C      1  0.4381380000000  0.4160720000000  0.5129850000000 1.0
C      1  0.4289130000000  0.4360970000000  0.5312410000000 1.0
C      1  0.5362060000000  0.5547140000000  0.4231650000000 1.0
C      1  0.5002560000000  0.4022200000000  0.4690460000000 1.0
C      1  0.4389930000000  0.4294980000000  0.4617020000000 1.0
C      1  0.4082540000000  0.5162490000000  0.5322320000000 1.0
C      1  0.5423470000000  0.4774280000000  0.5628440000000 1.0
C      1  0.4952590000000  0.5957140000000  0.5513040000000 1.0
C      1  0.5107410000000  0.4616270000000  0.4198440000000 1.0
C      1  0.4807610000000  0.3851280000000  0.5107400000000 1.0
C      1  0.4470480000000  0.5158540000000  0.4882560000000 1.0
C      1  0.4946880000000  0.4335020000000  0.5621740000000 1.0
C      1  0.5591210000000  0.5419040000000  0.5798440000000 1.0
C      1  0.5813950000000  0.5739150000000  0.4666290000000 1.0
C      1  0.5106090000000  0.5854690000000  0.4583410000000 1.0
C      1  0.4453890000000  0.5870720000000  0.4998460000000 1.0
C      1  0.5109940000000  0.4491080000000  0.5805650000000 1.0
C      1  0.4832450000000  0.4728200000000  0.4186610000000 1.0
C      1  0.5149840000000  0.4820760000000  0.5541010000000 1.0
C      1  0.4237290000000  0.4510210000000  0.4487070000000 1.0
C      1  0.4553820000000  0.4776450000000  0.4778500000000 1.0
C      1  0.5906560000000  0.5455460000000  0.4660420000000 1.0
C      1  0.5221940000000  0.5183980000000  0.6003270000000 1.0
C      1  0.5772290000000  0.5014530000000  0.4526340000000 1.0
C      1  0.5878140000000  0.4734880000000  0.5345160000000 1.0
C      1  0.5525940000000  0.4327710000000  0.5547250000000 1.0
C      1  0.5997090000000  0.5322040000000  0.4917120000000 1.0
C      1  0.4675070000000  0.5863750000000  0.5532680000000 1.0
C      1  0.4602550000000  0.5282350000000  0.5339140000000 1.0
C      1  0.4590980000000  0.4835550000000  0.5246770000000 1.0
C      1  0.4060540000000  0.4777390000000  0.5149720000000 1.0
C      1  0.5535670000000  0.5127080000000  0.4050080000000 1.0
C      1  0.5188330000000  0.5813820000000  0.5625280000000 1.0
C      1  0.5966240000000  0.4768120000000  0.5059200000000 1.0
C      1  0.5619790000000  0.5557990000000  0.5565390000000 1.0
C      1  0.4732160000000  0.5568590000000  0.4922950000000 1.0
C      1  0.4291180000000  0.5628500000000  0.4956490000000 1.0
C      1  0.5027640000000  0.5473140000000  0.5245030000000 1.0
C      1  0.5088670000000  0.5438970000000  0.4179050000000 1.0
C      1  0.4697550000000  0.5809240000000  0.4318280000000 1.0
C      1  0.5579530000000  0.5358670000000  0.4232030000000 1.0
C      1  0.5772350000000  0.5290590000000  0.4450740000000 1.0
C      1  0.5586900000000  0.4845840000000  0.4130480000000 1.0
C      1  0.4689320000000  0.5836990000000  0.4820520000000 1.0
C      1  0.5543050000000  0.4218840000000  0.4771420000000 1.0
C      1  0.5356420000000  0.5831700000000  0.4377250000000 1.0
C      1  0.5403240000000  0.5718630000000  0.5449220000000 1.0
C      1  0.4980800000000  0.5189670000000  0.5235840000000 1.0
C      1  0.4100960000000  0.4885430000000  0.5422180000000 1.0
C      1  0.4207160000000  0.5419690000000  0.5429460000000 1.0
C      1  0.5731050000000  0.5037880000000  0.4834450000000 1.0
C      1  0.4291280000000  0.5365290000000  0.4748010000000 1.0
C      1  0.4301970000000  0.4752130000000  0.5601890000000 1.0
C      1  0.5279830000000  0.5618690000000  0.5207220000000 1.0
C      1  0.4608130000000  0.4547680000000  0.4250600000000 1.0
C      1  0.5783460000000  0.4588230000000  0.4900830000000 1.0
C      1  0.4822920000000  0.5923980000000  0.4572450000000 1.0
C      1  0.4811350000000  0.3976800000000  0.5359750000000 1.0
C      1  0.5619450000000  0.4875890000000  0.5430450000000 1.0
C      1  0.4632270000000  0.4051910000000  0.5158060000000 1.0
C      1  0.4647060000000  0.5027330000000  0.4747240000000 1.0
C      1  0.5047700000000  0.3935700000000  0.4956970000000 1.0
C      1  0.4935130000000  0.4284560000000  0.4541190000000 1.0
C      1  0.5472850000000  0.4806970000000  0.5188080000000 1.0
C      1  0.4764740000000  0.5014010000000  0.4202250000000 1.0
C      1  0.5484540000000  0.5472530000000  0.5030690000000 1.0
C      1  0.5249160000000  0.4518540000000  0.4901540000000 1.0
C      1  0.4412820000000  0.4484570000000  0.5544230000000 1.0
C      1  0.5175750000000  0.4401860000000  0.4380080000000 1.0
C      1  0.5506430000000  0.4640690000000  0.4829280000000 1.0
C      1  0.4787180000000  0.4624110000000  0.5203400000000 1.0
C      1  0.5486090000000  0.4897340000000  0.4899660000000 1.0
C      1  0.5203040000000  0.4109740000000  0.5162320000000 1.0
C      1  0.6025600000000  0.5027180000000  0.4933040000000 1.0
C      1  0.5434220000000  0.4339390000000  0.4507570000000 1.0
C      1  0.4870750000000  0.5214990000000  0.5769220000000 1.0
C      1  0.5355310000000  0.5207870000000  0.5429950000000 1.0
C      1  0.4179200000000  0.4513910000000  0.5089210000000 1.0
C      1  0.4626000000000  0.4347390000000  0.4458790000000 1.0
C      1  0.5315330000000  0.4762520000000  0.4034750000000 1.0
C      1  0.4741490000000  0.5507730000000  0.5214940000000 1.0
END
