TITL C-4164235-1454-503 11.3779228661618 125000 -26166.6377722389 0 0 175 (C1) n - 1
REM
REM in /home/nfs/bkarasulu/CARBON/AIRSS/Generating-Clusters/ReaxFF-fromJPCA2015/Units_Real/with-SteepDescent/Only-C1/SD-CG/Try1-3A/FIRE-CG
REM
REM
REM
REM
REM
REM ./C.cell (11c1c37f851c82e70ff6c80c92926a4b)
REM
REM compiler GCC version 9.2.1 20190827 (Red Hat 9.2.1-1)
REM options -cpp -mtune=generic -march=x86-64 -g -O0 -fpre-include=/usr/include/finclude/math-vector-fortran.h
REM seed 1025397103 283403823 1577304849 858131792 1711670279 658848666 -381524400 652410870 -1111353100 1001328005 -2086759495 -1483965598 2120217978 21581325 -2121940251 -704317341 1778681578 -1676199951 -1422953167 -1472743763 555481085 -547474943 442663372 2037087265 367478838 1532180914 -1025183531 646318795 806740943 -1517537279 492042828 -1894172786 -250299078
REM
CELL 1.54180   50.00000   50.00000   50.00000   90.00000   90.00000   90.00000
LATT -1
SFAC C  
C      1  0.4023140000000  0.5312540000000  0.5138830000000 1.0
C      1  0.5206030000000  0.5677510000000  0.5899530000000 1.0
C      1  0.5107180000000  0.5424070000000  0.5241950000000 1.0
C      1  0.4384620000000  0.5398540000000  0.4213180000000 1.0
C      1  0.4951790000000  0.4252890000000  0.5073580000000 1.0
C      1  0.4462240000000  0.4024790000000  0.4648780000000 1.0
C      1  0.5495220000000  0.4148680000000  0.4590460000000 1.0
C      1  0.4122570000000  0.4340590000000  0.4789360000000 1.0
C      1  0.4989540000000  0.4045280000000  0.5282380000000 1.0
C      1  0.5003310000000  0.6109070000000  0.4817650000000 1.0
C      1  0.5356770000000  0.4520370000000  0.5012610000000 1.0
C      1  0.5282760000000  0.4029590000000  0.5331460000000 1.0
C      1  0.4408590000000  0.5338230000000  0.4813200000000 1.0
C      1  0.5173960000000  0.5188200000000  0.5721920000000 1.0
C      1  0.4310460000000  0.5160750000000  0.4067790000000 1.0
C      1  0.4834030000000  0.5150980000000  0.6151000000000 1.0
C      1  0.4760470000000  0.4978620000000  0.5142330000000 1.0
C      1  0.4749780000000  0.3892710000000  0.4972140000000 1.0
C      1  0.4382010000000  0.5808470000000  0.5119650000000 1.0
C      1  0.4468420000000  0.5075150000000  0.5414950000000 1.0
C      1  0.5202890000000  0.5760620000000  0.4586810000000 1.0
C      1  0.5896820000000  0.4365030000000  0.5204590000000 1.0
C      1  0.4542690000000  0.4409860000000  0.4305310000000 1.0
C      1  0.4680580000000  0.4482480000000  0.5417100000000 1.0
C      1  0.5285120000000  0.5596350000000  0.4386860000000 1.0
C      1  0.4878100000000  0.5561350000000  0.4164280000000 1.0
C      1  0.4846380000000  0.4383810000000  0.4338050000000 1.0
C      1  0.5812480000000  0.5409520000000  0.5413110000000 1.0
C      1  0.4832740000000  0.4766230000000  0.4696940000000 1.0
C      1  0.5372040000000  0.6018170000000  0.5166080000000 1.0
C      1  0.4320690000000  0.4611490000000  0.5090390000000 1.0
C      1  0.4379730000000  0.4499170000000  0.4832760000000 1.0
C      1  0.5935940000000  0.4911380000000  0.4762420000000 1.0
C      1  0.4211330000000  0.5155340000000  0.5544130000000 1.0
C      1  0.5335450000000  0.4813140000000  0.4148460000000 1.0
C      1  0.5340080000000  0.4605680000000  0.5987500000000 1.0
C      1  0.4698890000000  0.5402330000000  0.6047270000000 1.0
C      1  0.4654230000000  0.5415740000000  0.4942450000000 1.0
C      1  0.5612890000000  0.4381570000000  0.5639460000000 1.0
C      1  0.4390850000000  0.4944790000000  0.4875130000000 1.0
C      1  0.5213470000000  0.5530570000000  0.5000670000000 1.0
C      1  0.5152900000000  0.4423000000000  0.5870710000000 1.0
C      1  0.4714340000000  0.5598490000000  0.5825510000000 1.0
C      1  0.4401740000000  0.4254860000000  0.4496690000000 1.0
C      1  0.5252170000000  0.4015910000000  0.4691970000000 1.0
C      1  0.4972970000000  0.5757880000000  0.5739790000000 1.0
C      1  0.4262260000000  0.5554800000000  0.5531070000000 1.0
C      1  0.4926330000000  0.5164400000000  0.5570970000000 1.0
C      1  0.5720590000000  0.4258270000000  0.4743870000000 1.0
C      1  0.5677900000000  0.5739310000000  0.4865460000000 1.0
C      1  0.5936890000000  0.5623650000000  0.4748540000000 1.0
C      1  0.4746250000000  0.5969320000000  0.4829010000000 1.0
C      1  0.4988540000000  0.4909040000000  0.6092370000000 1.0
C      1  0.4727680000000  0.3907140000000  0.5247930000000 1.0
C      1  0.5673750000000  0.5311030000000  0.5013300000000 1.0
C      1  0.4473050000000  0.4669140000000  0.4168220000000 1.0
C      1  0.6022090000000  0.5182560000000  0.4839700000000 1.0
C      1  0.4912650000000  0.4659700000000  0.3922420000000 1.0
C      1  0.4071330000000  0.5344790000000  0.5430000000000 1.0
C      1  0.5709400000000  0.4854480000000  0.5838630000000 1.0
C      1  0.4174020000000  0.4391890000000  0.5465400000000 1.0
C      1  0.4885720000000  0.5997070000000  0.5269710000000 1.0
C      1  0.4742400000000  0.3905900000000  0.4699170000000 1.0
C      1  0.5560430000000  0.5886170000000  0.4455000000000 1.0
C      1  0.5092690000000  0.6100780000000  0.5095890000000 1.0
C      1  0.4306260000000  0.5118290000000  0.4675700000000 1.0
C      1  0.5607770000000  0.4846350000000  0.5207540000000 1.0
C      1  0.5147920000000  0.4840610000000  0.3911780000000 1.0
C      1  0.5249360000000  0.4471050000000  0.4748490000000 1.0
C      1  0.4816620000000  0.5172050000000  0.4937620000000 1.0
C      1  0.6057820000000  0.4602680000000  0.5152110000000 1.0
C      1  0.5087610000000  0.5421750000000  0.4288740000000 1.0
C      1  0.5519100000000  0.5043170000000  0.5980130000000 1.0
C      1  0.4859790000000  0.5380410000000  0.5376460000000 1.0
C      1  0.4874920000000  0.4409850000000  0.5928790000000 1.0
C      1  0.4437650000000  0.4936790000000  0.5929470000000 1.0
C      1  0.3955240000000  0.4432330000000  0.5014970000000 1.0
C      1  0.4464570000000  0.5547160000000  0.5723330000000 1.0
C      1  0.5051650000000  0.5107380000000  0.3803950000000 1.0
C      1  0.4287830000000  0.4894450000000  0.4203160000000 1.0
C      1  0.4478800000000  0.4988730000000  0.5144990000000 1.0
C      1  0.4933720000000  0.5056560000000  0.4695700000000 1.0
C      1  0.5749750000000  0.4528610000000  0.5419970000000 1.0
C      1  0.3967240000000  0.5468650000000  0.4565690000000 1.0
C      1  0.6032450000000  0.4650370000000  0.4859820000000 1.0
C      1  0.4244020000000  0.4052410000000  0.5135820000000 1.0
C      1  0.4362760000000  0.4917780000000  0.4476990000000 1.0
C      1  0.4548080000000  0.5158250000000  0.6095040000000 1.0
C      1  0.5600040000000  0.4943150000000  0.4093440000000 1.0
C      1  0.5505560000000  0.5522790000000  0.4939620000000 1.0
C      1  0.5255170000000  0.4573500000000  0.4476130000000 1.0
C      1  0.5376830000000  0.4310020000000  0.4365210000000 1.0
C      1  0.5641970000000  0.4848970000000  0.4732720000000 1.0
C      1  0.5048670000000  0.4178030000000  0.4361850000000 1.0
C      1  0.5880760000000  0.4497630000000  0.4661900000000 1.0
C      1  0.5118090000000  0.4237480000000  0.4835860000000 1.0
C      1  0.4598950000000  0.5743830000000  0.4503530000000 1.0
C      1  0.4444950000000  0.4285460000000  0.5494090000000 1.0
C      1  0.4682780000000  0.5333930000000  0.4108700000000 1.0
C      1  0.5581560000000  0.5526840000000  0.5355440000000 1.0
C      1  0.5164770000000  0.4733360000000  0.5126840000000 1.0
C      1  0.4636670000000  0.5500100000000  0.5232780000000 1.0
C      1  0.5955880000000  0.5345370000000  0.4619880000000 1.0
C      1  0.4999220000000  0.3966730000000  0.4541410000000 1.0
C      1  0.4483580000000  0.5127390000000  0.3812340000000 1.0
C      1  0.5180720000000  0.4697410000000  0.5450350000000 1.0
C      1  0.4964900000000  0.4607580000000  0.4480130000000 1.0
C      1  0.5836900000000  0.5216370000000  0.4374190000000 1.0
C      1  0.5207350000000  0.6043540000000  0.4615090000000 1.0
C      1  0.5360560000000  0.5346870000000  0.5337260000000 1.0
C      1  0.5344400000000  0.5889300000000  0.5423150000000 1.0
C      1  0.4722210000000  0.4811130000000  0.4105440000000 1.0
C      1  0.4757600000000  0.5217180000000  0.3817090000000 1.0
C      1  0.4882030000000  0.4722500000000  0.5032740000000 1.0
C      1  0.5803360000000  0.4633870000000  0.4396200000000 1.0
C      1  0.5723280000000  0.4204650000000  0.5033140000000 1.0
C      1  0.5492850000000  0.5597890000000  0.5828340000000 1.0
C      1  0.5567190000000  0.5996340000000  0.4943230000000 1.0
C      1  0.4720730000000  0.4741870000000  0.5552440000000 1.0
C      1  0.5688760000000  0.5392890000000  0.4200500000000 1.0
C      1  0.4642510000000  0.5948570000000  0.5100130000000 1.0
C      1  0.4467910000000  0.4051060000000  0.5321710000000 1.0
C      1  0.6091330000000  0.5604240000000  0.4996560000000 1.0
C      1  0.5552970000000  0.5706400000000  0.5544690000000 1.0
C      1  0.4242110000000  0.4073540000000  0.4838440000000 1.0
C      1  0.5019300000000  0.5148450000000  0.4362510000000 1.0
C      1  0.5062660000000  0.5627850000000  0.4782960000000 1.0
C      1  0.3932790000000  0.5028900000000  0.5043890000000 1.0
C      1  0.5586650000000  0.4689980000000  0.4966250000000 1.0
C      1  0.5256760000000  0.4974380000000  0.4375980000000 1.0
C      1  0.4761730000000  0.5820530000000  0.4265740000000 1.0
C      1  0.5275350000000  0.4877940000000  0.6056370000000 1.0
C      1  0.4949910000000  0.4877650000000  0.5527420000000 1.0
C      1  0.4793050000000  0.5080030000000  0.4206280000000 1.0
C      1  0.5212790000000  0.5067310000000  0.4768870000000 1.0
C      1  0.3813530000000  0.5051140000000  0.4802060000000 1.0
C      1  0.5538960000000  0.5082830000000  0.5074940000000 1.0
C      1  0.5799030000000  0.4931870000000  0.4298310000000 1.0
C      1  0.5103120000000  0.4430420000000  0.5593000000000 1.0
C      1  0.4026430000000  0.4668830000000  0.5438520000000 1.0
C      1  0.5053660000000  0.5880980000000  0.5488230000000 1.0
C      1  0.4209760000000  0.5418010000000  0.4981750000000 1.0
C      1  0.4141590000000  0.5647320000000  0.4648010000000 1.0
C      1  0.5434640000000  0.5111840000000  0.5533370000000 1.0
C      1  0.4057930000000  0.4258410000000  0.5233390000000 1.0
C      1  0.4459670000000  0.5686740000000  0.5346350000000 1.0
C      1  0.4810620000000  0.4662260000000  0.6067910000000 1.0
C      1  0.5592760000000  0.4586300000000  0.5853430000000 1.0
C      1  0.4515160000000  0.4750700000000  0.4681780000000 1.0
C      1  0.5458350000000  0.4818860000000  0.5456980000000 1.0
C      1  0.5293370000000  0.5254750000000  0.3855740000000 1.0
C      1  0.5556870000000  0.5222600000000  0.4007160000000 1.0
C      1  0.5498830000000  0.6076040000000  0.4663070000000 1.0
C      1  0.4344840000000  0.5587650000000  0.4436500000000 1.0
C      1  0.4773370000000  0.5669840000000  0.4756860000000 1.0
C      1  0.4006990000000  0.4713370000000  0.5131830000000 1.0
C      1  0.5959030000000  0.5349170000000  0.5118070000000 1.0
C      1  0.5535730000000  0.5327260000000  0.5926280000000 1.0
C      1  0.5629960000000  0.4457760000000  0.4254900000000 1.0
C      1  0.5473630000000  0.4170240000000  0.5497750000000 1.0
C      1  0.4802990000000  0.4475730000000  0.5145590000000 1.0
C      1  0.4513390000000  0.4693110000000  0.6088290000000 1.0
C      1  0.4044030000000  0.4940440000000  0.5486600000000 1.0
C      1  0.5552340000000  0.5655420000000  0.4287320000000 1.0
C      1  0.5425870000000  0.4999120000000  0.4601430000000 1.0
C      1  0.5133800000000  0.5404990000000  0.5899550000000 1.0
C      1  0.4506810000000  0.4903740000000  0.5643200000000 1.0
C      1  0.3775760000000  0.5264710000000  0.4563440000000 1.0
C      1  0.5743310000000  0.5175840000000  0.5563410000000 1.0
C      1  0.5890360000000  0.4931640000000  0.5616970000000 1.0
C      1  0.4827830000000  0.4343260000000  0.5636630000000 1.0
C      1  0.4160650000000  0.5665200000000  0.4964920000000 1.0
C      1  0.5459660000000  0.4216500000000  0.5173490000000 1.0
C      1  0.5969590000000  0.4723200000000  0.5417480000000 1.0
C      1  0.5274320000000  0.4994180000000  0.5036520000000 1.0
END
