TITL C-4164240-4114-25 39.9598581647839 125000 -21594.1453571531 0 0 146 (C1) n - 1
REM
REM in /home/nfs/bkarasulu/CARBON/AIRSS/Generating-Clusters/ReaxFF-fromJPCA2015/Units_Real/with-SteepDescent/Only-C1/SD-CG/Try1-3A/FIRE-CG
REM
REM
REM
REM
REM
REM ./C.cell (11c1c37f851c82e70ff6c80c92926a4b)
REM
REM compiler GCC version 9.2.1 20190827 (Red Hat 9.2.1-1)
REM options -cpp -mtune=generic -march=x86-64 -g -O0 -fpre-include=/usr/include/finclude/math-vector-fortran.h
REM seed -955978756 -985758894 -722122774 -652491011 -1565852747 -309834385 719915651 463130952 -524577528 1921773506 1528560721 369632733 -1681198737 -1936125049 -295514168 -1155670440 -1107333992 1181344489 1190825468 -1134055438 -507427906 -118136900 -1127861120 -1957693549 -1303305558 -1087535035 1909037562 69887349 817732372 -328445205 -1668754980 50877879 498870622
REM
CELL 1.54180   50.00000   50.00000   50.00000   90.00000   90.00000   90.00000
LATT -1
SFAC C  
C      1  0.5307480000000  0.4494420000000  0.5169300000000 1.0
C      1  0.4143120000000  0.5416460000000  0.4461350000000 1.0
C      1  0.3998320000000  0.5056810000000  0.5097280000000 1.0
C      1  0.5835140000000  0.4528810000000  0.4916140000000 1.0
C      1  0.3965600000000  0.4851660000000  0.4893530000000 1.0
C      1  0.4257240000000  0.4359250000000  0.5021160000000 1.0
C      1  0.5215190000000  0.5543320000000  0.4725350000000 1.0
C      1  0.4660280000000  0.5610020000000  0.4611440000000 1.0
C      1  0.4471830000000  0.5228760000000  0.5247070000000 1.0
C      1  0.4991320000000  0.5265010000000  0.5000260000000 1.0
C      1  0.5961700000000  0.5004750000000  0.4883910000000 1.0
C      1  0.5379180000000  0.4836360000000  0.5927840000000 1.0
C      1  0.4176690000000  0.5537140000000  0.5140550000000 1.0
C      1  0.4638800000000  0.5045650000000  0.5396090000000 1.0
C      1  0.5308270000000  0.4071800000000  0.4709990000000 1.0
C      1  0.5772860000000  0.5500990000000  0.4678960000000 1.0
C      1  0.4826010000000  0.5663160000000  0.5116400000000 1.0
C      1  0.5309830000000  0.5339990000000  0.5828220000000 1.0
C      1  0.5261220000000  0.5397480000000  0.4249620000000 1.0
C      1  0.4757810000000  0.5781180000000  0.5566880000000 1.0
C      1  0.4051160000000  0.4744020000000  0.4633400000000 1.0
C      1  0.4361240000000  0.4306900000000  0.4437710000000 1.0
C      1  0.5168170000000  0.4931380000000  0.5491430000000 1.0
C      1  0.5942190000000  0.5203590000000  0.4677610000000 1.0
C      1  0.4827710000000  0.4809230000000  0.5919270000000 1.0
C      1  0.5012980000000  0.4662230000000  0.4376790000000 1.0
C      1  0.4585480000000  0.4983890000000  0.5871710000000 1.0
C      1  0.4417190000000  0.5427000000000  0.5677280000000 1.0
C      1  0.4910250000000  0.4121160000000  0.5515360000000 1.0
C      1  0.4495260000000  0.4743840000000  0.4690500000000 1.0
C      1  0.4850390000000  0.5403510000000  0.5952290000000 1.0
C      1  0.5257740000000  0.4969600000000  0.5215390000000 1.0
C      1  0.4850150000000  0.5155390000000  0.4044720000000 1.0
C      1  0.5200180000000  0.4151340000000  0.5468990000000 1.0
C      1  0.5591060000000  0.5640950000000  0.4473110000000 1.0
C      1  0.5559390000000  0.5308810000000  0.4765360000000 1.0
C      1  0.4685630000000  0.5403660000000  0.4400420000000 1.0
C      1  0.4946070000000  0.5961080000000  0.4801290000000 1.0
C      1  0.5021360000000  0.5022290000000  0.5063470000000 1.0
C      1  0.4708960000000  0.4924450000000  0.4661330000000 1.0
C      1  0.4393410000000  0.4620980000000  0.4943530000000 1.0
C      1  0.5263370000000  0.5095380000000  0.4163940000000 1.0
C      1  0.4344540000000  0.4946240000000  0.4228950000000 1.0
C      1  0.4640430000000  0.4006760000000  0.5032540000000 1.0
C      1  0.5089400000000  0.4482790000000  0.5836960000000 1.0
C      1  0.5861740000000  0.4647870000000  0.5180400000000 1.0
C      1  0.5069890000000  0.4318700000000  0.5050900000000 1.0
C      1  0.5216260000000  0.4730600000000  0.3993120000000 1.0
C      1  0.5071380000000  0.4990850000000  0.3953650000000 1.0
C      1  0.4287230000000  0.4881150000000  0.4527590000000 1.0
C      1  0.4780330000000  0.4566960000000  0.5180640000000 1.0
C      1  0.5091360000000  0.5226090000000  0.5986800000000 1.0
C      1  0.4494560000000  0.5892160000000  0.5053440000000 1.0
C      1  0.5499440000000  0.4888330000000  0.4868140000000 1.0
C      1  0.5551540000000  0.5453500000000  0.4261940000000 1.0
C      1  0.4478270000000  0.5834770000000  0.4596810000000 1.0
C      1  0.4235880000000  0.5222910000000  0.5584760000000 1.0
C      1  0.4832090000000  0.5615280000000  0.5768960000000 1.0
C      1  0.5076230000000  0.4682080000000  0.4821930000000 1.0
C      1  0.4831510000000  0.4501440000000  0.5900630000000 1.0
C      1  0.5727250000000  0.4628200000000  0.5662810000000 1.0
C      1  0.5377600000000  0.5933600000000  0.5120280000000 1.0
C      1  0.4759400000000  0.4052000000000  0.4768400000000 1.0
C      1  0.5600050000000  0.5297040000000  0.5819320000000 1.0
C      1  0.5080140000000  0.5964500000000  0.5061590000000 1.0
C      1  0.5045020000000  0.5335360000000  0.5449180000000 1.0
C      1  0.4467940000000  0.4336810000000  0.5714010000000 1.0
C      1  0.5573690000000  0.4321530000000  0.5278380000000 1.0
C      1  0.4504840000000  0.5090910000000  0.4998740000000 1.0
C      1  0.5777340000000  0.4488890000000  0.5407460000000 1.0
C      1  0.5064840000000  0.4519490000000  0.4121030000000 1.0
C      1  0.4561830000000  0.4547990000000  0.5518070000000 1.0
C      1  0.5495210000000  0.4738270000000  0.4107790000000 1.0
C      1  0.4494800000000  0.5665070000000  0.5518710000000 1.0
C      1  0.4231150000000  0.5215900000000  0.4263250000000 1.0
C      1  0.5343170000000  0.4655610000000  0.4911470000000 1.0
C      1  0.5635100000000  0.4615090000000  0.4344270000000 1.0
C      1  0.4693360000000  0.5106140000000  0.4431830000000 1.0
C      1  0.5926200000000  0.4749370000000  0.4746810000000 1.0
C      1  0.5229310000000  0.4624710000000  0.5429010000000 1.0
C      1  0.4379360000000  0.4111290000000  0.4915810000000 1.0
C      1  0.4257980000000  0.4284610000000  0.5536350000000 1.0
C      1  0.4451640000000  0.4813560000000  0.5435880000000 1.0
C      1  0.5842510000000  0.5094060000000  0.5454210000000 1.0
C      1  0.5575670000000  0.4376390000000  0.4507630000000 1.0
C      1  0.5128440000000  0.4271180000000  0.4290150000000 1.0
C      1  0.5452040000000  0.5065110000000  0.4654430000000 1.0
C      1  0.5154230000000  0.5367200000000  0.4519390000000 1.0
C      1  0.4697160000000  0.5535990000000  0.4894080000000 1.0
C      1  0.5519710000000  0.5326660000000  0.5052600000000 1.0
C      1  0.4900380000000  0.5091230000000  0.5468720000000 1.0
C      1  0.4160340000000  0.5259230000000  0.5264450000000 1.0
C      1  0.4644190000000  0.4992820000000  0.4166200000000 1.0
C      1  0.5160540000000  0.5080590000000  0.4597260000000 1.0
C      1  0.4321620000000  0.4555760000000  0.4309660000000 1.0
C      1  0.4212570000000  0.4306020000000  0.5291390000000 1.0
C      1  0.5352970000000  0.5766690000000  0.4592190000000 1.0
C      1  0.4981880000000  0.5697650000000  0.4320940000000 1.0
C      1  0.4239140000000  0.5668580000000  0.4608160000000 1.0
C      1  0.5836870000000  0.4782840000000  0.4467750000000 1.0
C      1  0.4658510000000  0.4391570000000  0.5314240000000 1.0
C      1  0.5183090000000  0.4903210000000  0.4391100000000 1.0
C      1  0.5029360000000  0.4208310000000  0.4766850000000 1.0
C      1  0.5529390000000  0.5033240000000  0.5113340000000 1.0
C      1  0.4118070000000  0.4492300000000  0.4493530000000 1.0
C      1  0.5481320000000  0.4124670000000  0.4932260000000 1.0
C      1  0.5223970000000  0.5906330000000  0.5541850000000 1.0
C      1  0.4503230000000  0.4147710000000  0.4654250000000 1.0
C      1  0.4123990000000  0.5558580000000  0.4855650000000 1.0
C      1  0.5481180000000  0.4592720000000  0.5812760000000 1.0
C      1  0.5750020000000  0.5511950000000  0.5153720000000 1.0
C      1  0.5256320000000  0.4435910000000  0.5635740000000 1.0
C      1  0.5723370000000  0.5346980000000  0.5547110000000 1.0
C      1  0.4989380000000  0.4396530000000  0.4507890000000 1.0
C      1  0.4009480000000  0.5340020000000  0.4712070000000 1.0
C      1  0.5800340000000  0.4912680000000  0.5678630000000 1.0
C      1  0.4356630000000  0.5733020000000  0.5254190000000 1.0
C      1  0.5397220000000  0.4098030000000  0.5265660000000 1.0
C      1  0.5055100000000  0.5559040000000  0.5255680000000 1.0
C      1  0.4863620000000  0.5470330000000  0.4180830000000 1.0
C      1  0.4591870000000  0.5278350000000  0.5875510000000 1.0
C      1  0.5877640000000  0.5071960000000  0.4424940000000 1.0
C      1  0.5853740000000  0.4953560000000  0.5182630000000 1.0
C      1  0.3896030000000  0.5122000000000  0.4856510000000 1.0
C      1  0.5082850000000  0.5880920000000  0.4531170000000 1.0
C      1  0.4975640000000  0.5938270000000  0.5379550000000 1.0
C      1  0.5612910000000  0.5010970000000  0.5883940000000 1.0
C      1  0.5717300000000  0.5206160000000  0.4216630000000 1.0
C      1  0.5647020000000  0.4325660000000  0.4797970000000 1.0
C      1  0.4355840000000  0.4977560000000  0.5686300000000 1.0
C      1  0.5463860000000  0.5818920000000  0.5381080000000 1.0
C      1  0.5217210000000  0.5454770000000  0.5013280000000 1.0
C      1  0.4637260000000  0.5971290000000  0.4816850000000 1.0
C      1  0.5615510000000  0.5925190000000  0.4938960000000 1.0
C      1  0.5088230000000  0.4936760000000  0.5967980000000 1.0
C      1  0.5792290000000  0.5686330000000  0.4924940000000 1.0
C      1  0.4752690000000  0.4262030000000  0.5739650000000 1.0
C      1  0.5673670000000  0.5607330000000  0.5413240000000 1.0
C      1  0.4419640000000  0.4839950000000  0.5115320000000 1.0
C      1  0.4737880000000  0.5249020000000  0.4900410000000 1.0
C      1  0.4971050000000  0.4923940000000  0.4790730000000 1.0
C      1  0.4717770000000  0.4102560000000  0.5298320000000 1.0
C      1  0.5554510000000  0.5016690000000  0.4077540000000 1.0
C      1  0.5281270000000  0.5219610000000  0.5564670000000 1.0
C      1  0.4916100000000  0.4525400000000  0.4973500000000 1.0
C      1  0.5369860000000  0.4185560000000  0.4446940000000 1.0
END
