TITL C-4164244-2836-601 5.29135486648548 125000 -6709.1503954428 0 0 47 (C1) n - 1
REM
REM in /home/nfs/bkarasulu/CARBON/AIRSS/Generating-Clusters/ReaxFF-fromJPCA2015/Units_Real/with-SteepDescent/Only-C1/SD-CG/Try1-3A/FIRE-CG
REM
REM
REM
REM
REM
REM ./C.cell (11c1c37f851c82e70ff6c80c92926a4b)
REM
REM compiler GCC version 9.2.1 20190827 (Red Hat 9.2.1-1)
REM options -cpp -mtune=generic -march=x86-64 -g -O0 -fpre-include=/usr/include/finclude/math-vector-fortran.h
REM seed -246398015 365921483 2142383672 -1676900431 -142408980 -1895432738 1542881086 1462717679 422139931 303896603 1397295741 433232462 -426118740 998477784 422986180 339186523 173512464 -1767158448 805451288 -1578866386 1540905358 -489380977 1013367711 -421126529 -1298048791 1115562680 554208460 1501791935 -626079008 -698519507 1882480390 -1597701292 -1597360488
REM
CELL 1.54180   50.00000   50.00000   50.00000   90.00000   90.00000   90.00000
LATT -1
SFAC C  
C      1  0.4992550000000  0.5105510000000  0.4783560000000 1.0
C      1  0.5208230000000  0.4680510000000  0.5461950000000 1.0
C      1  0.4737970000000  0.5274110000000  0.5637250000000 1.0
C      1  0.4831980000000  0.5123600000000  0.5168630000000 1.0
C      1  0.5643260000000  0.5082810000000  0.5225060000000 1.0
C      1  0.4527950000000  0.5145130000000  0.4715870000000 1.0
C      1  0.4899630000000  0.4528280000000  0.5058420000000 1.0
C      1  0.4779500000000  0.5057470000000  0.5447170000000 1.0
C      1  0.5280080000000  0.4693020000000  0.4460760000000 1.0
C      1  0.5023750000000  0.5391010000000  0.4862870000000 1.0
C      1  0.4992190000000  0.5406400000000  0.5562380000000 1.0
C      1  0.5012540000000  0.5048320000000  0.4510800000000 1.0
C      1  0.5804780000000  0.4564590000000  0.4757470000000 1.0
C      1  0.4271850000000  0.5148710000000  0.4863470000000 1.0
C      1  0.4865060000000  0.5407860000000  0.5110040000000 1.0
C      1  0.5024050000000  0.5266460000000  0.4344430000000 1.0
C      1  0.4625760000000  0.5245070000000  0.4465890000000 1.0
C      1  0.5169840000000  0.4937490000000  0.5599740000000 1.0
C      1  0.4753280000000  0.4979520000000  0.4909560000000 1.0
C      1  0.5242910000000  0.5585530000000  0.4796610000000 1.0
C      1  0.5318640000000  0.4591640000000  0.4725630000000 1.0
C      1  0.5462630000000  0.5274680000000  0.5366320000000 1.0
C      1  0.4675880000000  0.4689780000000  0.4973540000000 1.0
C      1  0.5471730000000  0.5295440000000  0.4585240000000 1.0
C      1  0.5083180000000  0.4448750000000  0.4827960000000 1.0
C      1  0.5509080000000  0.5434900000000  0.4825160000000 1.0
C      1  0.4805970000000  0.4740400000000  0.4229860000000 1.0
C      1  0.4888680000000  0.4870420000000  0.5641360000000 1.0
C      1  0.4578470000000  0.5537980000000  0.5378120000000 1.0
C      1  0.4480870000000  0.4764260000000  0.5410180000000 1.0
C      1  0.5605480000000  0.4798380000000  0.5154220000000 1.0
C      1  0.4468630000000  0.5306810000000  0.5497580000000 1.0
C      1  0.4272080000000  0.4977490000000  0.5114810000000 1.0
C      1  0.5216290000000  0.5218850000000  0.5517860000000 1.0
C      1  0.4822090000000  0.5063870000000  0.4283810000000 1.0
C      1  0.4366830000000  0.5040570000000  0.5385340000000 1.0
C      1  0.5582940000000  0.5337830000000  0.5107440000000 1.0
C      1  0.4959130000000  0.4559390000000  0.5342820000000 1.0
C      1  0.5379420000000  0.4950110000000  0.4389220000000 1.0
C      1  0.4929290000000  0.4382270000000  0.4584810000000 1.0
C      1  0.5330660000000  0.5229100000000  0.4344990000000 1.0
C      1  0.4741640000000  0.4660680000000  0.5504140000000 1.0
C      1  0.5590980000000  0.4655910000000  0.4865180000000 1.0
C      1  0.4993940000000  0.4583390000000  0.4362510000000 1.0
C      1  0.4861210000000  0.5575910000000  0.5359000000000 1.0
C      1  0.4428390000000  0.4716260000000  0.5124680000000 1.0
C      1  0.5488730000000  0.4623550000000  0.5356300000000 1.0
END
