TITL C-4164242-3624-486 55.137684350096 125000 -30205.4231793622 0 0 200 (C1) n - 1
REM
REM in /home/nfs/bkarasulu/CARBON/AIRSS/Generating-Clusters/ReaxFF-fromJPCA2015/Units_Real/with-SteepDescent/Only-C1/SD-CG/Try1-3A/FIRE-CG
REM
REM
REM
REM
REM
REM ./C.cell (11c1c37f851c82e70ff6c80c92926a4b)
REM
REM compiler GCC version 9.2.1 20190827 (Red Hat 9.2.1-1)
REM options -cpp -mtune=generic -march=x86-64 -g -O0 -fpre-include=/usr/include/finclude/math-vector-fortran.h
REM seed 1319619792 1573274953 -1679426525 1338444935 783305426 -1197285988 -27972449 1165402120 -1939982645 1818221105 -377377326 1692750574 1902093813 1374732037 1273497866 644516724 -1463874549 327953523 67479196 -1356197957 -1528989361 1702905030 630246228 130631470 -2053269852 -1363253824 1702653542 510546024 -513260272 979292721 467352204 -1113459044 -1202495009
REM
CELL 1.54180   50.00000   50.00000   50.00000   90.00000   90.00000   90.00000
LATT -1
SFAC C  
C      1  0.5060170000000  0.4630120000000  0.5716840000000 1.0
C      1  0.4693060000000  0.4288130000000  0.4318170000000 1.0
C      1  0.5130790000000  0.6140660000000  0.5099070000000 1.0
C      1  0.4489980000000  0.5698490000000  0.5722440000000 1.0
C      1  0.4088970000000  0.4588300000000  0.5479820000000 1.0
C      1  0.3956900000000  0.5059340000000  0.5386740000000 1.0
C      1  0.4647040000000  0.4758630000000  0.6000320000000 1.0
C      1  0.4540110000000  0.4954500000000  0.4437010000000 1.0
C      1  0.5407430000000  0.4350490000000  0.5049840000000 1.0
C      1  0.4376210000000  0.4585920000000  0.5132270000000 1.0
C      1  0.4881850000000  0.5507640000000  0.5451810000000 1.0
C      1  0.4174060000000  0.5631140000000  0.5758670000000 1.0
C      1  0.3870940000000  0.5291380000000  0.5216070000000 1.0
C      1  0.5255580000000  0.4449910000000  0.4011860000000 1.0
C      1  0.4947660000000  0.5835310000000  0.5452960000000 1.0
C      1  0.5820840000000  0.4751760000000  0.5819840000000 1.0
C      1  0.5078430000000  0.4744420000000  0.5102350000000 1.0
C      1  0.4968520000000  0.5342660000000  0.6171270000000 1.0
C      1  0.4729490000000  0.6018240000000  0.5322420000000 1.0
C      1  0.4452910000000  0.4604870000000  0.4057680000000 1.0
C      1  0.4861760000000  0.4522270000000  0.5064910000000 1.0
C      1  0.4163850000000  0.4241130000000  0.4655040000000 1.0
C      1  0.4695500000000  0.6121940000000  0.4834040000000 1.0
C      1  0.6107890000000  0.4855810000000  0.4691250000000 1.0
C      1  0.4189910000000  0.5141020000000  0.5571730000000 1.0
C      1  0.3987920000000  0.5533540000000  0.5313290000000 1.0
C      1  0.4906740000000  0.3858580000000  0.4561530000000 1.0
C      1  0.5013350000000  0.4461960000000  0.5972370000000 1.0
C      1  0.5135890000000  0.4633320000000  0.6166710000000 1.0
C      1  0.5024700000000  0.5090130000000  0.5735280000000 1.0
C      1  0.4521950000000  0.5699610000000  0.3973450000000 1.0
C      1  0.5162990000000  0.4226650000000  0.4939430000000 1.0
C      1  0.5492600000000  0.4683730000000  0.4000990000000 1.0
C      1  0.4950050000000  0.5238700000000  0.4985290000000 1.0
C      1  0.4581980000000  0.5543210000000  0.4941890000000 1.0
C      1  0.5857650000000  0.4364650000000  0.4688050000000 1.0
C      1  0.5086460000000  0.5360100000000  0.3926220000000 1.0
C      1  0.4445510000000  0.4700740000000  0.4537080000000 1.0
C      1  0.5327300000000  0.5187460000000  0.3934990000000 1.0
C      1  0.5377060000000  0.6098880000000  0.4942220000000 1.0
C      1  0.5602680000000  0.4298490000000  0.4835490000000 1.0
C      1  0.5149750000000  0.5876780000000  0.5223960000000 1.0
C      1  0.4670650000000  0.4292080000000  0.5747710000000 1.0
C      1  0.4690510000000  0.5052660000000  0.5344400000000 1.0
C      1  0.4450810000000  0.4233370000000  0.4743250000000 1.0
C      1  0.6065120000000  0.5287150000000  0.5292370000000 1.0
C      1  0.5451510000000  0.5364350000000  0.4900450000000 1.0
C      1  0.5390530000000  0.6000210000000  0.4668610000000 1.0
C      1  0.5196900000000  0.3877640000000  0.4565230000000 1.0
C      1  0.4355120000000  0.5886720000000  0.4552160000000 1.0
C      1  0.5416960000000  0.4359080000000  0.5832150000000 1.0
C      1  0.5391210000000  0.4918100000000  0.3923930000000 1.0
C      1  0.4734630000000  0.4989380000000  0.3957690000000 1.0
C      1  0.4096530000000  0.5358920000000  0.5777610000000 1.0
C      1  0.4697780000000  0.4877990000000  0.4893000000000 1.0
C      1  0.4506630000000  0.5003700000000  0.5928150000000 1.0
C      1  0.5296720000000  0.3921880000000  0.4843300000000 1.0
C      1  0.5193030000000  0.3809290000000  0.5108220000000 1.0
C      1  0.3917980000000  0.5152450000000  0.4693670000000 1.0
C      1  0.4519690000000  0.5405300000000  0.4378330000000 1.0
C      1  0.5154950000000  0.5618640000000  0.4039280000000 1.0
C      1  0.5246590000000  0.4756640000000  0.4850320000000 1.0
C      1  0.5698040000000  0.4959660000000  0.5110000000000 1.0
C      1  0.5288570000000  0.4208620000000  0.4163890000000 1.0
C      1  0.4596780000000  0.5427770000000  0.4089610000000 1.0
C      1  0.4801440000000  0.4596840000000  0.4791480000000 1.0
C      1  0.4672700000000  0.4382960000000  0.5472730000000 1.0
C      1  0.5090340000000  0.5907700000000  0.5711240000000 1.0
C      1  0.5999440000000  0.4913830000000  0.5634020000000 1.0
C      1  0.4083080000000  0.4841040000000  0.4310210000000 1.0
C      1  0.4700670000000  0.5447520000000  0.6089200000000 1.0
C      1  0.5563960000000  0.5402150000000  0.5803520000000 1.0
C      1  0.3813120000000  0.5118560000000  0.4979370000000 1.0
C      1  0.4325480000000  0.5094330000000  0.5014040000000 1.0
C      1  0.6071450000000  0.4634420000000  0.5159630000000 1.0
C      1  0.4840250000000  0.4635230000000  0.5529810000000 1.0
C      1  0.4434470000000  0.5980600000000  0.4811520000000 1.0
C      1  0.5149800000000  0.4961710000000  0.4582420000000 1.0
C      1  0.4470720000000  0.5250480000000  0.5383830000000 1.0
C      1  0.5357860000000  0.5453750000000  0.5593730000000 1.0
C      1  0.4546230000000  0.3993470000000  0.5387570000000 1.0
C      1  0.5615040000000  0.4790340000000  0.6040390000000 1.0
C      1  0.4937210000000  0.4134440000000  0.5737510000000 1.0
C      1  0.4597460000000  0.5281500000000  0.5876320000000 1.0
C      1  0.5604160000000  0.5816160000000  0.4575030000000 1.0
C      1  0.4910390000000  0.5450240000000  0.4533150000000 1.0
C      1  0.4703030000000  0.5701560000000  0.5947720000000 1.0
C      1  0.4449460000000  0.5784120000000  0.5004480000000 1.0
C      1  0.4837530000000  0.6151680000000  0.5089700000000 1.0
C      1  0.4112020000000  0.5725310000000  0.5474380000000 1.0
C      1  0.5408160000000  0.4565280000000  0.4375860000000 1.0
C      1  0.4470400000000  0.4846840000000  0.5070780000000 1.0
C      1  0.5363540000000  0.4904690000000  0.5454200000000 1.0
C      1  0.4313900000000  0.5018210000000  0.4249670000000 1.0
C      1  0.4524950000000  0.4530870000000  0.5856750000000 1.0
C      1  0.5803240000000  0.4557960000000  0.5080460000000 1.0
C      1  0.5599170000000  0.5627400000000  0.4353410000000 1.0
C      1  0.4225880000000  0.5399010000000  0.4381400000000 1.0
C      1  0.4960230000000  0.4821840000000  0.4071730000000 1.0
C      1  0.5098360000000  0.5667940000000  0.5030340000000 1.0
C      1  0.4673090000000  0.5051470000000  0.4668110000000 1.0
C      1  0.5562200000000  0.4350490000000  0.5564450000000 1.0
C      1  0.5454990000000  0.5326740000000  0.5177730000000 1.0
C      1  0.5742290000000  0.4787700000000  0.4209780000000 1.0
C      1  0.4881170000000  0.4240080000000  0.5038650000000 1.0
C      1  0.4385010000000  0.5861860000000  0.5488340000000 1.0
C      1  0.4774700000000  0.3841980000000  0.4836930000000 1.0
C      1  0.4435460000000  0.4347150000000  0.5297580000000 1.0
C      1  0.4796070000000  0.3865510000000  0.5353080000000 1.0
C      1  0.6149490000000  0.4851450000000  0.4977590000000 1.0
C      1  0.5602880000000  0.6050150000000  0.5147580000000 1.0
C      1  0.4254970000000  0.4787350000000  0.4715830000000 1.0
C      1  0.5821220000000  0.4535700000000  0.5619180000000 1.0
C      1  0.3904550000000  0.4875630000000  0.4537620000000 1.0
C      1  0.5165440000000  0.5590080000000  0.4544570000000 1.0
C      1  0.3838390000000  0.4689570000000  0.4751910000000 1.0
C      1  0.5003840000000  0.5086010000000  0.6045850000000 1.0
C      1  0.5825580000000  0.5421010000000  0.5662390000000 1.0
C      1  0.4599580000000  0.4448110000000  0.4596340000000 1.0
C      1  0.4807740000000  0.5266450000000  0.3955390000000 1.0
C      1  0.5846800000000  0.5106170000000  0.4311310000000 1.0
C      1  0.4695680000000  0.5877250000000  0.4135910000000 1.0
C      1  0.4612840000000  0.5426750000000  0.5605720000000 1.0
C      1  0.5404990000000  0.4582640000000  0.6034470000000 1.0
C      1  0.5620280000000  0.4910520000000  0.4695470000000 1.0
C      1  0.4645270000000  0.4093220000000  0.4908650000000 1.0
C      1  0.5498270000000  0.5535010000000  0.5354000000000 1.0
C      1  0.4803900000000  0.4068010000000  0.4406010000000 1.0
C      1  0.4639890000000  0.5872660000000  0.4448120000000 1.0
C      1  0.5966780000000  0.5533870000000  0.4892110000000 1.0
C      1  0.4196220000000  0.4593470000000  0.4922060000000 1.0
C      1  0.5994180000000  0.5201050000000  0.5560850000000 1.0
C      1  0.3980000000000  0.4434090000000  0.4796730000000 1.0
C      1  0.4981220000000  0.5862890000000  0.4040590000000 1.0
C      1  0.5026610000000  0.3968730000000  0.5516780000000 1.0
C      1  0.4650190000000  0.5563900000000  0.4595500000000 1.0
C      1  0.5169850000000  0.4221790000000  0.5895520000000 1.0
C      1  0.6017390000000  0.5109000000000  0.4547840000000 1.0
C      1  0.5570620000000  0.4769030000000  0.4924210000000 1.0
C      1  0.4467820000000  0.4891390000000  0.4023700000000 1.0
C      1  0.4154500000000  0.5678150000000  0.4495840000000 1.0
C      1  0.3934170000000  0.4792120000000  0.5296400000000 1.0
C      1  0.4969320000000  0.4535520000000  0.3993590000000 1.0
C      1  0.5277380000000  0.3933610000000  0.5361430000000 1.0
C      1  0.5724200000000  0.5362000000000  0.4253540000000 1.0
C      1  0.4916440000000  0.5197180000000  0.4700480000000 1.0
C      1  0.5987730000000  0.5094210000000  0.5053600000000 1.0
C      1  0.4835080000000  0.6059510000000  0.4595060000000 1.0
C      1  0.5892650000000  0.4548820000000  0.4312520000000 1.0
C      1  0.4072410000000  0.5433620000000  0.4626430000000 1.0
C      1  0.5542110000000  0.4065120000000  0.5382090000000 1.0
C      1  0.4700000000000  0.4442660000000  0.4066370000000 1.0
C      1  0.5703700000000  0.4054670000000  0.5142810000000 1.0
C      1  0.4428340000000  0.5347740000000  0.5103210000000 1.0
C      1  0.3823600000000  0.4834310000000  0.5022820000000 1.0
C      1  0.4284110000000  0.4920660000000  0.5759820000000 1.0
C      1  0.5314220000000  0.5620370000000  0.4293310000000 1.0
C      1  0.5781940000000  0.5578280000000  0.5418250000000 1.0
C      1  0.4287230000000  0.4644440000000  0.5708860000000 1.0
C      1  0.5055380000000  0.4892020000000  0.4328050000000 1.0
C      1  0.5779530000000  0.5871700000000  0.5034140000000 1.0
C      1  0.6009670000000  0.5267550000000  0.4791770000000 1.0
C      1  0.5152270000000  0.5562990000000  0.6098990000000 1.0
C      1  0.5599790000000  0.4003490000000  0.4814360000000 1.0
C      1  0.6021690000000  0.4674350000000  0.5458700000000 1.0
C      1  0.5223620000000  0.4877300000000  0.5687440000000 1.0
C      1  0.5465460000000  0.5229640000000  0.4205310000000 1.0
C      1  0.4987230000000  0.5764020000000  0.5940220000000 1.0
C      1  0.4202250000000  0.5067020000000  0.4758170000000 1.0
C      1  0.5371270000000  0.4011190000000  0.4368000000000 1.0
C      1  0.4911550000000  0.3765350000000  0.5080640000000 1.0
C      1  0.4793380000000  0.4918840000000  0.5569150000000 1.0
C      1  0.4160130000000  0.4391460000000  0.4421170000000 1.0
C      1  0.5439060000000  0.5497750000000  0.6056140000000 1.0
C      1  0.4872040000000  0.5005620000000  0.5110020000000 1.0
C      1  0.5205510000000  0.4437620000000  0.4476600000000 1.0
C      1  0.5349750000000  0.5164760000000  0.4464530000000 1.0
C      1  0.4136680000000  0.4315710000000  0.5397540000000 1.0
C      1  0.5521610000000  0.5082100000000  0.5297930000000 1.0
C      1  0.5129160000000  0.6073020000000  0.4523930000000 1.0
C      1  0.4496700000000  0.5901890000000  0.5245960000000 1.0
C      1  0.5086130000000  0.5358200000000  0.5591500000000 1.0
C      1  0.5532980000000  0.5176830000000  0.4693320000000 1.0
C      1  0.5550440000000  0.6070650000000  0.5441410000000 1.0
C      1  0.5366300000000  0.6008820000000  0.5658140000000 1.0
C      1  0.4911210000000  0.4824110000000  0.6136000000000 1.0
C      1  0.5576610000000  0.4780060000000  0.4452710000000 1.0
C      1  0.5084760000000  0.5999250000000  0.4260300000000 1.0
C      1  0.4192770000000  0.4572090000000  0.4212110000000 1.0
C      1  0.5821570000000  0.4303770000000  0.5180860000000 1.0
C      1  0.5628090000000  0.4058170000000  0.4505670000000 1.0
C      1  0.5279210000000  0.5581170000000  0.4816580000000 1.0
C      1  0.5122060000000  0.4503080000000  0.4737580000000 1.0
C      1  0.4872290000000  0.5489060000000  0.5110970000000 1.0
C      1  0.5820840000000  0.5772020000000  0.4781070000000 1.0
C      1  0.6011790000000  0.4602150000000  0.4571500000000 1.0
C      1  0.5813540000000  0.4263720000000  0.4417010000000 1.0
C      1  0.5980820000000  0.5546230000000  0.5197000000000 1.0
C      1  0.5259780000000  0.4694460000000  0.5330970000000 1.0
C      1  0.5411610000000  0.4459620000000  0.5322100000000 1.0
END
