TITL C-4164232-771-658 -20.2055261505248 125000 -26042.8662413012 0 0 171 (C1) n - 1
REM
REM in /home/nfs/bkarasulu/CARBON/AIRSS/Generating-Clusters/ReaxFF-fromJPCA2015/Units_Real/with-SteepDescent/Only-C1/SD-CG/Try1-3A/FIRE-CG
REM
REM
REM
REM
REM
REM ./C.cell (11c1c37f851c82e70ff6c80c92926a4b)
REM
REM compiler GCC version 9.2.1 20190827 (Red Hat 9.2.1-1)
REM options -cpp -mtune=generic -march=x86-64 -g -O0 -fpre-include=/usr/include/finclude/math-vector-fortran.h
REM seed 1729984007 1441892146 953294362 2029351723 -1672816556 1746231178 -202415385 1632118710 -432500889 -989017193 707953617 455336019 14302031 2104790193 -1459444159 1961182025 -100586272 768326407 378481939 -1795606096 -188758442 -1160460283 1199652141 -2089982261 1497174226 1137417921 -635365974 -2078898677 269559936 1710868546 -2094230836 -1268352107 -850974674
REM
CELL 1.54180   50.00000   50.00000   50.00000   90.00000   90.00000   90.00000
LATT -1
SFAC C  
C      1  0.5423790000000  0.4800530000000  0.4827930000000 1.0
C      1  0.5609520000000  0.5280430000000  0.4912130000000 1.0
C      1  0.4726610000000  0.4166750000000  0.4353690000000 1.0
C      1  0.4798140000000  0.4294740000000  0.5556710000000 1.0
C      1  0.3939920000000  0.5577250000000  0.5260620000000 1.0
C      1  0.5265120000000  0.4535170000000  0.5654710000000 1.0
C      1  0.4291140000000  0.4526380000000  0.5341960000000 1.0
C      1  0.4466020000000  0.4282950000000  0.4356880000000 1.0
C      1  0.5706600000000  0.5293010000000  0.5717750000000 1.0
C      1  0.3977700000000  0.5054920000000  0.5286510000000 1.0
C      1  0.4361240000000  0.4072950000000  0.4824680000000 1.0
C      1  0.4955480000000  0.5544670000000  0.6115760000000 1.0
C      1  0.4732290000000  0.6036240000000  0.5063980000000 1.0
C      1  0.4018800000000  0.4354670000000  0.5078970000000 1.0
C      1  0.4399320000000  0.4295480000000  0.4640710000000 1.0
C      1  0.4596090000000  0.5318870000000  0.6076760000000 1.0
C      1  0.4770800000000  0.5431040000000  0.5083820000000 1.0
C      1  0.4724740000000  0.5989290000000  0.5363630000000 1.0
C      1  0.4439110000000  0.5124680000000  0.5930030000000 1.0
C      1  0.5580760000000  0.5087850000000  0.5333920000000 1.0
C      1  0.5926870000000  0.4488970000000  0.4698610000000 1.0
C      1  0.5376190000000  0.4271690000000  0.5791500000000 1.0
C      1  0.4642830000000  0.5123680000000  0.4646160000000 1.0
C      1  0.4734990000000  0.4685960000000  0.4781810000000 1.0
C      1  0.4216930000000  0.5521420000000  0.4486190000000 1.0
C      1  0.4869400000000  0.5269760000000  0.6193460000000 1.0
C      1  0.4639170000000  0.4197110000000  0.5284410000000 1.0
C      1  0.5141450000000  0.4594450000000  0.4515850000000 1.0
C      1  0.5183340000000  0.4974500000000  0.5595480000000 1.0
C      1  0.4826540000000  0.4816230000000  0.4105630000000 1.0
C      1  0.4929620000000  0.4771200000000  0.4596470000000 1.0
C      1  0.5040070000000  0.4395400000000  0.5467190000000 1.0
C      1  0.5446290000000  0.4392500000000  0.6061070000000 1.0
C      1  0.4612680000000  0.5256640000000  0.5478410000000 1.0
C      1  0.4807200000000  0.5435690000000  0.5614360000000 1.0
C      1  0.5174920000000  0.5844540000000  0.5580560000000 1.0
C      1  0.5070780000000  0.5440900000000  0.3920770000000 1.0
C      1  0.4614200000000  0.4425990000000  0.4799530000000 1.0
C      1  0.3801960000000  0.4866570000000  0.5075590000000 1.0
C      1  0.4242530000000  0.5809980000000  0.4929180000000 1.0
C      1  0.4803930000000  0.5638430000000  0.4869670000000 1.0
C      1  0.5072900000000  0.5457630000000  0.5509240000000 1.0
C      1  0.5144690000000  0.5933040000000  0.4689510000000 1.0
C      1  0.5926480000000  0.4897520000000  0.4956430000000 1.0
C      1  0.5214880000000  0.5522390000000  0.5987420000000 1.0
C      1  0.5141520000000  0.5215090000000  0.4763310000000 1.0
C      1  0.4620050000000  0.5163340000000  0.4931140000000 1.0
C      1  0.4131370000000  0.5764760000000  0.5198730000000 1.0
C      1  0.5223100000000  0.4649860000000  0.3941480000000 1.0
C      1  0.5220650000000  0.5282380000000  0.5044890000000 1.0
C      1  0.4584490000000  0.5651450000000  0.4681170000000 1.0
C      1  0.5086510000000  0.4955690000000  0.4183770000000 1.0
C      1  0.5740270000000  0.4289290000000  0.4736920000000 1.0
C      1  0.5451400000000  0.4634520000000  0.5448090000000 1.0
C      1  0.4200220000000  0.4134050000000  0.5070930000000 1.0
C      1  0.5745040000000  0.5842720000000  0.4813260000000 1.0
C      1  0.5636970000000  0.5850210000000  0.5219720000000 1.0
C      1  0.6082490000000  0.5136550000000  0.4984550000000 1.0
C      1  0.5195500000000  0.5764450000000  0.4447510000000 1.0
C      1  0.5742130000000  0.5659910000000  0.5388430000000 1.0
C      1  0.5996300000000  0.4672150000000  0.5127200000000 1.0
C      1  0.4141770000000  0.5428370000000  0.5587400000000 1.0
C      1  0.5909700000000  0.5525810000000  0.5179050000000 1.0
C      1  0.4307890000000  0.5552970000000  0.4769540000000 1.0
C      1  0.4611070000000  0.5378880000000  0.4168910000000 1.0
C      1  0.5900180000000  0.5447570000000  0.4605350000000 1.0
C      1  0.6090220000000  0.4963850000000  0.4587840000000 1.0
C      1  0.5571790000000  0.5154620000000  0.5941070000000 1.0
C      1  0.4113640000000  0.4968420000000  0.5552750000000 1.0
C      1  0.5195010000000  0.4317100000000  0.5252960000000 1.0
C      1  0.5083420000000  0.4800020000000  0.6050820000000 1.0
C      1  0.5695170000000  0.5509370000000  0.4386490000000 1.0
C      1  0.6081200000000  0.5232440000000  0.4682420000000 1.0
C      1  0.4939640000000  0.5894780000000  0.4898870000000 1.0
C      1  0.4629190000000  0.4426180000000  0.5082220000000 1.0
C      1  0.5612520000000  0.4868830000000  0.6021260000000 1.0
C      1  0.5651090000000  0.4299220000000  0.5030610000000 1.0
C      1  0.5482230000000  0.5261850000000  0.5142030000000 1.0
C      1  0.5270410000000  0.4143130000000  0.4535490000000 1.0
C      1  0.5945050000000  0.4338350000000  0.5379940000000 1.0
C      1  0.4996230000000  0.4848920000000  0.5140480000000 1.0
C      1  0.4950770000000  0.5682570000000  0.4309170000000 1.0
C      1  0.4225030000000  0.5182780000000  0.5720570000000 1.0
C      1  0.5727110000000  0.4131400000000  0.5422010000000 1.0
C      1  0.4783300000000  0.4676860000000  0.5971810000000 1.0
C      1  0.5394050000000  0.6061060000000  0.4757080000000 1.0
C      1  0.4811920000000  0.4024150000000  0.4601440000000 1.0
C      1  0.5795020000000  0.5529640000000  0.4872920000000 1.0
C      1  0.5033750000000  0.5174070000000  0.3828060000000 1.0
C      1  0.5430300000000  0.4553870000000  0.4095200000000 1.0
C      1  0.4958720000000  0.4936120000000  0.5410080000000 1.0
C      1  0.5307580000000  0.5614680000000  0.5702860000000 1.0
C      1  0.5094380000000  0.5204410000000  0.4319920000000 1.0
C      1  0.5308000000000  0.5206390000000  0.4528080000000 1.0
C      1  0.4335940000000  0.4235180000000  0.5312720000000 1.0
C      1  0.4043740000000  0.5335800000000  0.4378330000000 1.0
C      1  0.4682110000000  0.5682530000000  0.5733900000000 1.0
C      1  0.5079690000000  0.4023750000000  0.4719280000000 1.0
C      1  0.5590290000000  0.6012470000000  0.4995760000000 1.0
C      1  0.4677690000000  0.5598710000000  0.6013990000000 1.0
C      1  0.5666660000000  0.4958310000000  0.4279000000000 1.0
C      1  0.4539460000000  0.5169880000000  0.3976560000000 1.0
C      1  0.5997550000000  0.4624380000000  0.5420860000000 1.0
C      1  0.4718490000000  0.4869170000000  0.5021520000000 1.0
C      1  0.5523710000000  0.5113750000000  0.4067690000000 1.0
C      1  0.4788770000000  0.3999380000000  0.5080840000000 1.0
C      1  0.5389080000000  0.4675510000000  0.6113640000000 1.0
C      1  0.4493540000000  0.5409600000000  0.5254080000000 1.0
C      1  0.4777470000000  0.4460450000000  0.5784620000000 1.0
C      1  0.5417750000000  0.4908020000000  0.5463420000000 1.0
C      1  0.4244730000000  0.4712050000000  0.5565950000000 1.0
C      1  0.5129240000000  0.4338040000000  0.4377000000000 1.0
C      1  0.5484360000000  0.5720290000000  0.4393040000000 1.0
C      1  0.5176460000000  0.4775300000000  0.5789020000000 1.0
C      1  0.5492840000000  0.4136710000000  0.5574920000000 1.0
C      1  0.3982520000000  0.4874010000000  0.4600000000000 1.0
C      1  0.4175720000000  0.5066440000000  0.5064820000000 1.0
C      1  0.5394810000000  0.4504920000000  0.5186470000000 1.0
C      1  0.4676020000000  0.4974740000000  0.5485750000000 1.0
C      1  0.5258190000000  0.4984690000000  0.3944870000000 1.0
C      1  0.4640140000000  0.5725400000000  0.4411730000000 1.0
C      1  0.5381400000000  0.4595140000000  0.4633500000000 1.0
C      1  0.5248030000000  0.4736160000000  0.5043080000000 1.0
C      1  0.5088050000000  0.5090400000000  0.6129510000000 1.0
C      1  0.5033410000000  0.5402400000000  0.5229720000000 1.0
C      1  0.5079410000000  0.5647710000000  0.4062870000000 1.0
C      1  0.4282230000000  0.5011650000000  0.4028420000000 1.0
C      1  0.5276480000000  0.4053030000000  0.5228810000000 1.0
C      1  0.4525440000000  0.4772940000000  0.5653110000000 1.0
C      1  0.4782850000000  0.5046870000000  0.3889350000000 1.0
C      1  0.5936300000000  0.4380880000000  0.5089890000000 1.0
C      1  0.4441070000000  0.4551920000000  0.4206110000000 1.0
C      1  0.5932350000000  0.4851160000000  0.5597330000000 1.0
C      1  0.5066680000000  0.3986920000000  0.5020440000000 1.0
C      1  0.4600060000000  0.4778580000000  0.4310900000000 1.0
C      1  0.5786270000000  0.4819310000000  0.5820430000000 1.0
C      1  0.4547970000000  0.4851880000000  0.5936170000000 1.0
C      1  0.4297050000000  0.4729690000000  0.4056270000000 1.0
C      1  0.5569100000000  0.4054570000000  0.5185440000000 1.0
C      1  0.4876310000000  0.5393180000000  0.4301630000000 1.0
C      1  0.4158680000000  0.5108890000000  0.4281070000000 1.0
C      1  0.4925540000000  0.4304570000000  0.4171590000000 1.0
C      1  0.4427360000000  0.5580020000000  0.4290840000000 1.0
C      1  0.3909710000000  0.5100120000000  0.4444960000000 1.0
C      1  0.4976150000000  0.5948430000000  0.5474530000000 1.0
C      1  0.4921740000000  0.5049530000000  0.4660390000000 1.0
C      1  0.5508970000000  0.4338420000000  0.4540200000000 1.0
C      1  0.4239660000000  0.4796410000000  0.4943200000000 1.0
C      1  0.4363310000000  0.5285330000000  0.5001530000000 1.0
C      1  0.3922290000000  0.5345110000000  0.5415610000000 1.0
C      1  0.4458880000000  0.6007740000000  0.4954590000000 1.0
C      1  0.5567980000000  0.5355940000000  0.4195610000000 1.0
C      1  0.5623390000000  0.4461870000000  0.4255810000000 1.0
C      1  0.5555620000000  0.5059910000000  0.4525590000000 1.0
C      1  0.6004720000000  0.4690060000000  0.4514400000000 1.0
C      1  0.3805710000000  0.4941090000000  0.4805140000000 1.0
C      1  0.4465250000000  0.4950360000000  0.4498300000000 1.0
C      1  0.5586270000000  0.5922920000000  0.4582160000000 1.0
C      1  0.4263190000000  0.4828410000000  0.4655510000000 1.0
C      1  0.4636120000000  0.3970010000000  0.4834010000000 1.0
C      1  0.5796660000000  0.4689900000000  0.4289250000000 1.0
C      1  0.4538350000000  0.5826520000000  0.5526290000000 1.0
C      1  0.6008860000000  0.5271790000000  0.5239180000000 1.0
C      1  0.5313120000000  0.5259770000000  0.6049230000000 1.0
C      1  0.5603750000000  0.5536090000000  0.5629790000000 1.0
C      1  0.4466180000000  0.4661600000000  0.5130600000000 1.0
C      1  0.4322810000000  0.5645010000000  0.5416500000000 1.0
C      1  0.3968750000000  0.4623520000000  0.5015090000000 1.0
C      1  0.5845780000000  0.5134660000000  0.5473590000000 1.0
C      1  0.4960510000000  0.4547920000000  0.4017830000000 1.0
C      1  0.5637920000000  0.5009060000000  0.4803450000000 1.0
END
