TITL C-4164239-2837-560 6.22312008615586 125000 -12064.8303243179 0 0 80 (C1) n - 1
REM
REM in /home/nfs/bkarasulu/CARBON/AIRSS/Generating-Clusters/ReaxFF-fromJPCA2015/Units_Real/with-SteepDescent/Only-C1/SD-CG/Try1-3A/FIRE-CG
REM
REM
REM
REM
REM
REM ./C.cell (11c1c37f851c82e70ff6c80c92926a4b)
REM
REM compiler GCC version 9.2.1 20190827 (Red Hat 9.2.1-1)
REM options -cpp -mtune=generic -march=x86-64 -g -O0 -fpre-include=/usr/include/finclude/math-vector-fortran.h
REM seed 2054095782 1866379127 -1186517065 318438618 313747048 -1048083843 -49089794 -1565079183 1229173575 1744016309 -1260742417 657406553 177119802 661163318 -1867427863 1183494356 783311078 127112350 -591276281 2023928891 -466704439 -1863420220 -641444409 -1288716620 -666403556 2006840862 1803115604 -2029963135 -1707616361 -369131578 -620962654 333737686 1409119299
REM
CELL 1.54180   50.00000   50.00000   50.00000   90.00000   90.00000   90.00000
LATT -1
SFAC C  
C      1  0.4915560000000  0.5202750000000  0.4305950000000 1.0
C      1  0.4958400000000  0.4509340000000  0.5587300000000 1.0
C      1  0.5355420000000  0.5636070000000  0.4714200000000 1.0
C      1  0.4903840000000  0.4673220000000  0.4750960000000 1.0
C      1  0.4480290000000  0.4650130000000  0.5454270000000 1.0
C      1  0.4911380000000  0.4912670000000  0.4308520000000 1.0
C      1  0.5092980000000  0.5370830000000  0.4976100000000 1.0
C      1  0.4590470000000  0.4421160000000  0.5310420000000 1.0
C      1  0.4864840000000  0.5700600000000  0.4642930000000 1.0
C      1  0.4947890000000  0.5117180000000  0.5794740000000 1.0
C      1  0.5420570000000  0.4472880000000  0.5367520000000 1.0
C      1  0.4528130000000  0.5639340000000  0.5223580000000 1.0
C      1  0.5593190000000  0.5197340000000  0.4515110000000 1.0
C      1  0.4224640000000  0.5276210000000  0.5127560000000 1.0
C      1  0.4411330000000  0.5474400000000  0.4739470000000 1.0
C      1  0.5070670000000  0.4338800000000  0.4438150000000 1.0
C      1  0.5399690000000  0.5023310000000  0.4405600000000 1.0
C      1  0.5124220000000  0.5592380000000  0.4545440000000 1.0
C      1  0.5769350000000  0.5082280000000  0.4917380000000 1.0
C      1  0.5417910000000  0.5534830000000  0.5396250000000 1.0
C      1  0.5141560000000  0.4189730000000  0.4684550000000 1.0
C      1  0.5626480000000  0.4680220000000  0.5425290000000 1.0
C      1  0.5857460000000  0.4646620000000  0.4988270000000 1.0
C      1  0.4329160000000  0.4861040000000  0.5314730000000 1.0
C      1  0.4781890000000  0.4947210000000  0.5083490000000 1.0
C      1  0.5771140000000  0.4997930000000  0.4631230000000 1.0
C      1  0.5043450000000  0.5273980000000  0.5241580000000 1.0
C      1  0.4769610000000  0.4703760000000  0.4493370000000 1.0
C      1  0.5645080000000  0.4724120000000  0.4753230000000 1.0
C      1  0.5244520000000  0.4591690000000  0.5571120000000 1.0
C      1  0.4970230000000  0.4907130000000  0.4890030000000 1.0
C      1  0.4650610000000  0.5330030000000  0.4355340000000 1.0
C      1  0.5178730000000  0.5025290000000  0.5301620000000 1.0
C      1  0.4524750000000  0.5065630000000  0.4320230000000 1.0
C      1  0.5036360000000  0.5381720000000  0.5703170000000 1.0
C      1  0.4947530000000  0.4861390000000  0.5294180000000 1.0
C      1  0.5266470000000  0.4554450000000  0.4430280000000 1.0
C      1  0.4864330000000  0.4329720000000  0.5383080000000 1.0
C      1  0.5313280000000  0.4324920000000  0.5135330000000 1.0
C      1  0.5443700000000  0.4811170000000  0.5618920000000 1.0
C      1  0.5630450000000  0.5396250000000  0.5247270000000 1.0
C      1  0.5230320000000  0.5715930000000  0.5271520000000 1.0
C      1  0.5187720000000  0.5693500000000  0.4971150000000 1.0
C      1  0.4300150000000  0.5189090000000  0.4648210000000 1.0
C      1  0.5560510000000  0.5438360000000  0.4717000000000 1.0
C      1  0.5449970000000  0.4517560000000  0.4649340000000 1.0
C      1  0.4338210000000  0.5152490000000  0.5372240000000 1.0
C      1  0.4839610000000  0.5563170000000  0.5564100000000 1.0
C      1  0.4366290000000  0.4598030000000  0.4862660000000 1.0
C      1  0.4763380000000  0.5796290000000  0.5156990000000 1.0
C      1  0.4951550000000  0.4181130000000  0.4905470000000 1.0
C      1  0.5321960000000  0.5354480000000  0.5609620000000 1.0
C      1  0.4434710000000  0.5037030000000  0.4529480000000 1.0
C      1  0.4818580000000  0.4943960000000  0.5577510000000 1.0
C      1  0.4765960000000  0.5218570000000  0.5175680000000 1.0
C      1  0.4541100000000  0.4428540000000  0.5017940000000 1.0
C      1  0.5639580000000  0.5122640000000  0.5360200000000 1.0
C      1  0.5472310000000  0.5105930000000  0.5602760000000 1.0
C      1  0.5696680000000  0.5370680000000  0.4964480000000 1.0
C      1  0.4625810000000  0.5539720000000  0.4569570000000 1.0
C      1  0.4603410000000  0.5204020000000  0.5436050000000 1.0
C      1  0.4909220000000  0.5805150000000  0.4906170000000 1.0
C      1  0.4356660000000  0.5520470000000  0.5018840000000 1.0
C      1  0.4515650000000  0.4323270000000  0.4441200000000 1.0
C      1  0.4960650000000  0.5747600000000  0.5376420000000 1.0
C      1  0.5064750000000  0.5171330000000  0.4780490000000 1.0
C      1  0.5197660000000  0.4834330000000  0.4331910000000 1.0
C      1  0.4570800000000  0.5482170000000  0.5471910000000 1.0
C      1  0.5104850000000  0.5298870000000  0.4516800000000 1.0
C      1  0.5525570000000  0.4916830000000  0.4943510000000 1.0
C      1  0.5356520000000  0.4315780000000  0.4838200000000 1.0
C      1  0.4796820000000  0.4429820000000  0.4873710000000 1.0
C      1  0.5805810000000  0.4798930000000  0.5218540000000 1.0
C      1  0.4713350000000  0.4670960000000  0.5634050000000 1.0
C      1  0.4795510000000  0.4424330000000  0.4373060000000 1.0
C      1  0.4189210000000  0.5078880000000  0.4926080000000 1.0
C      1  0.5050610000000  0.4215660000000  0.5182930000000 1.0
C      1  0.4258170000000  0.4822430000000  0.5032060000000 1.0
C      1  0.4464290000000  0.4579340000000  0.4583980000000 1.0
C      1  0.5438570000000  0.4962940000000  0.5200460000000 1.0
END
