TITL C-4164239-2837-755 -0.742949771091658 125000 -19928.3772451031 0 0 134 (C1) n - 1
REM
REM in /home/nfs/bkarasulu/CARBON/AIRSS/Generating-Clusters/ReaxFF-fromJPCA2015/Units_Real/with-SteepDescent/Only-C1/SD-CG/Try1-3A/FIRE-CG
REM
REM
REM
REM
REM
REM ./C.cell (11c1c37f851c82e70ff6c80c92926a4b)
REM
REM compiler GCC version 9.2.1 20190827 (Red Hat 9.2.1-1)
REM options -cpp -mtune=generic -march=x86-64 -g -O0 -fpre-include=/usr/include/finclude/math-vector-fortran.h
REM seed 1992473822 -214613297 -659364695 2005303074 706921420 -1614377394 24135362 -1042564127 516551762 1952412443 -849589206 -1636291161 -488899059 -1999448335 -1841871534 -1163398244 -73251885 -1530054824 -45600612 -2018565447 2018613604 -898691883 60653101 -1105443712 1312249151 -1856808782 794237581 -1734252025 1561046787 2041325121 -1362577519 335434469 -393231149
REM
CELL 1.54180   50.00000   50.00000   50.00000   90.00000   90.00000   90.00000
LATT -1
SFAC C  
C      1  0.5511610000000  0.5247680000000  0.5028970000000 1.0
C      1  0.5054830000000  0.5996320000000  0.4660900000000 1.0
C      1  0.5216810000000  0.5568270000000  0.4728180000000 1.0
C      1  0.5551300000000  0.4977660000000  0.4545560000000 1.0
C      1  0.4432480000000  0.5337270000000  0.4588590000000 1.0
C      1  0.5385160000000  0.4594370000000  0.4142150000000 1.0
C      1  0.5513300000000  0.4184170000000  0.4812130000000 1.0
C      1  0.4974060000000  0.5973990000000  0.5132040000000 1.0
C      1  0.5573140000000  0.4184770000000  0.5112750000000 1.0
C      1  0.4833380000000  0.5236040000000  0.4029050000000 1.0
C      1  0.4918900000000  0.4733310000000  0.5476660000000 1.0
C      1  0.4985950000000  0.5106370000000  0.5932830000000 1.0
C      1  0.5279050000000  0.5690490000000  0.5630360000000 1.0
C      1  0.5137150000000  0.4645480000000  0.4021860000000 1.0
C      1  0.5115600000000  0.3882010000000  0.5137620000000 1.0
C      1  0.4471710000000  0.5405670000000  0.5136200000000 1.0
C      1  0.4789960000000  0.4355660000000  0.5179430000000 1.0
C      1  0.4777630000000  0.5328140000000  0.5942650000000 1.0
C      1  0.5854690000000  0.4904330000000  0.5237780000000 1.0
C      1  0.5699240000000  0.5029880000000  0.4165870000000 1.0
C      1  0.4714600000000  0.5506970000000  0.5207550000000 1.0
C      1  0.5099250000000  0.4517560000000  0.4848220000000 1.0
C      1  0.4321110000000  0.4675380000000  0.5299590000000 1.0
C      1  0.5865840000000  0.5089970000000  0.5449890000000 1.0
C      1  0.4662400000000  0.4460480000000  0.4530800000000 1.0
C      1  0.5597510000000  0.4367140000000  0.4606190000000 1.0
C      1  0.4582940000000  0.4164490000000  0.5123750000000 1.0
C      1  0.5035630000000  0.3961130000000  0.4850850000000 1.0
C      1  0.4207770000000  0.4879660000000  0.4709210000000 1.0
C      1  0.4166800000000  0.4547630000000  0.5075160000000 1.0
C      1  0.5652020000000  0.4400800000000  0.5324770000000 1.0
C      1  0.5128130000000  0.5283980000000  0.4066080000000 1.0
C      1  0.4711240000000  0.5448250000000  0.4182560000000 1.0
C      1  0.4353630000000  0.4475420000000  0.5536280000000 1.0
C      1  0.3923700000000  0.4951870000000  0.5115960000000 1.0
C      1  0.5751570000000  0.5079740000000  0.5027000000000 1.0
C      1  0.5043300000000  0.5585170000000  0.5755300000000 1.0
C      1  0.5626640000000  0.5159980000000  0.5551810000000 1.0
C      1  0.4879710000000  0.4734660000000  0.4101170000000 1.0
C      1  0.5963790000000  0.5369370000000  0.4731930000000 1.0
C      1  0.5179080000000  0.4624890000000  0.4573050000000 1.0
C      1  0.5014740000000  0.5411080000000  0.4564480000000 1.0
C      1  0.4459940000000  0.5023290000000  0.4224640000000 1.0
C      1  0.4488870000000  0.5338210000000  0.5966390000000 1.0
C      1  0.5819930000000  0.5576520000000  0.4901620000000 1.0
C      1  0.4966850000000  0.4164830000000  0.5591080000000 1.0
C      1  0.4942100000000  0.4822110000000  0.5980880000000 1.0
C      1  0.5408600000000  0.4700900000000  0.5718240000000 1.0
C      1  0.4828030000000  0.5844670000000  0.4548680000000 1.0
C      1  0.5174090000000  0.5169320000000  0.4516160000000 1.0
C      1  0.5303450000000  0.5290720000000  0.5240700000000 1.0
C      1  0.5151350000000  0.4210520000000  0.4467270000000 1.0
C      1  0.5222470000000  0.5069550000000  0.4236790000000 1.0
C      1  0.5448530000000  0.5535000000000  0.4327740000000 1.0
C      1  0.5584800000000  0.5795840000000  0.5224000000000 1.0
C      1  0.5215380000000  0.5167580000000  0.5769460000000 1.0
C      1  0.5320470000000  0.5772200000000  0.5353390000000 1.0
C      1  0.5446730000000  0.5392900000000  0.4793400000000 1.0
C      1  0.5238820000000  0.4550960000000  0.5304850000000 1.0
C      1  0.5228850000000  0.5408600000000  0.5620180000000 1.0
C      1  0.4303230000000  0.5114300000000  0.5889970000000 1.0
C      1  0.4334280000000  0.5598860000000  0.4980530000000 1.0
C      1  0.4579340000000  0.5818680000000  0.4689840000000 1.0
C      1  0.4731780000000  0.5800870000000  0.5169160000000 1.0
C      1  0.4271870000000  0.5505370000000  0.5572360000000 1.0
C      1  0.5189810000000  0.5539640000000  0.4195800000000 1.0
C      1  0.4528400000000  0.4435840000000  0.5773300000000 1.0
C      1  0.4537950000000  0.5052010000000  0.5532820000000 1.0
C      1  0.5773770000000  0.5358320000000  0.5402860000000 1.0
C      1  0.5452780000000  0.4494790000000  0.5510470000000 1.0
C      1  0.5377870000000  0.4988040000000  0.5601820000000 1.0
C      1  0.4332530000000  0.4942400000000  0.4469050000000 1.0
C      1  0.5526470000000  0.5764520000000  0.4495710000000 1.0
C      1  0.4844250000000  0.4522210000000  0.4973170000000 1.0
C      1  0.4537380000000  0.4154790000000  0.4836150000000 1.0
C      1  0.5340090000000  0.4849550000000  0.4705430000000 1.0
C      1  0.4491140000000  0.5134740000000  0.5053240000000 1.0
C      1  0.5472530000000  0.5277050000000  0.4528310000000 1.0
C      1  0.4969050000000  0.4436410000000  0.5394020000000 1.0
C      1  0.5365670000000  0.4016470000000  0.5176600000000 1.0
C      1  0.4958750000000  0.4725140000000  0.4384040000000 1.0
C      1  0.4255170000000  0.5103820000000  0.5588520000000 1.0
C      1  0.4396040000000  0.4871250000000  0.6018800000000 1.0
C      1  0.5032480000000  0.5560690000000  0.4953360000000 1.0
C      1  0.4740540000000  0.4273050000000  0.5708840000000 1.0
C      1  0.5369060000000  0.4412940000000  0.4400630000000 1.0
C      1  0.4791220000000  0.4054020000000  0.4720110000000 1.0
C      1  0.5179420000000  0.5554170000000  0.5206440000000 1.0
C      1  0.5173050000000  0.4729710000000  0.5867120000000 1.0
C      1  0.4684000000000  0.4818510000000  0.5619680000000 1.0
C      1  0.5641600000000  0.5770060000000  0.4774490000000 1.0
C      1  0.5809920000000  0.4867520000000  0.4615620000000 1.0
C      1  0.4509760000000  0.5840920000000  0.4980560000000 1.0
C      1  0.4087170000000  0.5307310000000  0.5105440000000 1.0
C      1  0.4772120000000  0.5489620000000  0.5686360000000 1.0
C      1  0.5957230000000  0.5313490000000  0.4458750000000 1.0
C      1  0.5255720000000  0.4069780000000  0.4699700000000 1.0
C      1  0.4850780000000  0.5400410000000  0.4807130000000 1.0
C      1  0.4463610000000  0.5553170000000  0.5774540000000 1.0
C      1  0.4637520000000  0.4715950000000  0.5908240000000 1.0
C      1  0.5770170000000  0.4628820000000  0.5191800000000 1.0
C      1  0.4247570000000  0.4602330000000  0.4797900000000 1.0
C      1  0.4724030000000  0.4742130000000  0.4540880000000 1.0
C      1  0.4806760000000  0.4918820000000  0.4760510000000 1.0
C      1  0.4436090000000  0.4396270000000  0.4697930000000 1.0
C      1  0.4757250000000  0.5243600000000  0.5508900000000 1.0
C      1  0.4364390000000  0.5600050000000  0.4681000000000 1.0
C      1  0.5149420000000  0.4877240000000  0.5365670000000 1.0
C      1  0.5766300000000  0.5566130000000  0.5190320000000 1.0
C      1  0.5739300000000  0.4597420000000  0.4710240000000 1.0
C      1  0.4512700000000  0.4867070000000  0.5149500000000 1.0
C      1  0.5582040000000  0.4635640000000  0.4961610000000 1.0
C      1  0.4715620000000  0.4760740000000  0.4983310000000 1.0
C      1  0.5474130000000  0.5900190000000  0.4976860000000 1.0
C      1  0.4914300000000  0.5614780000000  0.4324020000000 1.0
C      1  0.3979310000000  0.4709780000000  0.5213390000000 1.0
C      1  0.5856390000000  0.5177920000000  0.4262160000000 1.0
C      1  0.5446300000000  0.4891950000000  0.4141660000000 1.0
C      1  0.4140630000000  0.5321270000000  0.5406920000000 1.0
C      1  0.5024150000000  0.3977590000000  0.5389840000000 1.0
C      1  0.4632830000000  0.5194260000000  0.4800320000000 1.0
C      1  0.4863600000000  0.4237350000000  0.4504430000000 1.0
C      1  0.4475030000000  0.5311820000000  0.4302210000000 1.0
C      1  0.5186140000000  0.6004510000000  0.4934440000000 1.0
C      1  0.5095550000000  0.5091170000000  0.5145470000000 1.0
C      1  0.4706630000000  0.4977360000000  0.4068490000000 1.0
C      1  0.5249420000000  0.5839430000000  0.4522530000000 1.0
C      1  0.5113000000000  0.5007800000000  0.4795860000000 1.0
C      1  0.4354260000000  0.4202850000000  0.5478890000000 1.0
C      1  0.5928970000000  0.5079710000000  0.4792440000000 1.0
C      1  0.5313580000000  0.4542050000000  0.5024540000000 1.0
C      1  0.4875070000000  0.5269930000000  0.5255380000000 1.0
C      1  0.4052730000000  0.5089710000000  0.4918030000000 1.0
C      1  0.4414330000000  0.3974720000000  0.5314910000000 1.0
END
