TITL C-4164233-775-605 3.87063332911328 125000 -12629.2626564773 0 0 85 (C1) n - 1
REM
REM in /home/nfs/bkarasulu/CARBON/AIRSS/Generating-Clusters/ReaxFF-fromJPCA2015/Units_Real/with-SteepDescent/Only-C1/SD-CG/Try1-3A/FIRE-CG
REM
REM
REM
REM
REM
REM ./C.cell (11c1c37f851c82e70ff6c80c92926a4b)
REM
REM compiler GCC version 9.2.1 20190827 (Red Hat 9.2.1-1)
REM options -cpp -mtune=generic -march=x86-64 -g -O0 -fpre-include=/usr/include/finclude/math-vector-fortran.h
REM seed 1890938936 -1127401041 -1195995666 2080526760 -1604560733 267493620 1868629849 564332902 -2613290 1819627106 -1143543666 2015125955 1395001567 -1011488569 975814526 -2098109816 -1810151513 716444130 384763482 -648715781 1392616580 -1776183245 -125994307 139275631 2025172653 2070083620 -489037763 -1585353344 816485669 360132397 809418937 1285906019 157021591
REM
CELL 1.54180   50.00000   50.00000   50.00000   90.00000   90.00000   90.00000
LATT -1
SFAC C  
C      1  0.4796830000000  0.5427290000000  0.4192920000000 1.0
C      1  0.4526400000000  0.4291220000000  0.5037600000000 1.0
C      1  0.4287740000000  0.4658060000000  0.5156030000000 1.0
C      1  0.4605570000000  0.4751480000000  0.4618000000000 1.0
C      1  0.5020000000000  0.4359020000000  0.5322610000000 1.0
C      1  0.5860730000000  0.5435980000000  0.5277590000000 1.0
C      1  0.4881680000000  0.5392060000000  0.5745140000000 1.0
C      1  0.4714750000000  0.5779680000000  0.4759180000000 1.0
C      1  0.5193900000000  0.5365220000000  0.4948780000000 1.0
C      1  0.4598510000000  0.4829770000000  0.4191640000000 1.0
C      1  0.4237350000000  0.4426840000000  0.5010380000000 1.0
C      1  0.4621740000000  0.4288430000000  0.5298100000000 1.0
C      1  0.4750800000000  0.4620760000000  0.4192350000000 1.0
C      1  0.4435760000000  0.5062080000000  0.4257780000000 1.0
C      1  0.5072310000000  0.5534200000000  0.5347750000000 1.0
C      1  0.5841270000000  0.4718520000000  0.4841050000000 1.0
C      1  0.5035050000000  0.4605700000000  0.5204750000000 1.0
C      1  0.4377380000000  0.5454440000000  0.5372780000000 1.0
C      1  0.5834840000000  0.4894040000000  0.5305370000000 1.0
C      1  0.4537840000000  0.5633530000000  0.4640850000000 1.0
C      1  0.4880220000000  0.4835320000000  0.5317070000000 1.0
C      1  0.5415910000000  0.5174270000000  0.4984310000000 1.0
C      1  0.5884840000000  0.5463190000000  0.5002190000000 1.0
C      1  0.5276410000000  0.5341610000000  0.4368000000000 1.0
C      1  0.4772170000000  0.4577490000000  0.5693010000000 1.0
C      1  0.5670830000000  0.4428670000000  0.5204820000000 1.0
C      1  0.4144750000000  0.4571320000000  0.4765640000000 1.0
C      1  0.5499990000000  0.4427400000000  0.5445820000000 1.0
C      1  0.5287830000000  0.4288450000000  0.5283440000000 1.0
C      1  0.4714410000000  0.4517670000000  0.4442020000000 1.0
C      1  0.4981060000000  0.4413510000000  0.4440890000000 1.0
C      1  0.4839130000000  0.5721570000000  0.5287030000000 1.0
C      1  0.4274680000000  0.5211410000000  0.4931930000000 1.0
C      1  0.5155290000000  0.4743570000000  0.4696800000000 1.0
C      1  0.5123200000000  0.5464980000000  0.5644120000000 1.0
C      1  0.4797150000000  0.4332120000000  0.5507700000000 1.0
C      1  0.4658660000000  0.5325580000000  0.5772920000000 1.0
C      1  0.5837610000000  0.4662110000000  0.5129830000000 1.0
C      1  0.4489470000000  0.4858640000000  0.5205380000000 1.0
C      1  0.5463970000000  0.4301310000000  0.5042430000000 1.0
C      1  0.5551210000000  0.5128420000000  0.5686840000000 1.0
C      1  0.4548530000000  0.5679810000000  0.5286350000000 1.0
C      1  0.5988710000000  0.5201480000000  0.4942830000000 1.0
C      1  0.5192580000000  0.5053190000000  0.4330870000000 1.0
C      1  0.5133730000000  0.5548890000000  0.4746000000000 1.0
C      1  0.4959630000000  0.5253180000000  0.5075380000000 1.0
C      1  0.4689020000000  0.5811480000000  0.5059340000000 1.0
C      1  0.4463750000000  0.5012880000000  0.5592170000000 1.0
C      1  0.5467370000000  0.4675070000000  0.5588440000000 1.0
C      1  0.4766030000000  0.4409750000000  0.4907960000000 1.0
C      1  0.5564590000000  0.5084680000000  0.4717750000000 1.0
C      1  0.4425170000000  0.5300320000000  0.5625270000000 1.0
C      1  0.4243590000000  0.5032130000000  0.4480610000000 1.0
C      1  0.5600190000000  0.5561010000000  0.5252240000000 1.0
C      1  0.4372810000000  0.5469570000000  0.4496910000000 1.0
C      1  0.5614870000000  0.4585420000000  0.4697290000000 1.0
C      1  0.4771820000000  0.5144100000000  0.4885080000000 1.0
C      1  0.5965090000000  0.5139930000000  0.5237920000000 1.0
C      1  0.5010090000000  0.4571850000000  0.4908760000000 1.0
C      1  0.4981430000000  0.5709240000000  0.4590430000000 1.0
C      1  0.5442550000000  0.4348670000000  0.4752810000000 1.0
C      1  0.5348980000000  0.5310080000000  0.5777240000000 1.0
C      1  0.5849010000000  0.4999030000000  0.4776150000000 1.0
C      1  0.5024400000000  0.4913130000000  0.4507200000000 1.0
C      1  0.5206350000000  0.4348480000000  0.4581680000000 1.0
C      1  0.4226460000000  0.5262840000000  0.5220140000000 1.0
C      1  0.5345600000000  0.5028510000000  0.5214630000000 1.0
C      1  0.5005060000000  0.5063090000000  0.4129950000000 1.0
C      1  0.4214750000000  0.5264520000000  0.4648390000000 1.0
C      1  0.5367650000000  0.5037350000000  0.5884970000000 1.0
C      1  0.5435170000000  0.4798870000000  0.4665780000000 1.0
C      1  0.4878650000000  0.5237330000000  0.3944810000000 1.0
C      1  0.4535100000000  0.5336680000000  0.4280700000000 1.0
C      1  0.5514500000000  0.5332670000000  0.4512130000000 1.0
C      1  0.4514850000000  0.5058400000000  0.4985960000000 1.0
C      1  0.4286970000000  0.5007550000000  0.5360550000000 1.0
C      1  0.4707770000000  0.4837210000000  0.5561010000000 1.0
C      1  0.5021750000000  0.4665720000000  0.5773090000000 1.0
C      1  0.5288060000000  0.4749420000000  0.5809930000000 1.0
C      1  0.5062080000000  0.5059820000000  0.5253840000000 1.0
C      1  0.4312730000000  0.4774650000000  0.4615320000000 1.0
C      1  0.4784240000000  0.4974320000000  0.4652230000000 1.0
C      1  0.5557550000000  0.4928990000000  0.5443840000000 1.0
C      1  0.5344290000000  0.5568650000000  0.5299420000000 1.0
C      1  0.5017240000000  0.5533100000000  0.4353810000000 1.0
END
