TITL C-4164236-1577-545 14.9974073403073 125000 -13634.8288611723 0 0 93 (C1) n - 1
REM
REM in /home/nfs/bkarasulu/CARBON/AIRSS/Generating-Clusters/ReaxFF-fromJPCA2015/Units_Real/with-SteepDescent/Only-C1/SD-CG/Try1-3A/FIRE-CG
REM
REM
REM
REM
REM
REM ./C.cell (11c1c37f851c82e70ff6c80c92926a4b)
REM
REM compiler GCC version 9.2.1 20190827 (Red Hat 9.2.1-1)
REM options -cpp -mtune=generic -march=x86-64 -g -O0 -fpre-include=/usr/include/finclude/math-vector-fortran.h
REM seed -1856714714 1780776184 1429245798 -1737486489 1854588790 -1072460247 -80623891 2087457846 -2060533470 1247163683 -47079046 391221419 -1321604409 514682439 1463300548 -271034736 -748802204 -74994037 -1889555177 -1975801839 1537262192 -1101748476 -1407829964 -1190015642 65511495 -1902463971 684257931 1234859350 -1571485081 -1832805258 -533004352 -2005410090 1610960801
REM
CELL 1.54180   50.00000   50.00000   50.00000   90.00000   90.00000   90.00000
LATT -1
SFAC C  
C      1  0.5352180000000  0.4437160000000  0.4481850000000 1.0
C      1  0.4661540000000  0.5106710000000  0.5212410000000 1.0
C      1  0.4960360000000  0.5854050000000  0.5231220000000 1.0
C      1  0.4597050000000  0.5521650000000  0.4391680000000 1.0
C      1  0.4924180000000  0.4520640000000  0.4286550000000 1.0
C      1  0.4874950000000  0.5566280000000  0.4537500000000 1.0
C      1  0.4364330000000  0.5536680000000  0.4537570000000 1.0
C      1  0.4469050000000  0.5092410000000  0.4232800000000 1.0
C      1  0.4439870000000  0.5380950000000  0.4947540000000 1.0
C      1  0.4524670000000  0.5766750000000  0.4973330000000 1.0
C      1  0.4549480000000  0.4637990000000  0.5983140000000 1.0
C      1  0.5786730000000  0.5240740000000  0.4793630000000 1.0
C      1  0.4928240000000  0.4854950000000  0.5471240000000 1.0
C      1  0.4406890000000  0.5560230000000  0.5151900000000 1.0
C      1  0.4882210000000  0.4789300000000  0.4384230000000 1.0
C      1  0.4670320000000  0.4823950000000  0.5301550000000 1.0
C      1  0.5321680000000  0.4891300000000  0.5811810000000 1.0
C      1  0.5475280000000  0.5210340000000  0.5310390000000 1.0
C      1  0.5215990000000  0.4577670000000  0.4279200000000 1.0
C      1  0.5434740000000  0.5251890000000  0.4478470000000 1.0
C      1  0.4482890000000  0.5482930000000  0.5432870000000 1.0
C      1  0.4520610000000  0.4436970000000  0.5102730000000 1.0
C      1  0.5240100000000  0.5709490000000  0.4735380000000 1.0
C      1  0.5639150000000  0.5499630000000  0.4814620000000 1.0
C      1  0.5457920000000  0.5280560000000  0.5739920000000 1.0
C      1  0.5619110000000  0.5124860000000  0.5526210000000 1.0
C      1  0.6008540000000  0.4752070000000  0.4712230000000 1.0
C      1  0.5139080000000  0.4997540000000  0.5318830000000 1.0
C      1  0.4728310000000  0.5441860000000  0.5576090000000 1.0
C      1  0.4901600000000  0.4244030000000  0.5137630000000 1.0
C      1  0.4958420000000  0.4629380000000  0.5639650000000 1.0
C      1  0.5212500000000  0.4255500000000  0.4632370000000 1.0
C      1  0.4935460000000  0.4188130000000  0.4640350000000 1.0
C      1  0.5162150000000  0.4473520000000  0.5562930000000 1.0
C      1  0.4203540000000  0.5318030000000  0.4608570000000 1.0
C      1  0.4810740000000  0.5843360000000  0.4964040000000 1.0
C      1  0.5525110000000  0.5597820000000  0.5065850000000 1.0
C      1  0.5039440000000  0.5376700000000  0.4995740000000 1.0
C      1  0.5225190000000  0.5145920000000  0.4298610000000 1.0
C      1  0.4432710000000  0.5198790000000  0.5428610000000 1.0
C      1  0.5236370000000  0.5624230000000  0.5016520000000 1.0
C      1  0.5297860000000  0.4881470000000  0.5093200000000 1.0
C      1  0.5800100000000  0.5096330000000  0.5048670000000 1.0
C      1  0.5077440000000  0.5554740000000  0.4272160000000 1.0
C      1  0.5435790000000  0.5519660000000  0.4610110000000 1.0
C      1  0.5625760000000  0.4632840000000  0.5505550000000 1.0
C      1  0.4957400000000  0.5197210000000  0.5209920000000 1.0
C      1  0.5171330000000  0.4713400000000  0.4903570000000 1.0
C      1  0.4796030000000  0.4303250000000  0.4426250000000 1.0
C      1  0.5338240000000  0.4495690000000  0.4770470000000 1.0
C      1  0.4730220000000  0.4643860000000  0.5085340000000 1.0
C      1  0.4899120000000  0.4695950000000  0.4872860000000 1.0
C      1  0.5152820000000  0.4865780000000  0.4319080000000 1.0
C      1  0.4124270000000  0.5075490000000  0.5053890000000 1.0
C      1  0.5409240000000  0.4330420000000  0.5217290000000 1.0
C      1  0.4917490000000  0.5331730000000  0.4743990000000 1.0
C      1  0.4673480000000  0.5297200000000  0.4221870000000 1.0
C      1  0.4437720000000  0.5700670000000  0.4720770000000 1.0
C      1  0.4569650000000  0.4360430000000  0.4581030000000 1.0
C      1  0.4168680000000  0.5326940000000  0.4909290000000 1.0
C      1  0.5629440000000  0.4556840000000  0.4753900000000 1.0
C      1  0.4362150000000  0.4782990000000  0.5413410000000 1.0
C      1  0.5651110000000  0.5087130000000  0.4583280000000 1.0
C      1  0.4268670000000  0.4870900000000  0.4892430000000 1.0
C      1  0.5371970000000  0.4640240000000  0.5652740000000 1.0
C      1  0.5503350000000  0.5087180000000  0.5057420000000 1.0
C      1  0.4466750000000  0.4452060000000  0.5640710000000 1.0
C      1  0.5156350000000  0.4313680000000  0.5316740000000 1.0
C      1  0.4545490000000  0.5115080000000  0.4943460000000 1.0
C      1  0.4257860000000  0.5075260000000  0.4453920000000 1.0
C      1  0.5737070000000  0.4797190000000  0.4603780000000 1.0
C      1  0.4351820000000  0.4491700000000  0.5387900000000 1.0
C      1  0.4373130000000  0.4562920000000  0.4539270000000 1.0
C      1  0.4738750000000  0.5105220000000  0.4729820000000 1.0
C      1  0.5154890000000  0.5736360000000  0.5407730000000 1.0
C      1  0.4708170000000  0.4511360000000  0.5799380000000 1.0
C      1  0.5163590000000  0.5208660000000  0.5768950000000 1.0
C      1  0.4808280000000  0.4837110000000  0.4652110000000 1.0
C      1  0.4993560000000  0.5300560000000  0.4182630000000 1.0
C      1  0.4783160000000  0.4229570000000  0.4888250000000 1.0
C      1  0.4237150000000  0.4825390000000  0.4596710000000 1.0
C      1  0.5913070000000  0.4878730000000  0.5199140000000 1.0
C      1  0.4944020000000  0.5328260000000  0.5672600000000 1.0
C      1  0.5742100000000  0.4455060000000  0.5004520000000 1.0
C      1  0.5763820000000  0.4877210000000  0.5456330000000 1.0
C      1  0.4217180000000  0.5025990000000  0.5328330000000 1.0
C      1  0.5538740000000  0.5485510000000  0.5336660000000 1.0
C      1  0.5951490000000  0.4659770000000  0.4998980000000 1.0
C      1  0.4286560000000  0.4570650000000  0.4985970000000 1.0
C      1  0.4959900000000  0.5789740000000  0.4718190000000 1.0
C      1  0.5649630000000  0.4420980000000  0.5289350000000 1.0
C      1  0.5519040000000  0.5059900000000  0.5915330000000 1.0
C      1  0.5350420000000  0.5594720000000  0.5517040000000 1.0
END
