TITL C-4164238-4211-728 -0.656666409718481 125000 -22803.784948381 0 0 152 (C1) n - 1
REM
REM in /home/nfs/bkarasulu/CARBON/AIRSS/Generating-Clusters/ReaxFF-fromJPCA2015/Units_Real/with-SteepDescent/Only-C1/SD-CG/Try1-3A/FIRE-CG
REM
REM
REM
REM
REM
REM ./C.cell (11c1c37f851c82e70ff6c80c92926a4b)
REM
REM compiler GCC version 9.2.1 20190827 (Red Hat 9.2.1-1)
REM options -cpp -mtune=generic -march=x86-64 -g -O0 -fpre-include=/usr/include/finclude/math-vector-fortran.h
REM seed 642682902 708974528 -1924069922 1878415433 917732279 -701004735 -962783263 -1422826819 -1187432604 -1220802111 1899050002 2039214654 -1599272698 -661800418 -698624083 -1075071959 -1832041964 1348106870 1440904987 -1688762345 -2123686978 390289303 242321831 1229867310 440503760 82609704 -2111954849 2126398845 1555268086 -1503398582 -348446917 1140635620 -691927546
REM
CELL 1.54180   50.00000   50.00000   50.00000   90.00000   90.00000   90.00000
LATT -1
SFAC C  
C      1  0.4188270000000  0.5518320000000  0.5101080000000 1.0
C      1  0.4262410000000  0.4198310000000  0.4931600000000 1.0
C      1  0.4626220000000  0.4839130000000  0.4364120000000 1.0
C      1  0.5080180000000  0.5120770000000  0.4381860000000 1.0
C      1  0.5706520000000  0.5478220000000  0.4358960000000 1.0
C      1  0.4183780000000  0.4574430000000  0.5616050000000 1.0
C      1  0.6025880000000  0.5147870000000  0.5384310000000 1.0
C      1  0.5113150000000  0.5310070000000  0.5856610000000 1.0
C      1  0.5312080000000  0.4933330000000  0.5877880000000 1.0
C      1  0.5092380000000  0.4648360000000  0.4233630000000 1.0
C      1  0.5996300000000  0.5540460000000  0.5010740000000 1.0
C      1  0.4445490000000  0.5798560000000  0.4829260000000 1.0
C      1  0.3923530000000  0.5403650000000  0.5057450000000 1.0
C      1  0.5474430000000  0.4487310000000  0.5948140000000 1.0
C      1  0.5834460000000  0.5075410000000  0.5597800000000 1.0
C      1  0.4501810000000  0.5526070000000  0.4810250000000 1.0
C      1  0.4315190000000  0.5782600000000  0.5090960000000 1.0
C      1  0.5099970000000  0.6100470000000  0.4950380000000 1.0
C      1  0.5509490000000  0.4802530000000  0.5175100000000 1.0
C      1  0.6082660000000  0.4703300000000  0.5063250000000 1.0
C      1  0.4683040000000  0.4477580000000  0.4117190000000 1.0
C      1  0.3964610000000  0.5389870000000  0.4779090000000 1.0
C      1  0.4040710000000  0.5138090000000  0.5458210000000 1.0
C      1  0.4630930000000  0.5460750000000  0.4352140000000 1.0
C      1  0.4644940000000  0.5035580000000  0.4142190000000 1.0
C      1  0.5226480000000  0.5778720000000  0.5660460000000 1.0
C      1  0.4812310000000  0.6041570000000  0.4957500000000 1.0
C      1  0.4633940000000  0.5161850000000  0.5956130000000 1.0
C      1  0.4577300000000  0.4821400000000  0.5033100000000 1.0
C      1  0.4649400000000  0.5428440000000  0.5887970000000 1.0
C      1  0.5450590000000  0.5648360000000  0.5532550000000 1.0
C      1  0.5225260000000  0.4059050000000  0.4500560000000 1.0
C      1  0.4356610000000  0.5019170000000  0.5868710000000 1.0
C      1  0.5829450000000  0.5603470000000  0.5390030000000 1.0
C      1  0.4336430000000  0.5097060000000  0.4838520000000 1.0
C      1  0.3939050000000  0.4909810000000  0.5029810000000 1.0
C      1  0.4425620000000  0.4096330000000  0.5153450000000 1.0
C      1  0.5857440000000  0.4375620000000  0.4927290000000 1.0
C      1  0.5385750000000  0.5191950000000  0.5835510000000 1.0
C      1  0.4166230000000  0.4891130000000  0.4300720000000 1.0
C      1  0.6009330000000  0.4978880000000  0.5142870000000 1.0
C      1  0.4647360000000  0.5226490000000  0.5221570000000 1.0
C      1  0.4360700000000  0.4712430000000  0.4367120000000 1.0
C      1  0.5313690000000  0.5022910000000  0.3978120000000 1.0
C      1  0.5459240000000  0.5985340000000  0.5124060000000 1.0
C      1  0.4504120000000  0.5825930000000  0.5307310000000 1.0
C      1  0.5230370000000  0.5941850000000  0.4745810000000 1.0
C      1  0.5928590000000  0.5052340000000  0.4592100000000 1.0
C      1  0.4216900000000  0.4643150000000  0.5326530000000 1.0
C      1  0.5366660000000  0.4698800000000  0.4942080000000 1.0
C      1  0.5998280000000  0.4599740000000  0.4796080000000 1.0
C      1  0.4924310000000  0.5018490000000  0.4596110000000 1.0
C      1  0.5457790000000  0.5235870000000  0.5251990000000 1.0
C      1  0.5154200000000  0.5274430000000  0.3958210000000 1.0
C      1  0.4746900000000  0.5901930000000  0.5193700000000 1.0
C      1  0.4669120000000  0.4171070000000  0.5564930000000 1.0
C      1  0.5542450000000  0.4770970000000  0.5839360000000 1.0
C      1  0.5424390000000  0.4257260000000  0.5790310000000 1.0
C      1  0.5506060000000  0.5754710000000  0.4992450000000 1.0
C      1  0.5062530000000  0.4206290000000  0.4309110000000 1.0
C      1  0.4867600000000  0.5539040000000  0.4210440000000 1.0
C      1  0.4460310000000  0.5244940000000  0.4249300000000 1.0
C      1  0.4676530000000  0.5958100000000  0.4714560000000 1.0
C      1  0.5909020000000  0.4753330000000  0.4557560000000 1.0
C      1  0.4897220000000  0.4746590000000  0.4474730000000 1.0
C      1  0.5113480000000  0.5944000000000  0.5449070000000 1.0
C      1  0.3910890000000  0.5137580000000  0.5207930000000 1.0
C      1  0.5511700000000  0.4878490000000  0.4453760000000 1.0
C      1  0.4986880000000  0.4721830000000  0.5240380000000 1.0
C      1  0.4296240000000  0.4762170000000  0.5795220000000 1.0
C      1  0.5769880000000  0.5709500000000  0.5113200000000 1.0
C      1  0.5733870000000  0.5020110000000  0.5054510000000 1.0
C      1  0.4072240000000  0.4985180000000  0.4763670000000 1.0
C      1  0.4189390000000  0.4266250000000  0.5625280000000 1.0
C      1  0.4835730000000  0.4061290000000  0.5347050000000 1.0
C      1  0.4843550000000  0.5877560000000  0.4483820000000 1.0
C      1  0.4394110000000  0.5333930000000  0.4993700000000 1.0
C      1  0.4749880000000  0.4604730000000  0.5347210000000 1.0
C      1  0.5359420000000  0.5088720000000  0.4284230000000 1.0
C      1  0.4074980000000  0.4424370000000  0.4911800000000 1.0
C      1  0.5027520000000  0.4357190000000  0.5853030000000 1.0
C      1  0.4397910000000  0.4138890000000  0.5466330000000 1.0
C      1  0.5041090000000  0.5591020000000  0.5782080000000 1.0
C      1  0.5070940000000  0.5503500000000  0.5224300000000 1.0
C      1  0.5303240000000  0.5775670000000  0.4540220000000 1.0
C      1  0.5199950000000  0.4567100000000  0.5941470000000 1.0
C      1  0.4789100000000  0.4071270000000  0.4785850000000 1.0
C      1  0.4487240000000  0.4633210000000  0.5211710000000 1.0
C      1  0.4736400000000  0.4660550000000  0.5628810000000 1.0
C      1  0.5227000000000  0.4773370000000  0.4049220000000 1.0
C      1  0.5339660000000  0.4987490000000  0.5323180000000 1.0
C      1  0.4635280000000  0.4714650000000  0.3981030000000 1.0
C      1  0.5069920000000  0.3946030000000  0.4720590000000 1.0
C      1  0.5483590000000  0.4197040000000  0.4554780000000 1.0
C      1  0.5544000000000  0.4144770000000  0.5072790000000 1.0
C      1  0.4980900000000  0.5529070000000  0.4773020000000 1.0
C      1  0.5542270000000  0.5594630000000  0.4565350000000 1.0
C      1  0.4572270000000  0.4943570000000  0.4785540000000 1.0
C      1  0.4749640000000  0.5660760000000  0.5770000000000 1.0
C      1  0.4936620000000  0.5205040000000  0.5156770000000 1.0
C      1  0.5641100000000  0.4200180000000  0.4822420000000 1.0
C      1  0.4637090000000  0.5111560000000  0.5485130000000 1.0
C      1  0.5738200000000  0.5147500000000  0.4794340000000 1.0
C      1  0.4758470000000  0.4395820000000  0.5739760000000 1.0
C      1  0.5079560000000  0.4719860000000  0.4969080000000 1.0
C      1  0.5705310000000  0.4638840000000  0.5366750000000 1.0
C      1  0.5254760000000  0.4404490000000  0.4212480000000 1.0
C      1  0.5408010000000  0.4881000000000  0.4721750000000 1.0
C      1  0.4168370000000  0.5124720000000  0.5681080000000 1.0
C      1  0.5009490000000  0.5045560000000  0.4890450000000 1.0
C      1  0.5903850000000  0.4509680000000  0.5200490000000 1.0
C      1  0.4740600000000  0.5461830000000  0.4646720000000 1.0
C      1  0.4845140000000  0.4949960000000  0.5624110000000 1.0
C      1  0.5197160000000  0.4150630000000  0.5678860000000 1.0
C      1  0.5120810000000  0.4061290000000  0.5409660000000 1.0
C      1  0.5683890000000  0.5540330000000  0.5636580000000 1.0
C      1  0.4941710000000  0.4305460000000  0.4854770000000 1.0
C      1  0.5661340000000  0.5268710000000  0.5724130000000 1.0
C      1  0.4620590000000  0.4646580000000  0.4822830000000 1.0
C      1  0.4191730000000  0.5167410000000  0.4331780000000 1.0
C      1  0.6025510000000  0.5443700000000  0.4731130000000 1.0
C      1  0.5200320000000  0.5577700000000  0.4948900000000 1.0
C      1  0.5297410000000  0.4068690000000  0.5173810000000 1.0
C      1  0.5174000000000  0.4148650000000  0.4903990000000 1.0
C      1  0.5518150000000  0.4403410000000  0.4367980000000 1.0
C      1  0.5381830000000  0.5328150000000  0.4945040000000 1.0
C      1  0.5683910000000  0.4651510000000  0.4395660000000 1.0
C      1  0.4924640000000  0.5222300000000  0.4156930000000 1.0
C      1  0.5942390000000  0.5327610000000  0.4476150000000 1.0
C      1  0.4947620000000  0.5752510000000  0.5311760000000 1.0
C      1  0.5577700000000  0.5382500000000  0.4759930000000 1.0
C      1  0.5267190000000  0.5126830000000  0.4790350000000 1.0
C      1  0.4914090000000  0.5093630000000  0.5888960000000 1.0
C      1  0.5229560000000  0.6105940000000  0.5227830000000 1.0
C      1  0.5739180000000  0.4794950000000  0.5608690000000 1.0
C      1  0.4555210000000  0.5649230000000  0.5540180000000 1.0
C      1  0.5053910000000  0.5749510000000  0.4326630000000 1.0
C      1  0.6034920000000  0.5423270000000  0.5286380000000 1.0
C      1  0.5319570000000  0.5457490000000  0.5371020000000 1.0
C      1  0.4620440000000  0.4182850000000  0.4550580000000 1.0
C      1  0.4014840000000  0.5232790000000  0.4558590000000 1.0
C      1  0.4553630000000  0.5373250000000  0.5461670000000 1.0
C      1  0.4903740000000  0.4568550000000  0.4771570000000 1.0
C      1  0.5253080000000  0.5501250000000  0.4104180000000 1.0
C      1  0.5054970000000  0.4979460000000  0.5345670000000 1.0
C      1  0.4156310000000  0.4470440000000  0.4634550000000 1.0
C      1  0.5495500000000  0.5376200000000  0.4185290000000 1.0
C      1  0.4018150000000  0.4642840000000  0.5111720000000 1.0
C      1  0.4689110000000  0.4036360000000  0.5095170000000 1.0
C      1  0.4770360000000  0.4263480000000  0.4316730000000 1.0
C      1  0.4358960000000  0.4253020000000  0.4650560000000 1.0
C      1  0.4095930000000  0.4734150000000  0.4525330000000 1.0
END
