TITL C-4164238-4211-553 45.8753008801873 125000 -22915.3106979512 0 0 154 (C1) n - 1
REM
REM in /home/nfs/bkarasulu/CARBON/AIRSS/Generating-Clusters/ReaxFF-fromJPCA2015/Units_Real/with-SteepDescent/Only-C1/SD-CG/Try1-3A/FIRE-CG
REM
REM
REM
REM
REM
REM ./C.cell (11c1c37f851c82e70ff6c80c92926a4b)
REM
REM compiler GCC version 9.2.1 20190827 (Red Hat 9.2.1-1)
REM options -cpp -mtune=generic -march=x86-64 -g -O0 -fpre-include=/usr/include/finclude/math-vector-fortran.h
REM seed 928725221 -1614942851 -1634151367 1757038673 -1400237930 1312801129 1971750131 -1072233702 1963778814 960744631 440460414 621368388 1795887138 -2114539083 -1641366494 -87993334 931266571 -454350332 -1004307800 1911492666 1441126108 -156379367 420111129 959996785 -905673770 -790716780 -1906170923 -461889517 -977540341 581681313 -1218172162 1453997803 2141580905
REM
CELL 1.54180   50.00000   50.00000   50.00000   90.00000   90.00000   90.00000
LATT -1
SFAC C  
C      1  0.5784100000000  0.5037790000000  0.4855050000000 1.0
C      1  0.5664490000000  0.4606160000000  0.5438090000000 1.0
C      1  0.5560780000000  0.5206460000000  0.4810530000000 1.0
C      1  0.5113770000000  0.6017490000000  0.4876740000000 1.0
C      1  0.4732690000000  0.5510620000000  0.4515240000000 1.0
C      1  0.4622960000000  0.5720390000000  0.5344550000000 1.0
C      1  0.5355680000000  0.4848160000000  0.5771830000000 1.0
C      1  0.4912990000000  0.5625920000000  0.4296500000000 1.0
C      1  0.4436140000000  0.4656220000000  0.4829370000000 1.0
C      1  0.5287580000000  0.5683880000000  0.5263230000000 1.0
C      1  0.5536480000000  0.4840490000000  0.5492020000000 1.0
C      1  0.4013600000000  0.5346680000000  0.5364480000000 1.0
C      1  0.4252800000000  0.5607580000000  0.4541110000000 1.0
C      1  0.4227220000000  0.4608650000000  0.4357170000000 1.0
C      1  0.4038430000000  0.5497020000000  0.4694230000000 1.0
C      1  0.4413700000000  0.4375610000000  0.4322390000000 1.0
C      1  0.5204830000000  0.6000540000000  0.4578240000000 1.0
C      1  0.5483610000000  0.4187700000000  0.4475890000000 1.0
C      1  0.4566320000000  0.5009880000000  0.5854020000000 1.0
C      1  0.4248790000000  0.4717420000000  0.5531580000000 1.0
C      1  0.5104120000000  0.5407670000000  0.4950690000000 1.0
C      1  0.4989130000000  0.4692240000000  0.5455280000000 1.0
C      1  0.4802010000000  0.5271150000000  0.3922290000000 1.0
C      1  0.5835520000000  0.5295950000000  0.5526480000000 1.0
C      1  0.4835660000000  0.4196190000000  0.5278490000000 1.0
C      1  0.5141200000000  0.4738800000000  0.4192530000000 1.0
C      1  0.5849170000000  0.5118650000000  0.4345450000000 1.0
C      1  0.5040840000000  0.5529300000000  0.5870090000000 1.0
C      1  0.4702180000000  0.4688900000000  0.5399410000000 1.0
C      1  0.4446350000000  0.5036100000000  0.5181900000000 1.0
C      1  0.5126380000000  0.4988410000000  0.5041160000000 1.0
C      1  0.5829280000000  0.4805620000000  0.4677980000000 1.0
C      1  0.5477230000000  0.5541110000000  0.5730400000000 1.0
C      1  0.4260650000000  0.4982420000000  0.5395600000000 1.0
C      1  0.4139290000000  0.4580860000000  0.4816170000000 1.0
C      1  0.5361870000000  0.4827120000000  0.5115200000000 1.0
C      1  0.4821060000000  0.5566150000000  0.5687380000000 1.0
C      1  0.5294590000000  0.4306100000000  0.4271980000000 1.0
C      1  0.4106960000000  0.5163660000000  0.5542120000000 1.0
C      1  0.5020920000000  0.4496080000000  0.4830120000000 1.0
C      1  0.4925470000000  0.4545520000000  0.5882610000000 1.0
C      1  0.4836090000000  0.5071790000000  0.5937370000000 1.0
C      1  0.4051970000000  0.4715410000000  0.4570330000000 1.0
C      1  0.4409470000000  0.5652550000000  0.5527120000000 1.0
C      1  0.4625520000000  0.4400390000000  0.5294330000000 1.0
C      1  0.5977460000000  0.4760010000000  0.5117840000000 1.0
C      1  0.4235880000000  0.5388370000000  0.4354190000000 1.0
C      1  0.5163300000000  0.4388530000000  0.5861500000000 1.0
C      1  0.5802680000000  0.4847430000000  0.5833650000000 1.0
C      1  0.5399090000000  0.4578720000000  0.5890160000000 1.0
C      1  0.4491070000000  0.5012180000000  0.4149970000000 1.0
C      1  0.5390110000000  0.4560810000000  0.4195790000000 1.0
C      1  0.3971750000000  0.5263040000000  0.5094690000000 1.0
C      1  0.4488050000000  0.5683240000000  0.5077700000000 1.0
C      1  0.5074560000000  0.5539850000000  0.5196870000000 1.0
C      1  0.5619850000000  0.5264760000000  0.4412110000000 1.0
C      1  0.5782460000000  0.5138590000000  0.5774990000000 1.0
C      1  0.4719340000000  0.5223070000000  0.4560790000000 1.0
C      1  0.5695170000000  0.4388570000000  0.4511840000000 1.0
C      1  0.4494460000000  0.4205070000000  0.4801620000000 1.0
C      1  0.5181270000000  0.4944840000000  0.3979610000000 1.0
C      1  0.5548520000000  0.5290580000000  0.5879700000000 1.0
C      1  0.5064840000000  0.5199580000000  0.3892160000000 1.0
C      1  0.4977380000000  0.4053170000000  0.5087460000000 1.0
C      1  0.4594940000000  0.5847290000000  0.4857380000000 1.0
C      1  0.5070530000000  0.5249220000000  0.5970870000000 1.0
C      1  0.5224080000000  0.5688890000000  0.5705910000000 1.0
C      1  0.4876020000000  0.4860090000000  0.4976370000000 1.0
C      1  0.4952680000000  0.4195040000000  0.4832450000000 1.0
C      1  0.4471690000000  0.4409750000000  0.5009070000000 1.0
C      1  0.5815040000000  0.4831070000000  0.4403030000000 1.0
C      1  0.5752270000000  0.4073130000000  0.5091350000000 1.0
C      1  0.3998860000000  0.4993560000000  0.4649320000000 1.0
C      1  0.4704570000000  0.5046010000000  0.3982910000000 1.0
C      1  0.4893350000000  0.6253550000000  0.4968280000000 1.0
C      1  0.4024880000000  0.5503220000000  0.4963370000000 1.0
C      1  0.4608530000000  0.4301370000000  0.5593920000000 1.0
C      1  0.4845940000000  0.5356550000000  0.4935250000000 1.0
C      1  0.5446580000000  0.5036250000000  0.4376460000000 1.0
C      1  0.5365420000000  0.5553860000000  0.4509660000000 1.0
C      1  0.5968170000000  0.5275100000000  0.5267030000000 1.0
C      1  0.4451140000000  0.4794300000000  0.4354720000000 1.0
C      1  0.5840830000000  0.4293570000000  0.5236840000000 1.0
C      1  0.4569410000000  0.4197520000000  0.4511900000000 1.0
C      1  0.5522310000000  0.5032800000000  0.5274840000000 1.0
C      1  0.4033300000000  0.5003680000000  0.4947560000000 1.0
C      1  0.4193490000000  0.5674670000000  0.5115250000000 1.0
C      1  0.5318260000000  0.5890540000000  0.5078930000000 1.0
C      1  0.4702490000000  0.4932070000000  0.5218710000000 1.0
C      1  0.4571410000000  0.5361840000000  0.4996610000000 1.0
C      1  0.4520140000000  0.5695250000000  0.4619460000000 1.0
C      1  0.5733600000000  0.4354500000000  0.5571630000000 1.0
C      1  0.4871190000000  0.4571290000000  0.4264780000000 1.0
C      1  0.5921110000000  0.4506020000000  0.5043490000000 1.0
C      1  0.5369580000000  0.4345390000000  0.5022330000000 1.0
C      1  0.5140340000000  0.5155610000000  0.5266640000000 1.0
C      1  0.4519820000000  0.4742380000000  0.5677490000000 1.0
C      1  0.5001150000000  0.4309520000000  0.4296880000000 1.0
C      1  0.4162710000000  0.5599600000000  0.5388000000000 1.0
C      1  0.5530540000000  0.5830330000000  0.4890120000000 1.0
C      1  0.4846420000000  0.4108400000000  0.4441560000000 1.0
C      1  0.4867870000000  0.5908150000000  0.5374460000000 1.0
C      1  0.4858310000000  0.5477610000000  0.5396470000000 1.0
C      1  0.5150940000000  0.5845950000000  0.5456950000000 1.0
C      1  0.5685090000000  0.4581550000000  0.5842170000000 1.0
C      1  0.4616470000000  0.4696270000000  0.4575140000000 1.0
C      1  0.5295020000000  0.4027010000000  0.5481740000000 1.0
C      1  0.4627000000000  0.4471610000000  0.4128830000000 1.0
C      1  0.4809530000000  0.4854240000000  0.4699760000000 1.0
C      1  0.5111280000000  0.4433800000000  0.5117660000000 1.0
C      1  0.5506560000000  0.4181890000000  0.5548250000000 1.0
C      1  0.4535010000000  0.5525870000000  0.5748840000000 1.0
C      1  0.4238930000000  0.5238590000000  0.5758800000000 1.0
C      1  0.4453220000000  0.5262990000000  0.5852370000000 1.0
C      1  0.5402170000000  0.5303400000000  0.5295670000000 1.0
C      1  0.4924850000000  0.5024150000000  0.5668480000000 1.0
C      1  0.5060690000000  0.4012130000000  0.4630990000000 1.0
C      1  0.4017670000000  0.4697410000000  0.5055210000000 1.0
C      1  0.5257010000000  0.5348010000000  0.4049290000000 1.0
C      1  0.5757000000000  0.4540500000000  0.4767350000000 1.0
C      1  0.5396720000000  0.5095890000000  0.4098740000000 1.0
C      1  0.5433010000000  0.5824370000000  0.4611940000000 1.0
C      1  0.4034250000000  0.5255410000000  0.4527460000000 1.0
C      1  0.4112050000000  0.4622410000000  0.5306970000000 1.0
C      1  0.4651590000000  0.4500100000000  0.5801020000000 1.0
C      1  0.4877510000000  0.5156320000000  0.5407870000000 1.0
C      1  0.5975360000000  0.5032060000000  0.5099560000000 1.0
C      1  0.5942280000000  0.5482810000000  0.5059830000000 1.0
C      1  0.5588650000000  0.5446390000000  0.5481270000000 1.0
C      1  0.5792500000000  0.5698820000000  0.4925990000000 1.0
C      1  0.4804000000000  0.6059860000000  0.5148300000000 1.0
C      1  0.5108420000000  0.4158050000000  0.5680810000000 1.0
C      1  0.4503480000000  0.5193130000000  0.4764200000000 1.0
C      1  0.4456100000000  0.5304220000000  0.4191120000000 1.0
C      1  0.5190730000000  0.5518520000000  0.4273390000000 1.0
C      1  0.5661040000000  0.4592640000000  0.4312190000000 1.0
C      1  0.5348260000000  0.4028130000000  0.4669170000000 1.0
C      1  0.4366430000000  0.4977260000000  0.4919740000000 1.0
C      1  0.5221360000000  0.4651670000000  0.4689590000000 1.0
C      1  0.5237910000000  0.3985570000000  0.5181850000000 1.0
C      1  0.5446330000000  0.4057810000000  0.4974570000000 1.0
C      1  0.4867280000000  0.5862010000000  0.4769250000000 1.0
C      1  0.4957440000000  0.5872570000000  0.4493920000000 1.0
C      1  0.5200520000000  0.4897030000000  0.4486860000000 1.0
C      1  0.5324720000000  0.5119210000000  0.5925540000000 1.0
C      1  0.5938280000000  0.5499440000000  0.4762830000000 1.0
C      1  0.5192830000000  0.4644910000000  0.5277820000000 1.0
C      1  0.5053890000000  0.4782600000000  0.5710930000000 1.0
C      1  0.4844240000000  0.4142020000000  0.5558990000000 1.0
C      1  0.4938110000000  0.5038530000000  0.4548950000000 1.0
C      1  0.5865630000000  0.5345530000000  0.4528220000000 1.0
C      1  0.4694960000000  0.5445500000000  0.4100200000000 1.0
C      1  0.5446140000000  0.4585550000000  0.4872220000000 1.0
C      1  0.5353400000000  0.5366060000000  0.4752480000000 1.0
END
