TITL C-4164233-775-785 1.48126884057035 125000 -7376.57970306768 0 0 51 (C1) n - 1
REM
REM in /home/nfs/bkarasulu/CARBON/AIRSS/Generating-Clusters/ReaxFF-fromJPCA2015/Units_Real/with-SteepDescent/Only-C1/SD-CG/Try1-3A/FIRE-CG
REM
REM
REM
REM
REM
REM ./C.cell (11c1c37f851c82e70ff6c80c92926a4b)
REM
REM compiler GCC version 9.2.1 20190827 (Red Hat 9.2.1-1)
REM options -cpp -mtune=generic -march=x86-64 -g -O0 -fpre-include=/usr/include/finclude/math-vector-fortran.h
REM seed 1660452135 825260966 -900089582 489347950 694917213 -183810649 -2005429205 1867105053 510936882 -73340435 494136455 1380793737 -179916852 13699948 -503966398 145907154 1742784704 -1804952351 -1479613541 -447001037 -42383336 1718427433 -1235059759 -1220741412 -201007397 -321658521 -156672257 -1352044504 454481614 66347673 -1393308969 -2127132245 -115198409
REM
CELL 1.54180   50.00000   50.00000   50.00000   90.00000   90.00000   90.00000
LATT -1
SFAC C  
C      1  0.5711200000000  0.4984790000000  0.5398380000000 1.0
C      1  0.4439730000000  0.4792970000000  0.4800750000000 1.0
C      1  0.4761870000000  0.4791640000000  0.5562690000000 1.0
C      1  0.4645810000000  0.4613490000000  0.5107690000000 1.0
C      1  0.4836290000000  0.5508770000000  0.4605460000000 1.0
C      1  0.4925210000000  0.4937340000000  0.4861810000000 1.0
C      1  0.4830290000000  0.5009060000000  0.4353120000000 1.0
C      1  0.4840230000000  0.4460420000000  0.4745880000000 1.0
C      1  0.4957490000000  0.5141950000000  0.5713450000000 1.0
C      1  0.5505010000000  0.4590470000000  0.4601700000000 1.0
C      1  0.5533220000000  0.4766970000000  0.5316650000000 1.0
C      1  0.4641240000000  0.5007490000000  0.4855600000000 1.0
C      1  0.4821570000000  0.5585520000000  0.5376180000000 1.0
C      1  0.5222690000000  0.4678790000000  0.5696870000000 1.0
C      1  0.5359020000000  0.5510400000000  0.4758660000000 1.0
C      1  0.5077300000000  0.5150150000000  0.4331000000000 1.0
C      1  0.4971280000000  0.5303160000000  0.5468280000000 1.0
C      1  0.5431270000000  0.5232510000000  0.4704080000000 1.0
C      1  0.5136060000000  0.5184570000000  0.5253940000000 1.0
C      1  0.5543990000000  0.5073030000000  0.4925580000000 1.0
C      1  0.5453160000000  0.4567120000000  0.4886840000000 1.0
C      1  0.4517020000000  0.4971220000000  0.5550160000000 1.0
C      1  0.4840330000000  0.5294590000000  0.4409590000000 1.0
C      1  0.5259890000000  0.4625870000000  0.4467650000000 1.0
C      1  0.4568990000000  0.4525960000000  0.4853980000000 1.0
C      1  0.4396500000000  0.5114600000000  0.5330280000000 1.0
C      1  0.5443500000000  0.4831520000000  0.4411920000000 1.0
C      1  0.4978270000000  0.4839080000000  0.5750660000000 1.0
C      1  0.5077330000000  0.4925420000000  0.5109970000000 1.0
C      1  0.4983500000000  0.4682670000000  0.4639370000000 1.0
C      1  0.4860480000000  0.4696100000000  0.5282800000000 1.0
C      1  0.5004240000000  0.4338000000000  0.4958100000000 1.0
C      1  0.5402200000000  0.4825830000000  0.5038020000000 1.0
C      1  0.5254990000000  0.4366070000000  0.5297260000000 1.0
C      1  0.5337000000000  0.5100020000000  0.4459730000000 1.0
C      1  0.4290650000000  0.5246490000000  0.5120270000000 1.0
C      1  0.4826500000000  0.4789350000000  0.4497680000000 1.0
C      1  0.5074210000000  0.5768480000000  0.4381570000000 1.0
C      1  0.5302370000000  0.4345290000000  0.5002040000000 1.0
C      1  0.4968440000000  0.4394050000000  0.5244900000000 1.0
C      1  0.4906090000000  0.5693900000000  0.5590630000000 1.0
C      1  0.5384330000000  0.4563510000000  0.5481950000000 1.0
C      1  0.4150360000000  0.4857200000000  0.4852880000000 1.0
C      1  0.5106010000000  0.5651660000000  0.4608200000000 1.0
C      1  0.4529510000000  0.5262720000000  0.4946880000000 1.0
C      1  0.4053270000000  0.5098120000000  0.4991810000000 1.0
C      1  0.5631530000000  0.5187050000000  0.5177240000000 1.0
C      1  0.5383630000000  0.5587370000000  0.5037130000000 1.0
C      1  0.5384860000000  0.5340910000000  0.5224360000000 1.0
C      1  0.4753180000000  0.5678630000000  0.5091130000000 1.0
C      1  0.4686880000000  0.5507670000000  0.4867250000000 1.0
END
