TITL C-4164244-2836-617 -15.7013128596218 125000 -11099.3560050607 0 0 76 (C1) n - 1
REM
REM in /home/nfs/bkarasulu/CARBON/AIRSS/Generating-Clusters/ReaxFF-fromJPCA2015/Units_Real/with-SteepDescent/Only-C1/SD-CG/Try1-3A/FIRE-CG
REM
REM
REM
REM
REM
REM ./C.cell (11c1c37f851c82e70ff6c80c92926a4b)
REM
REM compiler GCC version 9.2.1 20190827 (Red Hat 9.2.1-1)
REM options -cpp -mtune=generic -march=x86-64 -g -O0 -fpre-include=/usr/include/finclude/math-vector-fortran.h
REM seed -87445233 217544742 -383854316 396844420 178324268 -725295380 -1485099493 969187429 872521464 -3520555 1112464015 874552279 -1778206061 1255836138 -3969686 1652263181 1112831802 -1854845119 1334662199 862780963 967766841 -885876309 1814602558 -1835787879 -340589987 -1479358853 794698564 -919130247 1452451446 1844198050 465315067 -2094606046 1218695395
REM
CELL 1.54180   50.00000   50.00000   50.00000   90.00000   90.00000   90.00000
LATT -1
SFAC C  
C      1  0.4986060000000  0.5678340000000  0.4736100000000 1.0
C      1  0.5168920000000  0.5534610000000  0.5411660000000 1.0
C      1  0.4431510000000  0.5518570000000  0.5030490000000 1.0
C      1  0.5619180000000  0.4637990000000  0.4588170000000 1.0
C      1  0.4838350000000  0.5524170000000  0.4520640000000 1.0
C      1  0.4733400000000  0.5290440000000  0.4373220000000 1.0
C      1  0.5886770000000  0.5387810000000  0.5204420000000 1.0
C      1  0.5011390000000  0.5056930000000  0.5189200000000 1.0
C      1  0.4942800000000  0.4407670000000  0.4518340000000 1.0
C      1  0.4392750000000  0.4956540000000  0.5492740000000 1.0
C      1  0.5629280000000  0.4939650000000  0.4587300000000 1.0
C      1  0.4425100000000  0.5254230000000  0.4508310000000 1.0
C      1  0.5761150000000  0.5064530000000  0.4804510000000 1.0
C      1  0.4833340000000  0.4955790000000  0.5361860000000 1.0
C      1  0.5519450000000  0.5182430000000  0.5126720000000 1.0
C      1  0.5302920000000  0.5429720000000  0.5641180000000 1.0
C      1  0.5669270000000  0.4491210000000  0.4839430000000 1.0
C      1  0.5547510000000  0.4704200000000  0.4992450000000 1.0
C      1  0.5031320000000  0.4542560000000  0.5030480000000 1.0
C      1  0.5133860000000  0.5019210000000  0.4794020000000 1.0
C      1  0.5193930000000  0.4466330000000  0.5507130000000 1.0
C      1  0.4673380000000  0.4844000000000  0.4502780000000 1.0
C      1  0.5134950000000  0.4921730000000  0.5726530000000 1.0
C      1  0.4892180000000  0.5058240000000  0.4339070000000 1.0
C      1  0.4246070000000  0.4690660000000  0.4957510000000 1.0
C      1  0.4440020000000  0.5440490000000  0.4754920000000 1.0
C      1  0.5427820000000  0.5507420000000  0.4744460000000 1.0
C      1  0.4607890000000  0.4159210000000  0.5100740000000 1.0
C      1  0.5171470000000  0.4808610000000  0.4171550000000 1.0
C      1  0.4257280000000  0.5105560000000  0.4476040000000 1.0
C      1  0.5521030000000  0.5374690000000  0.4500410000000 1.0
C      1  0.5715170000000  0.5453780000000  0.4682600000000 1.0
C      1  0.5442320000000  0.4532640000000  0.5367490000000 1.0
C      1  0.5854090000000  0.5307030000000  0.4902120000000 1.0
C      1  0.4784260000000  0.4685340000000  0.5467900000000 1.0
C      1  0.4298280000000  0.4623670000000  0.4665980000000 1.0
C      1  0.5227220000000  0.4781040000000  0.4631980000000 1.0
C      1  0.4636620000000  0.4925000000000  0.4802880000000 1.0
C      1  0.4385990000000  0.4952460000000  0.4960140000000 1.0
C      1  0.5642230000000  0.5339770000000  0.5350900000000 1.0
C      1  0.5526830000000  0.4436710000000  0.5095570000000 1.0
C      1  0.5630170000000  0.4919790000000  0.5171920000000 1.0
C      1  0.4933320000000  0.5602330000000  0.5017700000000 1.0
C      1  0.5021970000000  0.4666220000000  0.5639440000000 1.0
C      1  0.5441740000000  0.5112550000000  0.4443100000000 1.0
C      1  0.4721610000000  0.5378700000000  0.4760830000000 1.0
C      1  0.5218390000000  0.5607180000000  0.4612320000000 1.0
C      1  0.4819820000000  0.4225300000000  0.5224320000000 1.0
C      1  0.4367480000000  0.4858430000000  0.4481500000000 1.0
C      1  0.4477710000000  0.4405110000000  0.4632450000000 1.0
C      1  0.5402650000000  0.4979690000000  0.5622530000000 1.0
C      1  0.4337100000000  0.4634370000000  0.5223990000000 1.0
C      1  0.5346670000000  0.4578710000000  0.4482060000000 1.0
C      1  0.5273450000000  0.4552500000000  0.4153880000000 1.0
C      1  0.4934350000000  0.5138510000000  0.5779550000000 1.0
C      1  0.4330370000000  0.5363580000000  0.5260360000000 1.0
C      1  0.4543370000000  0.5166210000000  0.5652780000000 1.0
C      1  0.4788170000000  0.5150280000000  0.5557530000000 1.0
C      1  0.4678790000000  0.5639350000000  0.5148030000000 1.0
C      1  0.5308980000000  0.5275210000000  0.4950310000000 1.0
C      1  0.5052520000000  0.5413350000000  0.5783090000000 1.0
C      1  0.4674490000000  0.5603230000000  0.5442110000000 1.0
C      1  0.4935410000000  0.5591800000000  0.5575250000000 1.0
C      1  0.5097420000000  0.5380520000000  0.5150670000000 1.0
C      1  0.4328130000000  0.5072010000000  0.5232390000000 1.0
C      1  0.5531240000000  0.4806850000000  0.5423080000000 1.0
C      1  0.4922470000000  0.4367530000000  0.4818270000000 1.0
C      1  0.4638970000000  0.4259620000000  0.4846010000000 1.0
C      1  0.5070680000000  0.4359450000000  0.5262220000000 1.0
C      1  0.4464270000000  0.5418070000000  0.5513110000000 1.0
C      1  0.5505190000000  0.5249170000000  0.5604840000000 1.0
C      1  0.5188660000000  0.5057170000000  0.4297860000000 1.0
C      1  0.4676790000000  0.4539740000000  0.4464390000000 1.0
C      1  0.5068790000000  0.4841050000000  0.5030310000000 1.0
C      1  0.4485590000000  0.4675510000000  0.5468000000000 1.0
C      1  0.4839900000000  0.5119940000000  0.4813850000000 1.0
END
