TITL C-4164233-775-269 1.12630185906319 125000 -8713.43602002927 0 0 60 (C1) n - 1
REM
REM in /home/nfs/bkarasulu/CARBON/AIRSS/Generating-Clusters/ReaxFF-fromJPCA2015/Units_Real/with-SteepDescent/Only-C1/SD-CG/Try1-3A/FIRE-CG
REM
REM
REM
REM
REM
REM ./C.cell (11c1c37f851c82e70ff6c80c92926a4b)
REM
REM compiler GCC version 9.2.1 20190827 (Red Hat 9.2.1-1)
REM options -cpp -mtune=generic -march=x86-64 -g -O0 -fpre-include=/usr/include/finclude/math-vector-fortran.h
REM seed -50258659 1202307075 -1981768966 1138943077 -828357427 1910082813 1696525538 -1890726408 -1026656545 -1808431947 -2144187691 195129300 -1377342272 1195467046 1113632051 79515432 229543109 -10671745 1590549625 1687768624 -80569959 -342415646 -759681962 -557101203 -1190144213 -1716016632 1590822068 195889461 2725906 -1351624373 -1519081723 845770629 1327709416
REM
CELL 1.54180   50.00000   50.00000   50.00000   90.00000   90.00000   90.00000
LATT -1
SFAC C  
C      1  0.5123120000000  0.4585620000000  0.5057680000000 1.0
C      1  0.4920040000000  0.5608610000000  0.5313320000000 1.0
C      1  0.5661010000000  0.4625960000000  0.4615040000000 1.0
C      1  0.4495210000000  0.5120540000000  0.5451130000000 1.0
C      1  0.4897080000000  0.5090690000000  0.4895580000000 1.0
C      1  0.5008070000000  0.4382700000000  0.4892460000000 1.0
C      1  0.5153440000000  0.5213650000000  0.4951640000000 1.0
C      1  0.4589170000000  0.4461470000000  0.5254980000000 1.0
C      1  0.5016870000000  0.5479760000000  0.5542000000000 1.0
C      1  0.4739970000000  0.4451800000000  0.4778090000000 1.0
C      1  0.4697560000000  0.4696490000000  0.4628420000000 1.0
C      1  0.5509870000000  0.5403670000000  0.5363190000000 1.0
C      1  0.5512940000000  0.5133400000000  0.5492720000000 1.0
C      1  0.4685020000000  0.5260900000000  0.4986230000000 1.0
C      1  0.4512440000000  0.5313460000000  0.5214110000000 1.0
C      1  0.5012790000000  0.5201480000000  0.5647960000000 1.0
C      1  0.5140570000000  0.4736490000000  0.5592070000000 1.0
C      1  0.5243480000000  0.5027300000000  0.5601780000000 1.0
C      1  0.4896740000000  0.4581190000000  0.5510650000000 1.0
C      1  0.5276070000000  0.5075020000000  0.4742190000000 1.0
C      1  0.5693930000000  0.5005150000000  0.4964520000000 1.0
C      1  0.5446000000000  0.4517830000000  0.5044520000000 1.0
C      1  0.4601860000000  0.4622470000000  0.5472630000000 1.0
C      1  0.4474350000000  0.5213830000000  0.4551960000000 1.0
C      1  0.4882340000000  0.4889740000000  0.4461110000000 1.0
C      1  0.5250870000000  0.5572430000000  0.4636060000000 1.0
C      1  0.4821370000000  0.5397770000000  0.4404290000000 1.0
C      1  0.5221550000000  0.5360440000000  0.5351850000000 1.0
C      1  0.4621350000000  0.5466290000000  0.4614910000000 1.0
C      1  0.4253930000000  0.4804260000000  0.5148240000000 1.0
C      1  0.4331770000000  0.4605600000000  0.4948140000000 1.0
C      1  0.5438490000000  0.4665620000000  0.4473680000000 1.0
C      1  0.5234550000000  0.5113350000000  0.5203550000000 1.0
C      1  0.4848680000000  0.4954050000000  0.5300430000000 1.0
C      1  0.5523760000000  0.4966490000000  0.5236160000000 1.0
C      1  0.4425990000000  0.4755160000000  0.4704080000000 1.0
C      1  0.4705730000000  0.5125680000000  0.4388100000000 1.0
C      1  0.5105640000000  0.5368100000000  0.4462330000000 1.0
C      1  0.4307170000000  0.5022860000000  0.4703160000000 1.0
C      1  0.4686100000000  0.5520560000000  0.4897260000000 1.0
C      1  0.5539950000000  0.5628920000000  0.4602090000000 1.0
C      1  0.5563380000000  0.5172080000000  0.4767400000000 1.0
C      1  0.4769580000000  0.5060560000000  0.5549040000000 1.0
C      1  0.5060020000000  0.4448520000000  0.5301170000000 1.0
C      1  0.5132560000000  0.4465060000000  0.4646530000000 1.0
C      1  0.5614410000000  0.5459440000000  0.4847960000000 1.0
C      1  0.5576780000000  0.4472480000000  0.4801260000000 1.0
C      1  0.5469760000000  0.5526360000000  0.5092250000000 1.0
C      1  0.4287580000000  0.5260300000000  0.5047980000000 1.0
C      1  0.5306100000000  0.4550430000000  0.5445480000000 1.0
C      1  0.4924370000000  0.4852100000000  0.5062490000000 1.0
C      1  0.4415150000000  0.4850050000000  0.5384850000000 1.0
C      1  0.5114570000000  0.5083670000000  0.4503860000000 1.0
C      1  0.5517520000000  0.4660650000000  0.5279130000000 1.0
C      1  0.5764620000000  0.4821740000000  0.4767890000000 1.0
C      1  0.4157520000000  0.5028080000000  0.4966390000000 1.0
C      1  0.4922460000000  0.5645430000000  0.5037170000000 1.0
C      1  0.5204730000000  0.5561940000000  0.4940600000000 1.0
C      1  0.5162680000000  0.4663630000000  0.4466660000000 1.0
C      1  0.4529370000000  0.4390650000000  0.4991580000000 1.0
END
