TITL C-4164241-3639-374 42.0888223872529 125000 -22802.7238118497 0 0 153 (C1) n - 1
REM
REM in /home/nfs/bkarasulu/CARBON/AIRSS/Generating-Clusters/ReaxFF-fromJPCA2015/Units_Real/with-SteepDescent/Only-C1/SD-CG/Try1-3A/FIRE-CG
REM
REM
REM
REM
REM
REM ./C.cell (11c1c37f851c82e70ff6c80c92926a4b)
REM
REM compiler GCC version 9.2.1 20190827 (Red Hat 9.2.1-1)
REM options -cpp -mtune=generic -march=x86-64 -g -O0 -fpre-include=/usr/include/finclude/math-vector-fortran.h
REM seed -886625868 1917578589 -410620358 835879446 1875634470 892388341 -168932994 157245836 -964427969 -1776819925 1180286985 639501853 -40929617 251927794 1955716456 -2039029107 -1157733566 -1461306644 956820554 532360532 -1853933922 1332644065 1012027016 1926696445 1664370956 -1836294005 -1629132044 -775696648 -1108009922 1182991437 -1341349441 1562240428 -83950998
REM
CELL 1.54180   50.00000   50.00000   50.00000   90.00000   90.00000   90.00000
LATT -1
SFAC C  
C      1  0.5621610000000  0.4222660000000  0.4482910000000 1.0
C      1  0.4694610000000  0.5042660000000  0.5482130000000 1.0
C      1  0.4155040000000  0.4518080000000  0.4684070000000 1.0
C      1  0.5008690000000  0.4572470000000  0.4027770000000 1.0
C      1  0.5343610000000  0.5718160000000  0.5061740000000 1.0
C      1  0.4513820000000  0.5225740000000  0.5101430000000 1.0
C      1  0.5054590000000  0.6117480000000  0.4964320000000 1.0
C      1  0.5681550000000  0.5247080000000  0.5644930000000 1.0
C      1  0.4760080000000  0.4791510000000  0.4733150000000 1.0
C      1  0.5511330000000  0.4829620000000  0.4653530000000 1.0
C      1  0.5988330000000  0.4975340000000  0.5353640000000 1.0
C      1  0.4323360000000  0.5639530000000  0.4755870000000 1.0
C      1  0.5302920000000  0.5873090000000  0.4535550000000 1.0
C      1  0.5798510000000  0.4232180000000  0.4757270000000 1.0
C      1  0.4787340000000  0.5718280000000  0.5507570000000 1.0
C      1  0.5179740000000  0.4961970000000  0.5848840000000 1.0
C      1  0.4818140000000  0.4517370000000  0.5095090000000 1.0
C      1  0.4203570000000  0.4622570000000  0.5677630000000 1.0
C      1  0.4315340000000  0.5322700000000  0.4408660000000 1.0
C      1  0.5716410000000  0.4716790000000  0.5777420000000 1.0
C      1  0.5229370000000  0.4765270000000  0.3966530000000 1.0
C      1  0.5897070000000  0.4838360000000  0.5587610000000 1.0
C      1  0.4776710000000  0.5223730000000  0.5854300000000 1.0
C      1  0.4484520000000  0.5701270000000  0.5519870000000 1.0
C      1  0.4496650000000  0.5783900000000  0.4540470000000 1.0
C      1  0.4965330000000  0.3997440000000  0.5200190000000 1.0
C      1  0.3981400000000  0.4667310000000  0.4871990000000 1.0
C      1  0.4134480000000  0.5361230000000  0.5523730000000 1.0
C      1  0.4945280000000  0.4797360000000  0.5874560000000 1.0
C      1  0.4885230000000  0.4516440000000  0.5371420000000 1.0
C      1  0.4589520000000  0.5662050000000  0.4312380000000 1.0
C      1  0.5170540000000  0.4455190000000  0.4238710000000 1.0
C      1  0.4909040000000  0.5080800000000  0.4440400000000 1.0
C      1  0.4091220000000  0.5489520000000  0.5271550000000 1.0
C      1  0.4599920000000  0.4464950000000  0.4365480000000 1.0
C      1  0.3990540000000  0.5376320000000  0.5015650000000 1.0
C      1  0.4931500000000  0.4004610000000  0.4911560000000 1.0
C      1  0.5131670000000  0.4621500000000  0.5447520000000 1.0
C      1  0.4364150000000  0.5122720000000  0.4866980000000 1.0
C      1  0.5461770000000  0.4889270000000  0.5843410000000 1.0
C      1  0.3950960000000  0.4905650000000  0.5347390000000 1.0
C      1  0.5161990000000  0.4656590000000  0.4445210000000 1.0
C      1  0.5561790000000  0.5099780000000  0.4054460000000 1.0
C      1  0.5438350000000  0.4316500000000  0.5683420000000 1.0
C      1  0.5994920000000  0.4982370000000  0.4626430000000 1.0
C      1  0.4615060000000  0.5962470000000  0.5078000000000 1.0
C      1  0.4787150000000  0.4301350000000  0.5832240000000 1.0
C      1  0.4741920000000  0.4068280000000  0.5370120000000 1.0
C      1  0.5177750000000  0.5137400000000  0.4391900000000 1.0
C      1  0.5898030000000  0.5237420000000  0.5448550000000 1.0
C      1  0.5671420000000  0.4587320000000  0.5340590000000 1.0
C      1  0.5322280000000  0.4568880000000  0.5020170000000 1.0
C      1  0.4434820000000  0.5023300000000  0.5331650000000 1.0
C      1  0.4754030000000  0.4255450000000  0.4489970000000 1.0
C      1  0.4390950000000  0.4506030000000  0.4851020000000 1.0
C      1  0.5324000000000  0.4079240000000  0.5556000000000 1.0
C      1  0.5537550000000  0.5271050000000  0.5138360000000 1.0
C      1  0.5348700000000  0.5064530000000  0.4621540000000 1.0
C      1  0.4159260000000  0.5065970000000  0.5523050000000 1.0
C      1  0.4923490000000  0.5497600000000  0.5289630000000 1.0
C      1  0.5209050000000  0.6022770000000  0.4755400000000 1.0
C      1  0.5375950000000  0.4095290000000  0.4410270000000 1.0
C      1  0.6027660000000  0.4741630000000  0.4799390000000 1.0
C      1  0.5761920000000  0.4483120000000  0.4424280000000 1.0
C      1  0.5077820000000  0.5438430000000  0.4691070000000 1.0
C      1  0.5512700000000  0.5893700000000  0.5447260000000 1.0
C      1  0.4324520000000  0.4593680000000  0.4445900000000 1.0
C      1  0.4025330000000  0.5007100000000  0.4505970000000 1.0
C      1  0.5521230000000  0.4829640000000  0.5357970000000 1.0
C      1  0.5674790000000  0.4226940000000  0.5016050000000 1.0
C      1  0.5075350000000  0.4202900000000  0.4382980000000 1.0
C      1  0.4757740000000  0.5956210000000  0.5335980000000 1.0
C      1  0.4646730000000  0.4749100000000  0.5111480000000 1.0
C      1  0.5579090000000  0.5857160000000  0.5164550000000 1.0
C      1  0.5474160000000  0.4834880000000  0.4109230000000 1.0
C      1  0.5515370000000  0.5474990000000  0.4359090000000 1.0
C      1  0.5740620000000  0.4503860000000  0.5070090000000 1.0
C      1  0.5140100000000  0.4291930000000  0.4665300000000 1.0
C      1  0.4847740000000  0.4072320000000  0.5650760000000 1.0
C      1  0.4992970000000  0.4511490000000  0.5892410000000 1.0
C      1  0.5179220000000  0.5009780000000  0.3787010000000 1.0
C      1  0.4899380000000  0.4563440000000  0.4830710000000 1.0
C      1  0.5152850000000  0.4565160000000  0.4728820000000 1.0
C      1  0.5089360000000  0.5264970000000  0.5412100000000 1.0
C      1  0.5242430000000  0.4059640000000  0.5283020000000 1.0
C      1  0.5025920000000  0.5816700000000  0.4437260000000 1.0
C      1  0.4524090000000  0.4209330000000  0.5226500000000 1.0
C      1  0.5547650000000  0.5693620000000  0.4530420000000 1.0
C      1  0.3941520000000  0.4934680000000  0.4776510000000 1.0
C      1  0.4308500000000  0.5688220000000  0.5275480000000 1.0
C      1  0.5636230000000  0.4759890000000  0.4366520000000 1.0
C      1  0.5984060000000  0.5148260000000  0.4878380000000 1.0
C      1  0.5503850000000  0.5013700000000  0.5583060000000 1.0
C      1  0.4102110000000  0.4516010000000  0.5410070000000 1.0
C      1  0.5225980000000  0.5507360000000  0.5769690000000 1.0
C      1  0.4787670000000  0.5813000000000  0.4649560000000 1.0
C      1  0.4417310000000  0.5088030000000  0.4260350000000 1.0
C      1  0.4712350000000  0.4135390000000  0.4748890000000 1.0
C      1  0.5003540000000  0.5085510000000  0.5039310000000 1.0
C      1  0.5694990000000  0.5249930000000  0.4272880000000 1.0
C      1  0.4037020000000  0.5301420000000  0.4514290000000 1.0
C      1  0.5372570000000  0.4219620000000  0.5067960000000 1.0
C      1  0.5561620000000  0.4685720000000  0.4899940000000 1.0
C      1  0.4429410000000  0.5364470000000  0.4677800000000 1.0
C      1  0.4518340000000  0.4250210000000  0.4937910000000 1.0
C      1  0.4393800000000  0.5787070000000  0.5025820000000 1.0
C      1  0.5646970000000  0.5649840000000  0.5531970000000 1.0
C      1  0.4798590000000  0.6036400000000  0.4862090000000 1.0
C      1  0.4340230000000  0.5509120000000  0.5689160000000 1.0
C      1  0.5819670000000  0.5016740000000  0.4393850000000 1.0
C      1  0.5229700000000  0.5931320000000  0.5518450000000 1.0
C      1  0.4834380000000  0.5526370000000  0.4806690000000 1.0
C      1  0.4369990000000  0.4450240000000  0.5319990000000 1.0
C      1  0.4073850000000  0.5123470000000  0.4943720000000 1.0
C      1  0.5726480000000  0.5294190000000  0.4916310000000 1.0
C      1  0.5204170000000  0.5416320000000  0.4373330000000 1.0
C      1  0.5082180000000  0.5241940000000  0.5727230000000 1.0
C      1  0.5283040000000  0.4755050000000  0.5248040000000 1.0
C      1  0.4720010000000  0.5416390000000  0.5058210000000 1.0
C      1  0.5681240000000  0.4473880000000  0.5613510000000 1.0
C      1  0.4031370000000  0.5480820000000  0.4749880000000 1.0
C      1  0.4943400000000  0.4813550000000  0.4348330000000 1.0
C      1  0.5093070000000  0.5723700000000  0.5190860000000 1.0
C      1  0.4497380000000  0.4792660000000  0.4846450000000 1.0
C      1  0.4999880000000  0.5604120000000  0.4247080000000 1.0
C      1  0.4452670000000  0.4509330000000  0.5729220000000 1.0
C      1  0.4250090000000  0.4866010000000  0.4373740000000 1.0
C      1  0.4694120000000  0.4457850000000  0.5602470000000 1.0
C      1  0.4740650000000  0.5472390000000  0.4170280000000 1.0
C      1  0.5288430000000  0.5282390000000  0.4817720000000 1.0
C      1  0.5223270000000  0.4519100000000  0.5712770000000 1.0
C      1  0.5082380000000  0.5732960000000  0.5661200000000 1.0
C      1  0.5125180000000  0.4043210000000  0.5673130000000 1.0
C      1  0.5920590000000  0.4484870000000  0.4665470000000 1.0
C      1  0.4847740000000  0.4966840000000  0.5248860000000 1.0
C      1  0.5379220000000  0.5220000000000  0.3834100000000 1.0
C      1  0.4676380000000  0.4950040000000  0.5769120000000 1.0
C      1  0.3964060000000  0.4674260000000  0.5180110000000 1.0
C      1  0.4331090000000  0.4898520000000  0.5751010000000 1.0
C      1  0.4770690000000  0.4634750000000  0.4188860000000 1.0
C      1  0.5275340000000  0.5147770000000  0.5214830000000 1.0
C      1  0.4424220000000  0.4724640000000  0.5267780000000 1.0
C      1  0.4684020000000  0.5193540000000  0.4252700000000 1.0
C      1  0.4902450000000  0.5036390000000  0.4776410000000 1.0
C      1  0.5415690000000  0.5533580000000  0.4867670000000 1.0
C      1  0.5762480000000  0.5475820000000  0.5301510000000 1.0
C      1  0.5196820000000  0.4095100000000  0.4863390000000 1.0
C      1  0.4568300000000  0.5382190000000  0.5782960000000 1.0
C      1  0.5036180000000  0.5997350000000  0.5268220000000 1.0
C      1  0.5519610000000  0.5483260000000  0.5725660000000 1.0
C      1  0.5705050000000  0.5585270000000  0.4794170000000 1.0
C      1  0.5782490000000  0.5674390000000  0.5075240000000 1.0
C      1  0.6023610000000  0.4912130000000  0.5043010000000 1.0
END
