TITL C-4164236-1577-613 51.4068319440807 125000 -23804.3259519981 0 0 158 (C1) n - 1
REM
REM in /home/nfs/bkarasulu/CARBON/AIRSS/Generating-Clusters/ReaxFF-fromJPCA2015/Units_Real/with-SteepDescent/Only-C1/SD-CG/Try1-3A/FIRE-CG
REM
REM
REM
REM
REM
REM ./C.cell (11c1c37f851c82e70ff6c80c92926a4b)
REM
REM compiler GCC version 9.2.1 20190827 (Red Hat 9.2.1-1)
REM options -cpp -mtune=generic -march=x86-64 -g -O0 -fpre-include=/usr/include/finclude/math-vector-fortran.h
REM seed 343416794 -1278166565 -1817907010 -1932010679 1966634622 443475540 1812828114 -1422470866 1302266528 912175590 -745925847 689257688 1142629317 409163600 -2099796989 -1122479927 -69532656 143911728 -548197796 -753088906 1497843746 -947296505 12154360 402361247 -1530941515 -656063894 831170312 292156605 1821599797 1611741004 1797101063 568013882 -2044682900
REM
CELL 1.54180   50.00000   50.00000   50.00000   90.00000   90.00000   90.00000
LATT -1
SFAC C  
C      1  0.5671690000000  0.5368590000000  0.5388850000000 1.0
C      1  0.5425070000000  0.4407320000000  0.4856620000000 1.0
C      1  0.5596050000000  0.4788650000000  0.4227490000000 1.0
C      1  0.4933720000000  0.5430820000000  0.4853300000000 1.0
C      1  0.4845230000000  0.5945900000000  0.5654800000000 1.0
C      1  0.4246170000000  0.4415590000000  0.5512460000000 1.0
C      1  0.4484870000000  0.5163140000000  0.4805510000000 1.0
C      1  0.4230530000000  0.5418720000000  0.5299800000000 1.0
C      1  0.4573790000000  0.4550470000000  0.5106460000000 1.0
C      1  0.4769230000000  0.5386530000000  0.4040570000000 1.0
C      1  0.5126480000000  0.4239820000000  0.5059770000000 1.0
C      1  0.5878300000000  0.4747860000000  0.5643910000000 1.0
C      1  0.4681420000000  0.4962480000000  0.4672280000000 1.0
C      1  0.4890020000000  0.5375000000000  0.4570960000000 1.0
C      1  0.4895480000000  0.4678240000000  0.4120610000000 1.0
C      1  0.5045300000000  0.5701190000000  0.4212650000000 1.0
C      1  0.5029300000000  0.5251310000000  0.5474350000000 1.0
C      1  0.5033010000000  0.4449800000000  0.4844930000000 1.0
C      1  0.4540980000000  0.5613150000000  0.4312790000000 1.0
C      1  0.5764610000000  0.4325130000000  0.4666740000000 1.0
C      1  0.4942470000000  0.4874010000000  0.6019850000000 1.0
C      1  0.5112220000000  0.4724430000000  0.5232330000000 1.0
C      1  0.5639360000000  0.4739820000000  0.5827460000000 1.0
C      1  0.5523370000000  0.5742910000000  0.5156730000000 1.0
C      1  0.5337500000000  0.5935360000000  0.5275100000000 1.0
C      1  0.4322710000000  0.5279610000000  0.4344780000000 1.0
C      1  0.5349750000000  0.5162980000000  0.4413240000000 1.0
C      1  0.5379740000000  0.4595960000000  0.4122510000000 1.0
C      1  0.4828050000000  0.6062350000000  0.5401140000000 1.0
C      1  0.5266580000000  0.4802180000000  0.4575380000000 1.0
C      1  0.3986850000000  0.4961810000000  0.4840770000000 1.0
C      1  0.5442810000000  0.5252510000000  0.4902330000000 1.0
C      1  0.5068560000000  0.3950110000000  0.5598310000000 1.0
C      1  0.5007570000000  0.4421730000000  0.5256200000000 1.0
C      1  0.4116480000000  0.5441790000000  0.4816000000000 1.0
C      1  0.5367930000000  0.4820870000000  0.5359420000000 1.0
C      1  0.5071510000000  0.3980930000000  0.4839040000000 1.0
C      1  0.4230730000000  0.4995520000000  0.4364490000000 1.0
C      1  0.5973980000000  0.5315260000000  0.4832230000000 1.0
C      1  0.4855760000000  0.5078260000000  0.4449160000000 1.0
C      1  0.5053660000000  0.5994480000000  0.4608440000000 1.0
C      1  0.5236400000000  0.5705800000000  0.5762320000000 1.0
C      1  0.5309840000000  0.5203710000000  0.5930780000000 1.0
C      1  0.4122160000000  0.4871690000000  0.4597620000000 1.0
C      1  0.4664710000000  0.4863680000000  0.5953890000000 1.0
C      1  0.5127880000000  0.5239620000000  0.4994820000000 1.0
C      1  0.5979990000000  0.4935720000000  0.4393810000000 1.0
C      1  0.6061680000000  0.5054640000000  0.4657750000000 1.0
C      1  0.4541170000000  0.5813240000000  0.4518820000000 1.0
C      1  0.4765440000000  0.4447500000000  0.4250820000000 1.0
C      1  0.4710790000000  0.4111820000000  0.4969530000000 1.0
C      1  0.5767920000000  0.5175580000000  0.5786950000000 1.0
C      1  0.4613730000000  0.4759170000000  0.5314990000000 1.0
C      1  0.4734920000000  0.5562000000000  0.4998050000000 1.0
C      1  0.4540580000000  0.4991380000000  0.4062170000000 1.0
C      1  0.4587000000000  0.4694390000000  0.4648340000000 1.0
C      1  0.5854390000000  0.4663040000000  0.4306220000000 1.0
C      1  0.5546620000000  0.4818150000000  0.4526310000000 1.0
C      1  0.4618880000000  0.5420840000000  0.5208850000000 1.0
C      1  0.4194660000000  0.5701660000000  0.4928850000000 1.0
C      1  0.5920460000000  0.5031660000000  0.5593180000000 1.0
C      1  0.5411440000000  0.4379830000000  0.4303080000000 1.0
C      1  0.5642660000000  0.5411190000000  0.5670070000000 1.0
C      1  0.4283060000000  0.5367930000000  0.5571590000000 1.0
C      1  0.5564000000000  0.5823390000000  0.4636900000000 1.0
C      1  0.4885190000000  0.4780760000000  0.5413990000000 1.0
C      1  0.4425270000000  0.4179280000000  0.4626700000000 1.0
C      1  0.5811720000000  0.4530570000000  0.4874500000000 1.0
C      1  0.5281890000000  0.4895890000000  0.5625600000000 1.0
C      1  0.5224630000000  0.4566710000000  0.4724000000000 1.0
C      1  0.5235920000000  0.4647460000000  0.5745560000000 1.0
C      1  0.5063680000000  0.5302780000000  0.4009390000000 1.0
C      1  0.4481150000000  0.4524930000000  0.4246500000000 1.0
C      1  0.5195420000000  0.5389650000000  0.5263200000000 1.0
C      1  0.5563810000000  0.4984350000000  0.4950930000000 1.0
C      1  0.5033930000000  0.5906780000000  0.5241950000000 1.0
C      1  0.4421110000000  0.5829910000000  0.4796080000000 1.0
C      1  0.4448670000000  0.4082300000000  0.5108210000000 1.0
C      1  0.5206970000000  0.5052120000000  0.3991440000000 1.0
C      1  0.5831220000000  0.5554830000000  0.4814800000000 1.0
C      1  0.4773120000000  0.4935380000000  0.4191770000000 1.0
C      1  0.4274000000000  0.4841050000000  0.5719030000000 1.0
C      1  0.4594680000000  0.5119490000000  0.5844400000000 1.0
C      1  0.4698310000000  0.5587940000000  0.5803120000000 1.0
C      1  0.4382490000000  0.4806560000000  0.4189120000000 1.0
C      1  0.4372090000000  0.5109540000000  0.5676250000000 1.0
C      1  0.4754370000000  0.5657590000000  0.4127460000000 1.0
C      1  0.5824170000000  0.5127570000000  0.5328200000000 1.0
C      1  0.5027590000000  0.5146510000000  0.5963060000000 1.0
C      1  0.4768350000000  0.4601860000000  0.4855570000000 1.0
C      1  0.4710460000000  0.4149800000000  0.4664780000000 1.0
C      1  0.5010560000000  0.5628110000000  0.5317430000000 1.0
C      1  0.4866200000000  0.4166070000000  0.5738740000000 1.0
C      1  0.4422880000000  0.4974870000000  0.5296870000000 1.0
C      1  0.4598410000000  0.5947910000000  0.5253340000000 1.0
C      1  0.5465390000000  0.5090510000000  0.4141690000000 1.0
C      1  0.5157300000000  0.4759340000000  0.4027400000000 1.0
C      1  0.4505220000000  0.5265200000000  0.4106860000000 1.0
C      1  0.5392990000000  0.5460720000000  0.5821670000000 1.0
C      1  0.4509240000000  0.5171350000000  0.5097340000000 1.0
C      1  0.5691360000000  0.4778450000000  0.4776890000000 1.0
C      1  0.5290020000000  0.4121650000000  0.5601280000000 1.0
C      1  0.4303520000000  0.4620630000000  0.4642700000000 1.0
C      1  0.5486310000000  0.5454580000000  0.5193390000000 1.0
C      1  0.6023250000000  0.5150790000000  0.5067070000000 1.0
C      1  0.5584120000000  0.4933540000000  0.5233160000000 1.0
C      1  0.5015820000000  0.4988590000000  0.5562900000000 1.0
C      1  0.5469850000000  0.5330670000000  0.4612920000000 1.0
C      1  0.5535580000000  0.4158760000000  0.4743680000000 1.0
C      1  0.4146750000000  0.4691730000000  0.5513860000000 1.0
C      1  0.4289880000000  0.4462340000000  0.4942490000000 1.0
C      1  0.5864550000000  0.5142620000000  0.4253440000000 1.0
C      1  0.5335370000000  0.5813470000000  0.5524950000000 1.0
C      1  0.5278480000000  0.4045220000000  0.4639490000000 1.0
C      1  0.5824150000000  0.4459140000000  0.5173200000000 1.0
C      1  0.4204970000000  0.5697220000000  0.5220610000000 1.0
C      1  0.5462200000000  0.4512850000000  0.5812440000000 1.0
C      1  0.4071520000000  0.4514200000000  0.5012150000000 1.0
C      1  0.5683930000000  0.5773430000000  0.4909840000000 1.0
C      1  0.4640360000000  0.5826010000000  0.4987210000000 1.0
C      1  0.4053940000000  0.5206750000000  0.5262580000000 1.0
C      1  0.4455820000000  0.5606030000000  0.5630610000000 1.0
C      1  0.4330300000000  0.4384480000000  0.4444050000000 1.0
C      1  0.4816640000000  0.5437460000000  0.5435550000000 1.0
C      1  0.4399030000000  0.5796780000000  0.5412720000000 1.0
C      1  0.3966640000000  0.4761980000000  0.5053320000000 1.0
C      1  0.4935110000000  0.5769100000000  0.5837080000000 1.0
C      1  0.4419030000000  0.4409090000000  0.5750720000000 1.0
C      1  0.4891530000000  0.4261490000000  0.4442870000000 1.0
C      1  0.4003380000000  0.5225270000000  0.4976000000000 1.0
C      1  0.5044750000000  0.4959830000000  0.5033490000000 1.0
C      1  0.5502660000000  0.4289320000000  0.5605580000000 1.0
C      1  0.5699570000000  0.4430740000000  0.4401130000000 1.0
C      1  0.4458820000000  0.4676620000000  0.5866460000000 1.0
C      1  0.4427550000000  0.4208590000000  0.5379900000000 1.0
C      1  0.5100270000000  0.4615060000000  0.5986090000000 1.0
C      1  0.5242880000000  0.5527170000000  0.4084260000000 1.0
C      1  0.4753950000000  0.4332330000000  0.5175560000000 1.0
C      1  0.5549000000000  0.5010290000000  0.5901480000000 1.0
C      1  0.5007300000000  0.5609600000000  0.4485080000000 1.0
C      1  0.4865370000000  0.4870110000000  0.4878970000000 1.0
C      1  0.5520940000000  0.5528780000000  0.4189110000000 1.0
C      1  0.4973010000000  0.4381410000000  0.5878590000000 1.0
C      1  0.5303860000000  0.5929850000000  0.4628160000000 1.0
C      1  0.4808510000000  0.5309820000000  0.5821170000000 1.0
C      1  0.5124230000000  0.5012640000000  0.4489590000000 1.0
C      1  0.4587390000000  0.4198910000000  0.5630500000000 1.0
C      1  0.5182950000000  0.4225500000000  0.4423960000000 1.0
C      1  0.5596560000000  0.4310550000000  0.5320090000000 1.0
C      1  0.5689530000000  0.5301720000000  0.4104940000000 1.0
C      1  0.4334800000000  0.5336030000000  0.4641100000000 1.0
C      1  0.5878340000000  0.4603280000000  0.5399310000000 1.0
C      1  0.4799180000000  0.5948240000000  0.4567550000000 1.0
C      1  0.5577960000000  0.5567120000000  0.4476020000000 1.0
C      1  0.5406890000000  0.4291390000000  0.5116210000000 1.0
C      1  0.4275630000000  0.4191640000000  0.4892410000000 1.0
C      1  0.4105250000000  0.4901080000000  0.5296840000000 1.0
C      1  0.6151790000000  0.4922160000000  0.4914790000000 1.0
END
