TITL C-4164237-1827-216 36.9389052334471 125000 -24218.1693446069 0 0 164 (C1) n - 1
REM
REM in /home/nfs/bkarasulu/CARBON/AIRSS/Generating-Clusters/ReaxFF-fromJPCA2015/Units_Real/with-SteepDescent/Only-C1/SD-CG/Try1-3A/FIRE-CG
REM
REM
REM
REM
REM
REM ./C.cell (11c1c37f851c82e70ff6c80c92926a4b)
REM
REM compiler GCC version 9.2.1 20190827 (Red Hat 9.2.1-1)
REM options -cpp -mtune=generic -march=x86-64 -g -O0 -fpre-include=/usr/include/finclude/math-vector-fortran.h
REM seed -1364622459 1704552481 -1929827937 -1619631929 112608150 -1530498548 192883310 58649648 1546062321 1096439910 -221382398 1418260847 -1267905938 1897836331 -1176547887 -842838214 1945443311 -201260813 1300330021 -1249175295 -1536865032 -190600581 -1676565956 -270988961 -1154435650 -1882496677 2060561278 -1260060390 -1675921303 2128172167 1575386774 -1723241379 2141366723
REM
CELL 1.54180   50.00000   50.00000   50.00000   90.00000   90.00000   90.00000
LATT -1
SFAC C  
C      1  0.4003940000000  0.5422130000000  0.4969680000000 1.0
C      1  0.4094230000000  0.5303040000000  0.5459620000000 1.0
C      1  0.5725910000000  0.5125500000000  0.5904200000000 1.0
C      1  0.5860860000000  0.4544020000000  0.5412590000000 1.0
C      1  0.3989110000000  0.5132190000000  0.4935240000000 1.0
C      1  0.4665090000000  0.5544400000000  0.4338750000000 1.0
C      1  0.4385770000000  0.4629390000000  0.4758050000000 1.0
C      1  0.5862660000000  0.4307090000000  0.4965580000000 1.0
C      1  0.5308970000000  0.4452140000000  0.5106690000000 1.0
C      1  0.5572940000000  0.4411660000000  0.5517000000000 1.0
C      1  0.6053330000000  0.4796170000000  0.5133530000000 1.0
C      1  0.5202910000000  0.4997710000000  0.5702860000000 1.0
C      1  0.4581420000000  0.4725590000000  0.4005980000000 1.0
C      1  0.5111220000000  0.5069800000000  0.4766050000000 1.0
C      1  0.5390320000000  0.4756020000000  0.5838280000000 1.0
C      1  0.5714330000000  0.5367070000000  0.4374080000000 1.0
C      1  0.4628020000000  0.4949540000000  0.5097730000000 1.0
C      1  0.4142560000000  0.5060090000000  0.4690320000000 1.0
C      1  0.4748930000000  0.5603790000000  0.5859340000000 1.0
C      1  0.4918650000000  0.5463380000000  0.6018280000000 1.0
C      1  0.5693640000000  0.5128140000000  0.4565820000000 1.0
C      1  0.5223540000000  0.5240850000000  0.4415940000000 1.0
C      1  0.5406010000000  0.4996430000000  0.4442420000000 1.0
C      1  0.5688660000000  0.5524660000000  0.4806630000000 1.0
C      1  0.4997420000000  0.4786830000000  0.5128910000000 1.0
C      1  0.5697410000000  0.5568950000000  0.5542510000000 1.0
C      1  0.5666840000000  0.5732090000000  0.5301700000000 1.0
C      1  0.4960010000000  0.5954580000000  0.5500250000000 1.0
C      1  0.5156660000000  0.4310330000000  0.5738230000000 1.0
C      1  0.5465230000000  0.4706250000000  0.4791960000000 1.0
C      1  0.4647790000000  0.6140300000000  0.5007380000000 1.0
C      1  0.4569740000000  0.4320630000000  0.5218800000000 1.0
C      1  0.4152880000000  0.4476420000000  0.4832960000000 1.0
C      1  0.5258190000000  0.5139080000000  0.5951760000000 1.0
C      1  0.5024020000000  0.5900720000000  0.4449300000000 1.0
C      1  0.3997180000000  0.4630780000000  0.5040660000000 1.0
C      1  0.4855460000000  0.5886920000000  0.5245900000000 1.0
C      1  0.5467540000000  0.5192090000000  0.5044820000000 1.0
C      1  0.5397070000000  0.4475790000000  0.5763480000000 1.0
C      1  0.5300170000000  0.5109790000000  0.5418040000000 1.0
C      1  0.5508910000000  0.4238280000000  0.4641880000000 1.0
C      1  0.4933660000000  0.4268050000000  0.4293700000000 1.0
C      1  0.4312030000000  0.5469250000000  0.5568090000000 1.0
C      1  0.4821830000000  0.5870650000000  0.4671610000000 1.0
C      1  0.5017120000000  0.5219770000000  0.6111490000000 1.0
C      1  0.4312200000000  0.4658750000000  0.5314130000000 1.0
C      1  0.4258620000000  0.5001750000000  0.5900950000000 1.0
C      1  0.5404590000000  0.4992270000000  0.5191300000000 1.0
C      1  0.5578710000000  0.4252380000000  0.5111510000000 1.0
C      1  0.4871880000000  0.4491420000000  0.4786040000000 1.0
C      1  0.4376350000000  0.4652730000000  0.5595720000000 1.0
C      1  0.6070210000000  0.5295130000000  0.4999370000000 1.0
C      1  0.4683770000000  0.4426710000000  0.5960970000000 1.0
C      1  0.5254020000000  0.5738540000000  0.5705710000000 1.0
C      1  0.5008010000000  0.5063830000000  0.5032780000000 1.0
C      1  0.4901560000000  0.5017940000000  0.3862850000000 1.0
C      1  0.4519370000000  0.4412970000000  0.5712220000000 1.0
C      1  0.4113850000000  0.5194650000000  0.4433230000000 1.0
C      1  0.5233500000000  0.4838230000000  0.4641370000000 1.0
C      1  0.4683740000000  0.5175770000000  0.3976880000000 1.0
C      1  0.5312970000000  0.4014460000000  0.5342180000000 1.0
C      1  0.5527340000000  0.5349370000000  0.4155060000000 1.0
C      1  0.4046650000000  0.5493360000000  0.5242850000000 1.0
C      1  0.4915040000000  0.4999000000000  0.5681810000000 1.0
C      1  0.4792790000000  0.3931050000000  0.5169310000000 1.0
C      1  0.5574310000000  0.5276040000000  0.4820470000000 1.0
C      1  0.4732830000000  0.5101900000000  0.6111860000000 1.0
C      1  0.4481920000000  0.5204830000000  0.5171690000000 1.0
C      1  0.4494690000000  0.4693340000000  0.5049910000000 1.0
C      1  0.4751280000000  0.5441330000000  0.4064800000000 1.0
C      1  0.5558370000000  0.4793070000000  0.5054930000000 1.0
C      1  0.4959060000000  0.4719900000000  0.4495910000000 1.0
C      1  0.5108240000000  0.4097440000000  0.5537100000000 1.0
C      1  0.5746920000000  0.6001210000000  0.4977490000000 1.0
C      1  0.4495710000000  0.4572780000000  0.4492940000000 1.0
C      1  0.4902400000000  0.5402960000000  0.5364560000000 1.0
C      1  0.4818920000000  0.5462510000000  0.4595340000000 1.0
C      1  0.4091450000000  0.4465840000000  0.5263440000000 1.0
C      1  0.6053350000000  0.5289930000000  0.5289660000000 1.0
C      1  0.5800930000000  0.5150490000000  0.5339120000000 1.0
C      1  0.5512830000000  0.4092750000000  0.4884080000000 1.0
C      1  0.3998470000000  0.4919810000000  0.5140810000000 1.0
C      1  0.6057910000000  0.5016770000000  0.4901880000000 1.0
C      1  0.4173240000000  0.4861850000000  0.5652070000000 1.0
C      1  0.5375250000000  0.5772630000000  0.5249190000000 1.0
C      1  0.4414480000000  0.5173760000000  0.4736610000000 1.0
C      1  0.5017910000000  0.5123830000000  0.4261980000000 1.0
C      1  0.5279510000000  0.5755130000000  0.4426400000000 1.0
C      1  0.5931510000000  0.4762350000000  0.5533040000000 1.0
C      1  0.4152520000000  0.5492300000000  0.4476060000000 1.0
C      1  0.5493770000000  0.5305020000000  0.5896590000000 1.0
C      1  0.5129520000000  0.5296780000000  0.5252220000000 1.0
C      1  0.4997790000000  0.4000370000000  0.4979900000000 1.0
C      1  0.4620690000000  0.6033850000000  0.5273110000000 1.0
C      1  0.4061330000000  0.5013560000000  0.5412660000000 1.0
C      1  0.5102250000000  0.4577610000000  0.4947880000000 1.0
C      1  0.4339090000000  0.5878700000000  0.4889590000000 1.0
C      1  0.4708840000000  0.4511020000000  0.5040270000000 1.0
C      1  0.5921710000000  0.4954160000000  0.4662190000000 1.0
C      1  0.4806230000000  0.5621690000000  0.4827030000000 1.0
C      1  0.5330450000000  0.4546260000000  0.5345750000000 1.0
C      1  0.4543870000000  0.4086090000000  0.4768890000000 1.0
C      1  0.4191900000000  0.4496010000000  0.4149540000000 1.0
C      1  0.4939420000000  0.4499930000000  0.5810660000000 1.0
C      1  0.4241960000000  0.4698640000000  0.4361640000000 1.0
C      1  0.5451440000000  0.4841870000000  0.4188160000000 1.0
C      1  0.4840070000000  0.4037760000000  0.5443660000000 1.0
C      1  0.4565070000000  0.6021720000000  0.4762010000000 1.0
C      1  0.4658570000000  0.5054820000000  0.4829160000000 1.0
C      1  0.4256910000000  0.4019750000000  0.5057300000000 1.0
C      1  0.4855250000000  0.4178400000000  0.4754140000000 1.0
C      1  0.5227050000000  0.4317270000000  0.4219120000000 1.0
C      1  0.4538530000000  0.3921280000000  0.5005730000000 1.0
C      1  0.4816130000000  0.4970490000000  0.4405500000000 1.0
C      1  0.4412010000000  0.5447780000000  0.4823050000000 1.0
C      1  0.5268320000000  0.5498020000000  0.4254020000000 1.0
C      1  0.4961660000000  0.5771440000000  0.5741580000000 1.0
C      1  0.5200960000000  0.5573040000000  0.5137820000000 1.0
C      1  0.5256470000000  0.5915880000000  0.5475620000000 1.0
C      1  0.4657960000000  0.4393630000000  0.4317410000000 1.0
C      1  0.5887120000000  0.5360510000000  0.5503110000000 1.0
C      1  0.5947390000000  0.5545760000000  0.4900160000000 1.0
C      1  0.5561330000000  0.4148820000000  0.5384390000000 1.0
C      1  0.5739870000000  0.5602970000000  0.4546320000000 1.0
C      1  0.5018050000000  0.4103250000000  0.4510270000000 1.0
C      1  0.4911410000000  0.5615660000000  0.5156500000000 1.0
C      1  0.4522210000000  0.5472400000000  0.5087350000000 1.0
C      1  0.5874630000000  0.5760640000000  0.5095530000000 1.0
C      1  0.4760440000000  0.5213990000000  0.5540300000000 1.0
C      1  0.4549290000000  0.4982320000000  0.4170430000000 1.0
C      1  0.5271990000000  0.3995910000000  0.5049350000000 1.0
C      1  0.5873180000000  0.4646710000000  0.4584610000000 1.0
C      1  0.4920090000000  0.4723310000000  0.5614280000000 1.0
C      1  0.4334230000000  0.5617070000000  0.5294270000000 1.0
C      1  0.4264770000000  0.4992330000000  0.4290270000000 1.0
C      1  0.5528940000000  0.5819600000000  0.4543080000000 1.0
C      1  0.5550180000000  0.6029970000000  0.4751830000000 1.0
C      1  0.5003350000000  0.5587310000000  0.4081730000000 1.0
C      1  0.4594670000000  0.5065810000000  0.5369320000000 1.0
C      1  0.4947150000000  0.5870210000000  0.4155670000000 1.0
C      1  0.4399100000000  0.5525770000000  0.4388330000000 1.0
C      1  0.4539550000000  0.5398230000000  0.5740240000000 1.0
C      1  0.5119320000000  0.4745970000000  0.5396160000000 1.0
C      1  0.4488690000000  0.5176590000000  0.5963390000000 1.0
C      1  0.4284370000000  0.4241530000000  0.5243970000000 1.0
C      1  0.4646940000000  0.4251980000000  0.5491770000000 1.0
C      1  0.5898350000000  0.4926530000000  0.5753220000000 1.0
C      1  0.5306310000000  0.4171360000000  0.4458990000000 1.0
C      1  0.5137780000000  0.5125630000000  0.3995130000000 1.0
C      1  0.5431130000000  0.5092010000000  0.4039440000000 1.0
C      1  0.4490020000000  0.4455590000000  0.4081470000000 1.0
C      1  0.4165190000000  0.5606330000000  0.4773560000000 1.0
C      1  0.4864270000000  0.4743120000000  0.3963700000000 1.0
C      1  0.5011660000000  0.4668110000000  0.4211940000000 1.0
C      1  0.5792250000000  0.4908970000000  0.5184740000000 1.0
C      1  0.5652660000000  0.4848070000000  0.5920420000000 1.0
C      1  0.4272770000000  0.4193580000000  0.4817260000000 1.0
C      1  0.5992020000000  0.4501770000000  0.5140710000000 1.0
C      1  0.5932870000000  0.4490700000000  0.4388860000000 1.0
C      1  0.4857280000000  0.5146420000000  0.4639860000000 1.0
C      1  0.5288010000000  0.4598880000000  0.4146080000000 1.0
C      1  0.4359680000000  0.5902500000000  0.5172880000000 1.0
C      1  0.5604900000000  0.4504030000000  0.4640660000000 1.0
C      1  0.5480080000000  0.5545530000000  0.5730570000000 1.0
END
