TITL C-4164237-1827-199 -6.86667984722059 125000 -13002.7062313729 0 0 86 (C1) n - 1
REM
REM in /home/nfs/bkarasulu/CARBON/AIRSS/Generating-Clusters/ReaxFF-fromJPCA2015/Units_Real/with-SteepDescent/Only-C1/SD-CG/Try1-3A/FIRE-CG
REM
REM
REM
REM
REM
REM ./C.cell (11c1c37f851c82e70ff6c80c92926a4b)
REM
REM compiler GCC version 9.2.1 20190827 (Red Hat 9.2.1-1)
REM options -cpp -mtune=generic -march=x86-64 -g -O0 -fpre-include=/usr/include/finclude/math-vector-fortran.h
REM seed 1188744905 -390550489 58420876 1083842851 -895096586 687197676 1874155214 1563393216 -642141150 -75453889 -1491602378 2076235435 -779839834 448756000 915657564 -435944652 -627296732 -829142558 986811606 1665657267 -2115276960 -1183215704 612782824 267031889 -1062570889 -645361857 1877073879 1762315344 392724676 1671958476 -2050748148 1311661733 -777908108
REM
CELL 1.54180   50.00000   50.00000   50.00000   90.00000   90.00000   90.00000
LATT -1
SFAC C  
C      1  0.4261220000000  0.5051230000000  0.5283600000000 1.0
C      1  0.5532780000000  0.5199700000000  0.5328240000000 1.0
C      1  0.4404420000000  0.5015820000000  0.4845220000000 1.0
C      1  0.5608750000000  0.4808880000000  0.5605170000000 1.0
C      1  0.4720130000000  0.4721600000000  0.4460490000000 1.0
C      1  0.5538450000000  0.4919030000000  0.4389930000000 1.0
C      1  0.5004330000000  0.5307400000000  0.5171350000000 1.0
C      1  0.4766680000000  0.4184370000000  0.4716990000000 1.0
C      1  0.4350980000000  0.4876720000000  0.4596640000000 1.0
C      1  0.4675160000000  0.4711910000000  0.5664700000000 1.0
C      1  0.5511790000000  0.4726760000000  0.4619170000000 1.0
C      1  0.4552190000000  0.4199840000000  0.4900330000000 1.0
C      1  0.5164520000000  0.5193230000000  0.4284260000000 1.0
C      1  0.4740830000000  0.4223540000000  0.5129930000000 1.0
C      1  0.4807260000000  0.4885170000000  0.5259150000000 1.0
C      1  0.4821520000000  0.4744980000000  0.4202080000000 1.0
C      1  0.5605540000000  0.5175240000000  0.4482290000000 1.0
C      1  0.5394290000000  0.5793040000000  0.4956180000000 1.0
C      1  0.4288800000000  0.4758440000000  0.5333430000000 1.0
C      1  0.5554840000000  0.4522070000000  0.5602250000000 1.0
C      1  0.5297220000000  0.5388510000000  0.4800870000000 1.0
C      1  0.5229510000000  0.5087490000000  0.5266750000000 1.0
C      1  0.4611650000000  0.4474700000000  0.4477560000000 1.0
C      1  0.5236810000000  0.4840910000000  0.5084200000000 1.0
C      1  0.5265330000000  0.4291370000000  0.5340040000000 1.0
C      1  0.4518240000000  0.5318420000000  0.4483650000000 1.0
C      1  0.4679910000000  0.5081720000000  0.4823640000000 1.0
C      1  0.5144500000000  0.4927030000000  0.5504100000000 1.0
C      1  0.4533600000000  0.5721580000000  0.4740720000000 1.0
C      1  0.4603400000000  0.5502760000000  0.5443860000000 1.0
C      1  0.4784920000000  0.5353300000000  0.4614710000000 1.0
C      1  0.5107550000000  0.4689400000000  0.4254710000000 1.0
C      1  0.4958630000000  0.5588220000000  0.5163550000000 1.0
C      1  0.5354380000000  0.5728960000000  0.5369550000000 1.0
C      1  0.4405080000000  0.4531840000000  0.5189860000000 1.0
C      1  0.4787770000000  0.5129960000000  0.5111070000000 1.0
C      1  0.5084520000000  0.5370230000000  0.5752270000000 1.0
C      1  0.5010840000000  0.5905380000000  0.4394640000000 1.0
C      1  0.4854530000000  0.4945660000000  0.5573940000000 1.0
C      1  0.4609850000000  0.4376890000000  0.5339850000000 1.0
C      1  0.5331840000000  0.4868700000000  0.4811330000000 1.0
C      1  0.4385910000000  0.4448250000000  0.4908870000000 1.0
C      1  0.4269800000000  0.5173750000000  0.5026200000000 1.0
C      1  0.5137510000000  0.4468580000000  0.4438830000000 1.0
C      1  0.4358530000000  0.5105630000000  0.5554010000000 1.0
C      1  0.5551860000000  0.5652470000000  0.5154810000000 1.0
C      1  0.5383180000000  0.5643080000000  0.4694310000000 1.0
C      1  0.4917870000000  0.5140450000000  0.4168710000000 1.0
C      1  0.4873760000000  0.4324660000000  0.4501900000000 1.0
C      1  0.5683940000000  0.4944320000000  0.5360640000000 1.0
C      1  0.5337730000000  0.4890440000000  0.5728190000000 1.0
C      1  0.4457970000000  0.5051780000000  0.4383590000000 1.0
C      1  0.5754940000000  0.5281650000000  0.4858330000000 1.0
C      1  0.5165750000000  0.5798600000000  0.5149580000000 1.0
C      1  0.4806950000000  0.5642460000000  0.4650470000000 1.0
C      1  0.5083040000000  0.5748890000000  0.4572860000000 1.0
C      1  0.5480370000000  0.5340190000000  0.5607370000000 1.0
C      1  0.5288380000000  0.4556230000000  0.5709950000000 1.0
C      1  0.4829560000000  0.5246190000000  0.5695800000000 1.0
C      1  0.4455610000000  0.5672420000000  0.5020510000000 1.0
C      1  0.5091150000000  0.4419490000000  0.5553250000000 1.0
C      1  0.4356750000000  0.5500770000000  0.4652560000000 1.0
C      1  0.4674020000000  0.4999810000000  0.4176860000000 1.0
C      1  0.4821180000000  0.4864440000000  0.4686520000000 1.0
C      1  0.4289270000000  0.5444610000000  0.4937440000000 1.0
C      1  0.4665670000000  0.5664220000000  0.5236350000000 1.0
C      1  0.4409090000000  0.4818420000000  0.5600320000000 1.0
C      1  0.5298250000000  0.5562560000000  0.5602490000000 1.0
C      1  0.4788500000000  0.4472130000000  0.5553630000000 1.0
C      1  0.5089460000000  0.4968800000000  0.4679880000000 1.0
C      1  0.5226530000000  0.4274170000000  0.5050170000000 1.0
C      1  0.4967360000000  0.4404310000000  0.5056120000000 1.0
C      1  0.5745160000000  0.4793280000000  0.5111880000000 1.0
C      1  0.5114510000000  0.5256720000000  0.4597470000000 1.0
C      1  0.4989000000000  0.4693940000000  0.5127730000000 1.0
C      1  0.5646250000000  0.5412560000000  0.4611280000000 1.0
C      1  0.5281400000000  0.4928890000000  0.4236840000000 1.0
C      1  0.5440280000000  0.4400310000000  0.4886200000000 1.0
C      1  0.5810590000000  0.4992280000000  0.4906000000000 1.0
C      1  0.5542280000000  0.4391090000000  0.5337070000000 1.0
C      1  0.5538170000000  0.5368860000000  0.5052460000000 1.0
C      1  0.5382790000000  0.4467610000000  0.4600500000000 1.0
C      1  0.5622660000000  0.4514490000000  0.5086460000000 1.0
C      1  0.4549450000000  0.5327050000000  0.5647910000000 1.0
C      1  0.4405550000000  0.4589290000000  0.4653540000000 1.0
C      1  0.5317460000000  0.5197900000000  0.5801830000000 1.0
END
