TITL C-4164244-2836-614 1.86891604574612 125000 -9743.72228713541 0 0 67 (C1) n - 1
REM
REM in /home/nfs/bkarasulu/CARBON/AIRSS/Generating-Clusters/ReaxFF-fromJPCA2015/Units_Real/with-SteepDescent/Only-C1/SD-CG/Try1-3A/FIRE-CG
REM
REM
REM
REM
REM
REM ./C.cell (11c1c37f851c82e70ff6c80c92926a4b)
REM
REM compiler GCC version 9.2.1 20190827 (Red Hat 9.2.1-1)
REM options -cpp -mtune=generic -march=x86-64 -g -O0 -fpre-include=/usr/include/finclude/math-vector-fortran.h
REM seed 1610001256 846582244 1448687211 -1042519943 -442240067 115980833 -534169450 475889961 1266538049 -1160342409 2141861751 1808097650 270957432 1484859945 -446261017 1535080970 805249284 1221601246 272188344 -1618944532 -753298203 1521916049 -2038221009 -1185397652 1680175446 1464541652 854718814 1711744875 -1772624969 -114826547 973535763 -1750496469 -752698388
REM
CELL 1.54180   50.00000   50.00000   50.00000   90.00000   90.00000   90.00000
LATT -1
SFAC C  
C      1  0.5439910000000  0.5140960000000  0.4434110000000 1.0
C      1  0.4967510000000  0.4517050000000  0.4473180000000 1.0
C      1  0.4536320000000  0.4314680000000  0.5279730000000 1.0
C      1  0.4057150000000  0.5320460000000  0.4949430000000 1.0
C      1  0.4901520000000  0.5648940000000  0.5225570000000 1.0
C      1  0.4239510000000  0.5545220000000  0.5014290000000 1.0
C      1  0.5528760000000  0.4899320000000  0.5522270000000 1.0
C      1  0.4646350000000  0.5721250000000  0.5309000000000 1.0
C      1  0.5265380000000  0.4694970000000  0.4729100000000 1.0
C      1  0.4992800000000  0.4377450000000  0.5426340000000 1.0
C      1  0.4548800000000  0.4624910000000  0.4477400000000 1.0
C      1  0.4773670000000  0.4997480000000  0.5091690000000 1.0
C      1  0.4809570000000  0.4363460000000  0.4668640000000 1.0
C      1  0.5713990000000  0.4869090000000  0.5307830000000 1.0
C      1  0.5561530000000  0.4410790000000  0.5105660000000 1.0
C      1  0.4904050000000  0.4370570000000  0.4940990000000 1.0
C      1  0.4323650000000  0.5352580000000  0.4811850000000 1.0
C      1  0.4472070000000  0.5099500000000  0.4833500000000 1.0
C      1  0.5514170000000  0.5180800000000  0.5468410000000 1.0
C      1  0.5542730000000  0.4198860000000  0.4891110000000 1.0
C      1  0.4839850000000  0.4604820000000  0.5516720000000 1.0
C      1  0.5562720000000  0.5526630000000  0.5089960000000 1.0
C      1  0.4786220000000  0.5572470000000  0.4616950000000 1.0
C      1  0.4965450000000  0.5205040000000  0.5055500000000 1.0
C      1  0.5164090000000  0.5412220000000  0.4644350000000 1.0
C      1  0.5109200000000  0.4596460000000  0.4996630000000 1.0
C      1  0.5570440000000  0.4727930000000  0.4720020000000 1.0
C      1  0.5754690000000  0.5110120000000  0.4836770000000 1.0
C      1  0.4968480000000  0.4837050000000  0.4439750000000 1.0
C      1  0.4564300000000  0.4585990000000  0.5394000000000 1.0
C      1  0.5380630000000  0.4215900000000  0.4645860000000 1.0
C      1  0.4466140000000  0.5162890000000  0.5801120000000 1.0
C      1  0.4372440000000  0.5655060000000  0.5247760000000 1.0
C      1  0.4979690000000  0.4989990000000  0.5569150000000 1.0
C      1  0.4043600000000  0.5029760000000  0.5017020000000 1.0
C      1  0.5043490000000  0.5772850000000  0.5020700000000 1.0
C      1  0.4726390000000  0.5350370000000  0.4453280000000 1.0
C      1  0.5097350000000  0.5170690000000  0.4813780000000 1.0
C      1  0.5531520000000  0.5362900000000  0.5299720000000 1.0
C      1  0.4997060000000  0.5678360000000  0.4756510000000 1.0
C      1  0.4831500000000  0.4267750000000  0.5205520000000 1.0
C      1  0.4561920000000  0.5055350000000  0.5288810000000 1.0
C      1  0.4502380000000  0.5548280000000  0.5471260000000 1.0
C      1  0.4665280000000  0.4875930000000  0.4425320000000 1.0
C      1  0.5287380000000  0.4438180000000  0.5409820000000 1.0
C      1  0.5342470000000  0.5776120000000  0.5069530000000 1.0
C      1  0.5467820000000  0.5375530000000  0.4599620000000 1.0
C      1  0.5088570000000  0.4917160000000  0.4683850000000 1.0
C      1  0.5640010000000  0.4982920000000  0.4600070000000 1.0
C      1  0.5169360000000  0.5084040000000  0.4325470000000 1.0
C      1  0.5014060000000  0.5320810000000  0.4379780000000 1.0
C      1  0.5633250000000  0.5370950000000  0.4841690000000 1.0
C      1  0.4980400000000  0.5383700000000  0.5283310000000 1.0
C      1  0.5237610000000  0.4454860000000  0.4534580000000 1.0
C      1  0.5290380000000  0.4712640000000  0.5535990000000 1.0
C      1  0.5039000000000  0.4796430000000  0.5437170000000 1.0
C      1  0.4496360000000  0.4366330000000  0.4579090000000 1.0
C      1  0.5500460000000  0.5906560000000  0.5222110000000 1.0
C      1  0.4561870000000  0.5116380000000  0.4553770000000 1.0
C      1  0.5310190000000  0.4464340000000  0.5149860000000 1.0
C      1  0.4407830000000  0.4816770000000  0.5277060000000 1.0
C      1  0.4903630000000  0.5253340000000  0.5531510000000 1.0
C      1  0.4311600000000  0.4895310000000  0.4998940000000 1.0
C      1  0.4985140000000  0.4810000000000  0.5155410000000 1.0
C      1  0.4588430000000  0.5265600000000  0.5541080000000 1.0
C      1  0.5814590000000  0.4895580000000  0.5048710000000 1.0
C      1  0.5705280000000  0.4633260000000  0.4955010000000 1.0
END
