TITL C-4164235-1454-263 80.4803544409942 125000 -24830.0931736337 0 0 167 (C1) n - 1
REM
REM in /home/nfs/bkarasulu/CARBON/AIRSS/Generating-Clusters/ReaxFF-fromJPCA2015/Units_Real/with-SteepDescent/Only-C1/SD-CG/Try1-3A/FIRE-CG
REM
REM
REM
REM
REM
REM ./C.cell (11c1c37f851c82e70ff6c80c92926a4b)
REM
REM compiler GCC version 9.2.1 20190827 (Red Hat 9.2.1-1)
REM options -cpp -mtune=generic -march=x86-64 -g -O0 -fpre-include=/usr/include/finclude/math-vector-fortran.h
REM seed -1376363669 -283596177 1542160817 -57171885 678366593 -808791126 176331790 -1301552336 -719269467 -1436254260 -1804963680 -1959244866 -2010252798 -1797765337 2063208906 -966778365 441183952 1018028846 130870575 747764140 -1095650036 2056947700 -1066618503 2001473339 -155168980 2052841748 365371195 -1510089809 1350245923 1364825242 817617242 1394812452 617868889
REM
CELL 1.54180   50.00000   50.00000   50.00000   90.00000   90.00000   90.00000
LATT -1
SFAC C  
C      1  0.5899340000000  0.4632760000000  0.5141000000000 1.0
C      1  0.4196950000000  0.5527430000000  0.5416930000000 1.0
C      1  0.4912190000000  0.5252870000000  0.4598240000000 1.0
C      1  0.4782170000000  0.4276580000000  0.4269240000000 1.0
C      1  0.5234260000000  0.4090840000000  0.5582630000000 1.0
C      1  0.5879740000000  0.5791980000000  0.4934550000000 1.0
C      1  0.5899720000000  0.4671880000000  0.4584950000000 1.0
C      1  0.4300240000000  0.5080920000000  0.5763270000000 1.0
C      1  0.4410880000000  0.5363420000000  0.5305650000000 1.0
C      1  0.5195170000000  0.5251790000000  0.5294800000000 1.0
C      1  0.4439900000000  0.4897540000000  0.5185680000000 1.0
C      1  0.5504730000000  0.5016830000000  0.5668590000000 1.0
C      1  0.4563590000000  0.5013970000000  0.3983040000000 1.0
C      1  0.4067710000000  0.4331880000000  0.4895760000000 1.0
C      1  0.5851850000000  0.4880820000000  0.4399620000000 1.0
C      1  0.5656460000000  0.5957070000000  0.4974330000000 1.0
C      1  0.4895810000000  0.5574470000000  0.4354330000000 1.0
C      1  0.4783060000000  0.4937710000000  0.6091710000000 1.0
C      1  0.5608130000000  0.4798600000000  0.5199530000000 1.0
C      1  0.4714510000000  0.4753680000000  0.4009090000000 1.0
C      1  0.5387230000000  0.4487380000000  0.4660770000000 1.0
C      1  0.4421730000000  0.4648030000000  0.4806230000000 1.0
C      1  0.5158500000000  0.5483980000000  0.3939070000000 1.0
C      1  0.5086780000000  0.5800080000000  0.4335590000000 1.0
C      1  0.5143210000000  0.4333930000000  0.4646200000000 1.0
C      1  0.4979470000000  0.5158730000000  0.5725670000000 1.0
C      1  0.4863060000000  0.5701900000000  0.5864830000000 1.0
C      1  0.4925020000000  0.5845330000000  0.5613990000000 1.0
C      1  0.4477090000000  0.6103620000000  0.4575550000000 1.0
C      1  0.5152140000000  0.5700610000000  0.5480510000000 1.0
C      1  0.4675130000000  0.5204860000000  0.6035620000000 1.0
C      1  0.4611990000000  0.5615010000000  0.5741640000000 1.0
C      1  0.5084170000000  0.4932390000000  0.6129090000000 1.0
C      1  0.5316690000000  0.4783930000000  0.4621590000000 1.0
C      1  0.5328800000000  0.5423930000000  0.5969790000000 1.0
C      1  0.4993040000000  0.5123750000000  0.5088250000000 1.0
C      1  0.4538980000000  0.4687220000000  0.5047680000000 1.0
C      1  0.5470510000000  0.5277250000000  0.5176870000000 1.0
C      1  0.5052150000000  0.5307470000000  0.4844600000000 1.0
C      1  0.4379960000000  0.5474840000000  0.4528380000000 1.0
C      1  0.5786890000000  0.5125490000000  0.5597970000000 1.0
C      1  0.4360210000000  0.4883340000000  0.5431050000000 1.0
C      1  0.5936650000000  0.5151590000000  0.5223770000000 1.0
C      1  0.4783170000000  0.5202060000000  0.5281620000000 1.0
C      1  0.5464450000000  0.5500190000000  0.5003710000000 1.0
C      1  0.4795890000000  0.5166960000000  0.3903060000000 1.0
C      1  0.6060300000000  0.5407550000000  0.5160010000000 1.0
C      1  0.5067190000000  0.5558430000000  0.6019370000000 1.0
C      1  0.4999550000000  0.4804560000000  0.4039260000000 1.0
C      1  0.5305340000000  0.5233650000000  0.3973190000000 1.0
C      1  0.5400110000000  0.5993140000000  0.5266700000000 1.0
C      1  0.4097080000000  0.4789120000000  0.4489980000000 1.0
C      1  0.4600360000000  0.4075270000000  0.4451800000000 1.0
C      1  0.4113720000000  0.4294470000000  0.4598950000000 1.0
C      1  0.4529930000000  0.5282130000000  0.5775740000000 1.0
C      1  0.4389430000000  0.5176290000000  0.4591760000000 1.0
C      1  0.5359540000000  0.4347010000000  0.5652740000000 1.0
C      1  0.4668500000000  0.5463380000000  0.5221450000000 1.0
C      1  0.4157060000000  0.4754980000000  0.4779990000000 1.0
C      1  0.4488490000000  0.5962440000000  0.4787920000000 1.0
C      1  0.5819210000000  0.5445090000000  0.4535250000000 1.0
C      1  0.5132060000000  0.6121760000000  0.5216830000000 1.0
C      1  0.4105940000000  0.5043380000000  0.5478570000000 1.0
C      1  0.4391230000000  0.4814820000000  0.5817660000000 1.0
C      1  0.4371920000000  0.5148850000000  0.4161780000000 1.0
C      1  0.4692570000000  0.5556280000000  0.4142210000000 1.0
C      1  0.5134760000000  0.4557980000000  0.5761550000000 1.0
C      1  0.5252930000000  0.5674240000000  0.4137170000000 1.0
C      1  0.4798530000000  0.4833980000000  0.4593360000000 1.0
C      1  0.6030090000000  0.4882810000000  0.5250080000000 1.0
C      1  0.4615480000000  0.4501690000000  0.4124930000000 1.0
C      1  0.5767510000000  0.5709250000000  0.4662280000000 1.0
C      1  0.5364030000000  0.5537030000000  0.4587920000000 1.0
C      1  0.4156000000000  0.4514180000000  0.4397400000000 1.0
C      1  0.4700190000000  0.4192180000000  0.5593160000000 1.0
C      1  0.5506430000000  0.4685670000000  0.4124420000000 1.0
C      1  0.4956060000000  0.5600510000000  0.4961330000000 1.0
C      1  0.4626540000000  0.6027210000000  0.5050190000000 1.0
C      1  0.5191860000000  0.5049610000000  0.5555610000000 1.0
C      1  0.5136390000000  0.3971810000000  0.4267860000000 1.0
C      1  0.5243850000000  0.4725870000000  0.5993250000000 1.0
C      1  0.5311350000000  0.4404350000000  0.5199040000000 1.0
C      1  0.5175050000000  0.3870190000000  0.4495100000000 1.0
C      1  0.5640240000000  0.5372480000000  0.4312780000000 1.0
C      1  0.5644460000000  0.4401270000000  0.5577650000000 1.0
C      1  0.4239900000000  0.5755760000000  0.5231510000000 1.0
C      1  0.4348800000000  0.4622920000000  0.5580330000000 1.0
C      1  0.5765520000000  0.5049680000000  0.4621990000000 1.0
C      1  0.5808390000000  0.4389660000000  0.5315840000000 1.0
C      1  0.5342790000000  0.5456290000000  0.4334180000000 1.0
C      1  0.4500250000000  0.5897820000000  0.5270100000000 1.0
C      1  0.4968030000000  0.4124200000000  0.5645230000000 1.0
C      1  0.5685480000000  0.4911010000000  0.4155730000000 1.0
C      1  0.4928190000000  0.6065970000000  0.5014060000000 1.0
C      1  0.5138410000000  0.3977610000000  0.5303820000000 1.0
C      1  0.4875750000000  0.4382030000000  0.4527780000000 1.0
C      1  0.5940360000000  0.5239670000000  0.4700920000000 1.0
C      1  0.5042660000000  0.4798280000000  0.4725570000000 1.0
C      1  0.4838430000000  0.4657450000000  0.5400210000000 1.0
C      1  0.5779440000000  0.4143630000000  0.5156350000000 1.0
C      1  0.5243710000000  0.4152980000000  0.5099870000000 1.0
C      1  0.4697110000000  0.5080240000000  0.4595670000000 1.0
C      1  0.5211310000000  0.4624320000000  0.4100570000000 1.0
C      1  0.4132400000000  0.4570430000000  0.5353310000000 1.0
C      1  0.5042470000000  0.5864990000000  0.4825990000000 1.0
C      1  0.4169870000000  0.5609940000000  0.4997410000000 1.0
C      1  0.5647230000000  0.4378770000000  0.4737820000000 1.0
C      1  0.5446380000000  0.4615220000000  0.5092790000000 1.0
C      1  0.4389240000000  0.5157940000000  0.5101520000000 1.0
C      1  0.5741060000000  0.5421540000000  0.5626170000000 1.0
C      1  0.5557280000000  0.4788970000000  0.5493510000000 1.0
C      1  0.5877120000000  0.4551250000000  0.4835240000000 1.0
C      1  0.5011040000000  0.4803920000000  0.5008550000000 1.0
C      1  0.5317730000000  0.4773950000000  0.4321040000000 1.0
C      1  0.5464990000000  0.4919590000000  0.5965940000000 1.0
C      1  0.4344290000000  0.4155360000000  0.4514600000000 1.0
C      1  0.4871070000000  0.3926320000000  0.5194130000000 1.0
C      1  0.3958180000000  0.5153090000000  0.4909900000000 1.0
C      1  0.4495490000000  0.4051560000000  0.4932370000000 1.0
C      1  0.4642970000000  0.4057280000000  0.5330640000000 1.0
C      1  0.6057120000000  0.5186850000000  0.4966720000000 1.0
C      1  0.5214660000000  0.5903830000000  0.4590300000000 1.0
C      1  0.5549850000000  0.5041490000000  0.5043710000000 1.0
C      1  0.4868170000000  0.3850870000000  0.4908800000000 1.0
C      1  0.4224180000000  0.5026240000000  0.4373070000000 1.0
C      1  0.4002850000000  0.4810840000000  0.5281730000000 1.0
C      1  0.4823270000000  0.4525890000000  0.5816010000000 1.0
C      1  0.4947510000000  0.5297000000000  0.6007680000000 1.0
C      1  0.4641740000000  0.5803750000000  0.5519980000000 1.0
C      1  0.5127860000000  0.3843140000000  0.4767740000000 1.0
C      1  0.4410160000000  0.5631990000000  0.4788120000000 1.0
C      1  0.5569530000000  0.5179970000000  0.4109740000000 1.0
C      1  0.3987720000000  0.5392690000000  0.5080910000000 1.0
C      1  0.5447100000000  0.5787090000000  0.5476810000000 1.0
C      1  0.5216140000000  0.4102230000000  0.4826890000000 1.0
C      1  0.4627500000000  0.4602540000000  0.4583840000000 1.0
C      1  0.5098810000000  0.4747720000000  0.5506760000000 1.0
C      1  0.4436510000000  0.4577120000000  0.4334350000000 1.0
C      1  0.5775700000000  0.4663350000000  0.5633750000000 1.0
C      1  0.4243440000000  0.5153640000000  0.4857740000000 1.0
C      1  0.4448840000000  0.5431620000000  0.4255050000000 1.0
C      1  0.5889080000000  0.5636740000000  0.5190330000000 1.0
C      1  0.5440460000000  0.5793370000000  0.5034720000000 1.0
C      1  0.4662800000000  0.5560800000000  0.4949320000000 1.0
C      1  0.5688520000000  0.4110890000000  0.4873030000000 1.0
C      1  0.5030710000000  0.4132980000000  0.4079790000000 1.0
C      1  0.5953190000000  0.4892070000000  0.5533610000000 1.0
C      1  0.4664410000000  0.4498790000000  0.5582460000000 1.0
C      1  0.4645870000000  0.3943440000000  0.4730760000000 1.0
C      1  0.5697310000000  0.5637420000000  0.5423760000000 1.0
C      1  0.4011840000000  0.5311590000000  0.5367270000000 1.0
C      1  0.5064570000000  0.5527150000000  0.5269630000000 1.0
C      1  0.4748720000000  0.5174710000000  0.5568280000000 1.0
C      1  0.4407480000000  0.4135960000000  0.5167460000000 1.0
C      1  0.4162490000000  0.4344440000000  0.5164380000000 1.0
C      1  0.4856190000000  0.5448740000000  0.3924470000000 1.0
C      1  0.4658550000000  0.4728740000000  0.5933740000000 1.0
C      1  0.5053310000000  0.5098790000000  0.4069310000000 1.0
C      1  0.3982220000000  0.4869390000000  0.4994150000000 1.0
C      1  0.5507110000000  0.5040390000000  0.4754080000000 1.0
C      1  0.5040770000000  0.5308040000000  0.4354940000000 1.0
C      1  0.4795000000000  0.4659870000000  0.5124960000000 1.0
C      1  0.5309890000000  0.5128470000000  0.6088180000000 1.0
C      1  0.5512530000000  0.5499760000000  0.5769580000000 1.0
C      1  0.5355380000000  0.5346930000000  0.4785020000000 1.0
C      1  0.5495610000000  0.5793800000000  0.4586880000000 1.0
C      1  0.5213380000000  0.4675380000000  0.5197220000000 1.0
END
