TITL C-4164232-771-293 28.9531920568681 125000 -21598.2840836737 0 0 145 (C1) n - 1
REM
REM in /home/nfs/bkarasulu/CARBON/AIRSS/Generating-Clusters/ReaxFF-fromJPCA2015/Units_Real/with-SteepDescent/Only-C1/SD-CG/Try1-3A/FIRE-CG
REM
REM
REM
REM
REM
REM ./C.cell (11c1c37f851c82e70ff6c80c92926a4b)
REM
REM compiler GCC version 9.2.1 20190827 (Red Hat 9.2.1-1)
REM options -cpp -mtune=generic -march=x86-64 -g -O0 -fpre-include=/usr/include/finclude/math-vector-fortran.h
REM seed -533542215 1232719506 -1964692788 279584555 -918428276 -93592254 1016787723 295151356 -1360697802 648914016 -1502173165 -564853185 177812419 -908439660 1412916063 2038618821 -486826246 1582594326 475705099 -1482159164 -1962109161 -790441875 -1317508474 -675439076 -922752749 2256938 -1968126771 938789624 -1802338191 817657396 -650813690 -1609238617 1098551309
REM
CELL 1.54180   50.00000   50.00000   50.00000   90.00000   90.00000   90.00000
LATT -1
SFAC C  
C      1  0.4905710000000  0.5514980000000  0.4953000000000 1.0
C      1  0.5786890000000  0.5187440000000  0.5490590000000 1.0
C      1  0.5260790000000  0.4740320000000  0.4852810000000 1.0
C      1  0.5327510000000  0.4352670000000  0.4573890000000 1.0
C      1  0.4540050000000  0.4949840000000  0.6040730000000 1.0
C      1  0.5179990000000  0.5900340000000  0.5219830000000 1.0
C      1  0.5206130000000  0.4416920000000  0.4112140000000 1.0
C      1  0.5414630000000  0.4323970000000  0.5346550000000 1.0
C      1  0.5796890000000  0.4645270000000  0.5494450000000 1.0
C      1  0.4383140000000  0.4945660000000  0.4128960000000 1.0
C      1  0.4817100000000  0.5012620000000  0.4693330000000 1.0
C      1  0.5893090000000  0.4922260000000  0.4549700000000 1.0
C      1  0.4479030000000  0.5341100000000  0.5685620000000 1.0
C      1  0.4913670000000  0.6018240000000  0.5269060000000 1.0
C      1  0.4267370000000  0.4415010000000  0.5519750000000 1.0
C      1  0.5476050000000  0.4936690000000  0.5748920000000 1.0
C      1  0.3881600000000  0.4536380000000  0.5196610000000 1.0
C      1  0.5693340000000  0.4824670000000  0.4358060000000 1.0
C      1  0.4889100000000  0.4924280000000  0.5563260000000 1.0
C      1  0.5954470000000  0.4947440000000  0.5190780000000 1.0
C      1  0.4121280000000  0.4621930000000  0.4737320000000 1.0
C      1  0.4496180000000  0.5406020000000  0.4675300000000 1.0
C      1  0.4834550000000  0.4724000000000  0.4633750000000 1.0
C      1  0.5914340000000  0.5217620000000  0.4624330000000 1.0
C      1  0.4705370000000  0.4411340000000  0.4228670000000 1.0
C      1  0.6131380000000  0.4982960000000  0.4943950000000 1.0
C      1  0.5247600000000  0.5062850000000  0.5440900000000 1.0
C      1  0.5206840000000  0.5432590000000  0.4063110000000 1.0
C      1  0.4570340000000  0.5400680000000  0.3956380000000 1.0
C      1  0.5746040000000  0.5325830000000  0.5224570000000 1.0
C      1  0.5672300000000  0.4930250000000  0.5112530000000 1.0
C      1  0.5145970000000  0.4893250000000  0.6001240000000 1.0
C      1  0.4949800000000  0.4258220000000  0.4175750000000 1.0
C      1  0.4605030000000  0.5684230000000  0.4028850000000 1.0
C      1  0.5179360000000  0.4864630000000  0.4454410000000 1.0
C      1  0.4572380000000  0.4079420000000  0.5382650000000 1.0
C      1  0.4822810000000  0.4479490000000  0.5026310000000 1.0
C      1  0.4813380000000  0.4661360000000  0.4094790000000 1.0
C      1  0.4015990000000  0.4425930000000  0.4937030000000 1.0
C      1  0.4172850000000  0.4263310000000  0.5100870000000 1.0
C      1  0.4199060000000  0.5627880000000  0.4890960000000 1.0
C      1  0.5023660000000  0.4272030000000  0.4914490000000 1.0
C      1  0.4490890000000  0.4845360000000  0.4947450000000 1.0
C      1  0.4054970000000  0.5137780000000  0.5041440000000 1.0
C      1  0.5610090000000  0.4502980000000  0.4639880000000 1.0
C      1  0.4698210000000  0.4248930000000  0.5594110000000 1.0
C      1  0.5638810000000  0.4401670000000  0.5553730000000 1.0
C      1  0.5719770000000  0.4910000000000  0.5593710000000 1.0
C      1  0.5173250000000  0.5159790000000  0.5924660000000 1.0
C      1  0.4976420000000  0.4043950000000  0.5284170000000 1.0
C      1  0.4807610000000  0.5171870000000  0.4016170000000 1.0
C      1  0.5732360000000  0.4375640000000  0.4905160000000 1.0
C      1  0.5494480000000  0.5765980000000  0.4285240000000 1.0
C      1  0.5366940000000  0.4326610000000  0.5979090000000 1.0
C      1  0.5598390000000  0.5030050000000  0.4845570000000 1.0
C      1  0.5391370000000  0.5832990000000  0.5469620000000 1.0
C      1  0.5200460000000  0.5322260000000  0.4595850000000 1.0
C      1  0.5269500000000  0.5972700000000  0.4933270000000 1.0
C      1  0.5680370000000  0.5390660000000  0.4678900000000 1.0
C      1  0.5508000000000  0.4270310000000  0.5044690000000 1.0
C      1  0.5460290000000  0.5339820000000  0.5143270000000 1.0
C      1  0.4844840000000  0.4648680000000  0.5252460000000 1.0
C      1  0.5656600000000  0.5612850000000  0.4883220000000 1.0
C      1  0.4795370000000  0.5990960000000  0.5006380000000 1.0
C      1  0.5098820000000  0.4376880000000  0.5912820000000 1.0
C      1  0.4986840000000  0.4248510000000  0.5666890000000 1.0
C      1  0.4652360000000  0.4629790000000  0.4835260000000 1.0
C      1  0.5459360000000  0.5481220000000  0.4209220000000 1.0
C      1  0.4208300000000  0.5304940000000  0.4629140000000 1.0
C      1  0.4199870000000  0.4899360000000  0.4879310000000 1.0
C      1  0.4661120000000  0.4897040000000  0.4051100000000 1.0
C      1  0.4428470000000  0.5702510000000  0.5227500000000 1.0
C      1  0.4642680000000  0.4750990000000  0.5524810000000 1.0
C      1  0.4598140000000  0.5222730000000  0.5890260000000 1.0
C      1  0.5484020000000  0.5835370000000  0.4795900000000 1.0
C      1  0.5049730000000  0.5814470000000  0.4562630000000 1.0
C      1  0.5613070000000  0.5645420000000  0.5446040000000 1.0
C      1  0.4807880000000  0.5934150000000  0.5534980000000 1.0
C      1  0.5261410000000  0.4935690000000  0.4056340000000 1.0
C      1  0.5111560000000  0.4619010000000  0.4620480000000 1.0
C      1  0.4393500000000  0.5213830000000  0.4045370000000 1.0
C      1  0.5214620000000  0.4993980000000  0.5170650000000 1.0
C      1  0.4582730000000  0.5829960000000  0.5422740000000 1.0
C      1  0.4895980000000  0.4935060000000  0.5246610000000 1.0
C      1  0.5432810000000  0.4368840000000  0.4294030000000 1.0
C      1  0.4529750000000  0.4481760000000  0.5620090000000 1.0
C      1  0.5271570000000  0.5498490000000  0.5285350000000 1.0
C      1  0.5102520000000  0.5056530000000  0.4655230000000 1.0
C      1  0.5163170000000  0.5328170000000  0.5489840000000 1.0
C      1  0.5365640000000  0.5153720000000  0.4976700000000 1.0
C      1  0.4069100000000  0.5272750000000  0.5570020000000 1.0
C      1  0.4068780000000  0.4611930000000  0.5418850000000 1.0
C      1  0.4688860000000  0.5241660000000  0.4523730000000 1.0
C      1  0.4176660000000  0.5020750000000  0.4590740000000 1.0
C      1  0.5116230000000  0.5173520000000  0.3976750000000 1.0
C      1  0.4648630000000  0.5340680000000  0.4984130000000 1.0
C      1  0.4497310000000  0.4362100000000  0.4451450000000 1.0
C      1  0.4052940000000  0.5378800000000  0.4874360000000 1.0
C      1  0.4260320000000  0.4834170000000  0.4386290000000 1.0
C      1  0.5386050000000  0.4743830000000  0.5129610000000 1.0
C      1  0.4733750000000  0.3988870000000  0.5156980000000 1.0
C      1  0.5011360000000  0.5989690000000  0.4800360000000 1.0
C      1  0.5506660000000  0.4776210000000  0.4727280000000 1.0
C      1  0.5443020000000  0.5219130000000  0.5801220000000 1.0
C      1  0.4233140000000  0.5335140000000  0.5749500000000 1.0
C      1  0.4839490000000  0.5309580000000  0.4294430000000 1.0
C      1  0.4698970000000  0.5045390000000  0.4995900000000 1.0
C      1  0.5751350000000  0.5613480000000  0.5173240000000 1.0
C      1  0.5307110000000  0.4603350000000  0.5375710000000 1.0
C      1  0.5161800000000  0.4150000000000  0.5453800000000 1.0
C      1  0.5464320000000  0.5301750000000  0.4453900000000 1.0
C      1  0.6019830000000  0.4774940000000  0.4773080000000 1.0
C      1  0.4429280000000  0.5709480000000  0.4753960000000 1.0
C      1  0.5966820000000  0.4659900000000  0.5254490000000 1.0
C      1  0.5003490000000  0.5546470000000  0.4250770000000 1.0
C      1  0.5349410000000  0.5865050000000  0.4529040000000 1.0
C      1  0.4821560000000  0.5793600000000  0.4207740000000 1.0
C      1  0.5938130000000  0.4564840000000  0.4971220000000 1.0
C      1  0.4659230000000  0.3988150000000  0.4835330000000 1.0
C      1  0.5428790000000  0.4977580000000  0.4319340000000 1.0
C      1  0.4927940000000  0.4051260000000  0.4787980000000 1.0
C      1  0.4498280000000  0.5409590000000  0.5217340000000 1.0
C      1  0.4531290000000  0.5863720000000  0.4978900000000 1.0
C      1  0.4507320000000  0.5232630000000  0.5429360000000 1.0
C      1  0.4172200000000  0.4886750000000  0.5409700000000 1.0
C      1  0.4292580000000  0.4178920000000  0.5336240000000 1.0
C      1  0.6153760000000  0.5249510000000  0.4805710000000 1.0
C      1  0.4757410000000  0.4770180000000  0.6058400000000 1.0
C      1  0.5509160000000  0.4357920000000  0.5797880000000 1.0
C      1  0.5216880000000  0.4806880000000  0.5579150000000 1.0
C      1  0.5614250000000  0.5385040000000  0.5609960000000 1.0
C      1  0.4562210000000  0.4173800000000  0.4647740000000 1.0
C      1  0.5666100000000  0.4537450000000  0.4342120000000 1.0
C      1  0.5240360000000  0.5835820000000  0.5728240000000 1.0
C      1  0.4003840000000  0.5120960000000  0.5323800000000 1.0
C      1  0.4439090000000  0.4952640000000  0.5439510000000 1.0
C      1  0.5107530000000  0.4681100000000  0.4043610000000 1.0
C      1  0.4275150000000  0.4563880000000  0.4500060000000 1.0
C      1  0.4876770000000  0.5186390000000  0.5772370000000 1.0
C      1  0.4960810000000  0.5732590000000  0.5711080000000 1.0
C      1  0.5039890000000  0.5544310000000  0.4694940000000 1.0
C      1  0.5051950000000  0.5634710000000  0.5164320000000 1.0
C      1  0.4952040000000  0.5444210000000  0.5647180000000 1.0
C      1  0.5008030000000  0.4651490000000  0.6043200000000 1.0
C      1  0.5304880000000  0.4213240000000  0.4844480000000 1.0
END
