TITL C-4164242-3624-558 0.770139772621492 125000 -17609.7344722669 0 0 116 (C1) n - 1
REM
REM in /home/nfs/bkarasulu/CARBON/AIRSS/Generating-Clusters/ReaxFF-fromJPCA2015/Units_Real/with-SteepDescent/Only-C1/SD-CG/Try1-3A/FIRE-CG
REM
REM
REM
REM
REM
REM ./C.cell (11c1c37f851c82e70ff6c80c92926a4b)
REM
REM compiler GCC version 9.2.1 20190827 (Red Hat 9.2.1-1)
REM options -cpp -mtune=generic -march=x86-64 -g -O0 -fpre-include=/usr/include/finclude/math-vector-fortran.h
REM seed 1810165619 -612430110 -937515060 1838005192 1721267452 1701931300 -1482036244 871344857 529257590 -1524737026 1262311191 206483837 -1131075441 1660816387 1607485714 -1933510613 -1346427780 -498745125 2093164204 -438278456 1510645216 -1359577658 -2049291038 -1488857878 10683748 619508153 1089540563 536110749 -1860620473 1264490412 888221518 -1544366194 1761529031
REM
CELL 1.54180   50.00000   50.00000   50.00000   90.00000   90.00000   90.00000
LATT -1
SFAC C  
C      1  0.5138480000000  0.4551200000000  0.4122300000000 1.0
C      1  0.4307940000000  0.5599050000000  0.4633570000000 1.0
C      1  0.5004920000000  0.4993830000000  0.4344100000000 1.0
C      1  0.4208480000000  0.5326560000000  0.5072310000000 1.0
C      1  0.5180050000000  0.5097340000000  0.4760210000000 1.0
C      1  0.4933680000000  0.5524410000000  0.5247220000000 1.0
C      1  0.4262690000000  0.4322380000000  0.5031940000000 1.0
C      1  0.4889420000000  0.4271710000000  0.5472550000000 1.0
C      1  0.4999650000000  0.4576880000000  0.5009590000000 1.0
C      1  0.4847860000000  0.4610590000000  0.4116550000000 1.0
C      1  0.4404730000000  0.4956910000000  0.5726080000000 1.0
C      1  0.5547540000000  0.4643410000000  0.4348000000000 1.0
C      1  0.5524410000000  0.5634850000000  0.4573070000000 1.0
C      1  0.5762240000000  0.5308190000000  0.4743070000000 1.0
C      1  0.4610100000000  0.5046610000000  0.5915500000000 1.0
C      1  0.4542040000000  0.5743720000000  0.4967660000000 1.0
C      1  0.4832660000000  0.4623440000000  0.4611030000000 1.0
C      1  0.5312400000000  0.4785130000000  0.5315040000000 1.0
C      1  0.4812270000000  0.4855910000000  0.6015570000000 1.0
C      1  0.4298810000000  0.4585110000000  0.5426950000000 1.0
C      1  0.5071460000000  0.4734120000000  0.5970190000000 1.0
C      1  0.5468590000000  0.4441860000000  0.5038400000000 1.0
C      1  0.5298030000000  0.5042190000000  0.4165070000000 1.0
C      1  0.4722810000000  0.4630910000000  0.5590960000000 1.0
C      1  0.5661380000000  0.4438180000000  0.4780730000000 1.0
C      1  0.4811600000000  0.4427300000000  0.4367180000000 1.0
C      1  0.5801920000000  0.4685110000000  0.4743120000000 1.0
C      1  0.4804920000000  0.4819780000000  0.5367550000000 1.0
C      1  0.5258980000000  0.5737200000000  0.5584850000000 1.0
C      1  0.5554390000000  0.4652700000000  0.5240710000000 1.0
C      1  0.5192200000000  0.4288430000000  0.5438650000000 1.0
C      1  0.4236470000000  0.5380620000000  0.5360270000000 1.0
C      1  0.5166300000000  0.4055500000000  0.5012350000000 1.0
C      1  0.5645030000000  0.5594310000000  0.4796800000000 1.0
C      1  0.4730510000000  0.4590170000000  0.4883780000000 1.0
C      1  0.4108920000000  0.4541060000000  0.4953000000000 1.0
C      1  0.5185330000000  0.4064860000000  0.4740440000000 1.0
C      1  0.5296010000000  0.4824330000000  0.4714500000000 1.0
C      1  0.4314980000000  0.4878240000000  0.4427050000000 1.0
C      1  0.4691210000000  0.5264400000000  0.5746800000000 1.0
C      1  0.4661420000000  0.5042780000000  0.4913230000000 1.0
C      1  0.4860200000000  0.5514040000000  0.4783220000000 1.0
C      1  0.5653820000000  0.5662810000000  0.5283440000000 1.0
C      1  0.4748920000000  0.5394960000000  0.4181110000000 1.0
C      1  0.4353580000000  0.4330020000000  0.5312330000000 1.0
C      1  0.5320970000000  0.5064020000000  0.5402690000000 1.0
C      1  0.5241330000000  0.4553570000000  0.4846270000000 1.0
C      1  0.4121010000000  0.5004780000000  0.5350890000000 1.0
C      1  0.5826910000000  0.4746150000000  0.5207730000000 1.0
C      1  0.5320410000000  0.4697330000000  0.5819390000000 1.0
C      1  0.5050140000000  0.5456530000000  0.4998180000000 1.0
C      1  0.4976790000000  0.5175690000000  0.4575240000000 1.0
C      1  0.5220730000000  0.5310540000000  0.4041990000000 1.0
C      1  0.4981500000000  0.5727860000000  0.4624710000000 1.0
C      1  0.5252150000000  0.4315320000000  0.4585640000000 1.0
C      1  0.5479140000000  0.5220780000000  0.5857480000000 1.0
C      1  0.4159130000000  0.5090920000000  0.4896740000000 1.0
C      1  0.5523860000000  0.5746140000000  0.5041340000000 1.0
C      1  0.5190920000000  0.5298500000000  0.5824930000000 1.0
C      1  0.5909790000000  0.5209680000000  0.5221430000000 1.0
C      1  0.5891940000000  0.4959030000000  0.5381860000000 1.0
C      1  0.4303230000000  0.5590110000000  0.4927060000000 1.0
C      1  0.4064760000000  0.4812600000000  0.4994580000000 1.0
C      1  0.4349670000000  0.4613530000000  0.4498630000000 1.0
C      1  0.4496510000000  0.5522040000000  0.5396290000000 1.0
C      1  0.4840850000000  0.4631820000000  0.5856620000000 1.0
C      1  0.4504050000000  0.4986140000000  0.4217000000000 1.0
C      1  0.5155190000000  0.5862280000000  0.5346460000000 1.0
C      1  0.5064840000000  0.4772780000000  0.4538490000000 1.0
C      1  0.5028980000000  0.5882380000000  0.4875150000000 1.0
C      1  0.4607250000000  0.4162060000000  0.4434550000000 1.0
C      1  0.4447870000000  0.4692880000000  0.5628400000000 1.0
C      1  0.5552810000000  0.5198400000000  0.4266800000000 1.0
C      1  0.5310320000000  0.4470970000000  0.5637560000000 1.0
C      1  0.4612980000000  0.4846700000000  0.5092280000000 1.0
C      1  0.4926470000000  0.3995380000000  0.4842130000000 1.0
C      1  0.4508380000000  0.5280150000000  0.4230050000000 1.0
C      1  0.5096700000000  0.4347460000000  0.4325250000000 1.0
C      1  0.4386060000000  0.4359450000000  0.4569770000000 1.0
C      1  0.5042400000000  0.4721650000000  0.5243810000000 1.0
C      1  0.4516770000000  0.4325490000000  0.4848570000000 1.0
C      1  0.4768680000000  0.4881850000000  0.4170600000000 1.0
C      1  0.5244570000000  0.5266170000000  0.4967120000000 1.0
C      1  0.5256310000000  0.5856160000000  0.5075300000000 1.0
C      1  0.5093880000000  0.5572840000000  0.5770360000000 1.0
C      1  0.4284990000000  0.4802250000000  0.5223260000000 1.0
C      1  0.5102770000000  0.5688260000000  0.4361670000000 1.0
C      1  0.5299550000000  0.4236560000000  0.5174690000000 1.0
C      1  0.5394770000000  0.5678420000000  0.4332630000000 1.0
C      1  0.5421190000000  0.5227450000000  0.5182290000000 1.0
C      1  0.5907830000000  0.5144120000000  0.4939190000000 1.0
C      1  0.4220950000000  0.5139570000000  0.5570290000000 1.0
C      1  0.4670530000000  0.5697160000000  0.5548400000000 1.0
C      1  0.5538540000000  0.4405920000000  0.4524970000000 1.0
C      1  0.5611880000000  0.4845830000000  0.4564040000000 1.0
C      1  0.5693730000000  0.4883360000000  0.5567160000000 1.0
C      1  0.5531980000000  0.4921700000000  0.5783080000000 1.0
C      1  0.4247040000000  0.5094690000000  0.4623930000000 1.0
C      1  0.5111470000000  0.5148820000000  0.5585100000000 1.0
C      1  0.4823600000000  0.5125000000000  0.5499460000000 1.0
C      1  0.4716470000000  0.5255100000000  0.4705510000000 1.0
C      1  0.4865910000000  0.5806520000000  0.5323890000000 1.0
C      1  0.5683680000000  0.5143640000000  0.4518900000000 1.0
C      1  0.5669690000000  0.5372200000000  0.5241440000000 1.0
C      1  0.5903040000000  0.4850090000000  0.4953780000000 1.0
C      1  0.4719780000000  0.5350960000000  0.5308300000000 1.0
C      1  0.4417090000000  0.5323200000000  0.4531810000000 1.0
C      1  0.4617280000000  0.4212850000000  0.5393240000000 1.0
C      1  0.5359710000000  0.4741010000000  0.4152950000000 1.0
C      1  0.4801050000000  0.5543170000000  0.5758070000000 1.0
C      1  0.5453100000000  0.5443390000000  0.4146520000000 1.0
C      1  0.5552570000000  0.5678770000000  0.5566920000000 1.0
C      1  0.5562930000000  0.5448130000000  0.5726230000000 1.0
C      1  0.4673010000000  0.4093140000000  0.4739610000000 1.0
C      1  0.5003630000000  0.5497780000000  0.4150750000000 1.0
C      1  0.4774590000000  0.5879710000000  0.5024540000000 1.0
END
