TITL C-4164236-1577-66 10.2243208480096 125000 -25019.5869717029 0 0 167 (C1) n - 1
REM
REM in /home/nfs/bkarasulu/CARBON/AIRSS/Generating-Clusters/ReaxFF-fromJPCA2015/Units_Real/with-SteepDescent/Only-C1/SD-CG/Try1-3A/FIRE-CG
REM
REM
REM
REM
REM
REM ./C.cell (11c1c37f851c82e70ff6c80c92926a4b)
REM
REM compiler GCC version 9.2.1 20190827 (Red Hat 9.2.1-1)
REM options -cpp -mtune=generic -march=x86-64 -g -O0 -fpre-include=/usr/include/finclude/math-vector-fortran.h
REM seed -1530014598 -395645191 1095372651 -131933597 2138608680 1409971689 1895296637 -1355603447 -967748417 -2009003289 -2000238662 2071105150 -138159224 -881241986 230259365 -1533077545 500876778 -1873033041 108744881 -1630739925 958591953 -178723744 1023575958 -547246210 -1102662360 -568092678 2093384131 483987914 -589486492 976244040 -1330953673 -891401165 1006906347
REM
CELL 1.54180   50.00000   50.00000   50.00000   90.00000   90.00000   90.00000
LATT -1
SFAC C  
C      1  0.4973930000000  0.5503960000000  0.5501970000000 1.0
C      1  0.5035560000000  0.4568720000000  0.5775320000000 1.0
C      1  0.5656930000000  0.5575300000000  0.5542790000000 1.0
C      1  0.4665750000000  0.5326900000000  0.4788260000000 1.0
C      1  0.4967250000000  0.5336470000000  0.4389490000000 1.0
C      1  0.5906930000000  0.4768110000000  0.5549200000000 1.0
C      1  0.4434950000000  0.5728870000000  0.4489040000000 1.0
C      1  0.5391920000000  0.4904030000000  0.5131000000000 1.0
C      1  0.5447580000000  0.4906460000000  0.4854460000000 1.0
C      1  0.5668400000000  0.5009300000000  0.5566090000000 1.0
C      1  0.4345430000000  0.5008710000000  0.5472750000000 1.0
C      1  0.4156820000000  0.5003220000000  0.4375160000000 1.0
C      1  0.4722970000000  0.6047210000000  0.4883000000000 1.0
C      1  0.4948070000000  0.5357630000000  0.6055710000000 1.0
C      1  0.5428770000000  0.5163740000000  0.4441780000000 1.0
C      1  0.5184120000000  0.4281410000000  0.4814170000000 1.0
C      1  0.5117310000000  0.5569750000000  0.5969040000000 1.0
C      1  0.4676810000000  0.4627180000000  0.4454990000000 1.0
C      1  0.4541100000000  0.5430010000000  0.4124070000000 1.0
C      1  0.5530760000000  0.4410660000000  0.5784560000000 1.0
C      1  0.5879560000000  0.4548330000000  0.5351510000000 1.0
C      1  0.5668510000000  0.4196460000000  0.4829880000000 1.0
C      1  0.4542090000000  0.5051750000000  0.5680740000000 1.0
C      1  0.4971410000000  0.4938510000000  0.5906420000000 1.0
C      1  0.4830350000000  0.5039620000000  0.5679560000000 1.0
C      1  0.4299930000000  0.4357950000000  0.5389130000000 1.0
C      1  0.4057690000000  0.5308020000000  0.4717930000000 1.0
C      1  0.5184990000000  0.4079520000000  0.5518260000000 1.0
C      1  0.6040750000000  0.4932760000000  0.5338380000000 1.0
C      1  0.4990810000000  0.5485290000000  0.5219800000000 1.0
C      1  0.4609710000000  0.5540760000000  0.4621930000000 1.0
C      1  0.5460330000000  0.4545710000000  0.4257600000000 1.0
C      1  0.4967740000000  0.6038750000000  0.5326670000000 1.0
C      1  0.4711040000000  0.5930060000000  0.5443020000000 1.0
C      1  0.5035650000000  0.5427910000000  0.4638630000000 1.0
C      1  0.4628420000000  0.4596100000000  0.5119170000000 1.0
C      1  0.5032430000000  0.5708470000000  0.5709980000000 1.0
C      1  0.4340120000000  0.4154370000000  0.4947720000000 1.0
C      1  0.5015220000000  0.5702340000000  0.4716230000000 1.0
C      1  0.4855890000000  0.5514920000000  0.4169420000000 1.0
C      1  0.4418620000000  0.4368330000000  0.5669500000000 1.0
C      1  0.5237090000000  0.5089450000000  0.5515300000000 1.0
C      1  0.5184660000000  0.4529880000000  0.4342300000000 1.0
C      1  0.4301920000000  0.5754740000000  0.4793720000000 1.0
C      1  0.4988700000000  0.4058610000000  0.4441620000000 1.0
C      1  0.5554460000000  0.5319790000000  0.5893200000000 1.0
C      1  0.5196480000000  0.4276870000000  0.5084810000000 1.0
C      1  0.5971540000000  0.4718180000000  0.5124110000000 1.0
C      1  0.4708420000000  0.4797310000000  0.3850790000000 1.0
C      1  0.4688850000000  0.4028530000000  0.5333060000000 1.0
C      1  0.5431980000000  0.4206450000000  0.5586850000000 1.0
C      1  0.4891650000000  0.4855160000000  0.4930490000000 1.0
C      1  0.4590780000000  0.4772770000000  0.5996540000000 1.0
C      1  0.4855160000000  0.4465000000000  0.5585950000000 1.0
C      1  0.5690170000000  0.5568320000000  0.4347740000000 1.0
C      1  0.4701850000000  0.3988690000000  0.4518050000000 1.0
C      1  0.5877290000000  0.5368770000000  0.4437620000000 1.0
C      1  0.5655020000000  0.5618520000000  0.4882720000000 1.0
C      1  0.5692670000000  0.4496650000000  0.4719140000000 1.0
C      1  0.4525370000000  0.5075140000000  0.5972350000000 1.0
C      1  0.4879640000000  0.4066760000000  0.5555180000000 1.0
C      1  0.4782050000000  0.4105110000000  0.4907380000000 1.0
C      1  0.4348870000000  0.4805360000000  0.4783180000000 1.0
C      1  0.4014950000000  0.4545310000000  0.5009150000000 1.0
C      1  0.5386560000000  0.5098940000000  0.5959330000000 1.0
C      1  0.4713230000000  0.5134030000000  0.5164600000000 1.0
C      1  0.4879580000000  0.4696560000000  0.5982760000000 1.0
C      1  0.4504690000000  0.5854720000000  0.5250010000000 1.0
C      1  0.4139960000000  0.5383940000000  0.5440400000000 1.0
C      1  0.5119190000000  0.5120350000000  0.6061180000000 1.0
C      1  0.5241940000000  0.5834940000000  0.4361420000000 1.0
C      1  0.4327130000000  0.5490990000000  0.4305290000000 1.0
C      1  0.4920780000000  0.5056400000000  0.4412030000000 1.0
C      1  0.4969370000000  0.6015310000000  0.5042410000000 1.0
C      1  0.5354320000000  0.5918700000000  0.4616160000000 1.0
C      1  0.4630670000000  0.5195390000000  0.3987740000000 1.0
C      1  0.3893260000000  0.4962130000000  0.5299220000000 1.0
C      1  0.4112100000000  0.4879220000000  0.4641080000000 1.0
C      1  0.4957290000000  0.4620670000000  0.4823210000000 1.0
C      1  0.4578730000000  0.4498380000000  0.4214790000000 1.0
C      1  0.4568980000000  0.4855680000000  0.4604090000000 1.0
C      1  0.4432110000000  0.5057640000000  0.5195610000000 1.0
C      1  0.4392820000000  0.4760320000000  0.5071940000000 1.0
C      1  0.5402720000000  0.5563300000000  0.5934240000000 1.0
C      1  0.5161360000000  0.4967960000000  0.5269710000000 1.0
C      1  0.5922600000000  0.5237320000000  0.4917790000000 1.0
C      1  0.4661060000000  0.5333830000000  0.5975630000000 1.0
C      1  0.5196200000000  0.4542950000000  0.4675740000000 1.0
C      1  0.5323250000000  0.4628270000000  0.5682860000000 1.0
C      1  0.4880750000000  0.3960370000000  0.5134260000000 1.0
C      1  0.5482080000000  0.5392190000000  0.4973320000000 1.0
C      1  0.5095850000000  0.5192750000000  0.4803880000000 1.0
C      1  0.4305150000000  0.4824030000000  0.4203370000000 1.0
C      1  0.5244150000000  0.5533310000000  0.5084350000000 1.0
C      1  0.5794270000000  0.4511440000000  0.5788920000000 1.0
C      1  0.5871570000000  0.5626280000000  0.5085900000000 1.0
C      1  0.4066060000000  0.5102500000000  0.5495760000000 1.0
C      1  0.5234560000000  0.4522230000000  0.5233280000000 1.0
C      1  0.4248650000000  0.5380250000000  0.5161400000000 1.0
C      1  0.4498620000000  0.4930860000000  0.4006670000000 1.0
C      1  0.5902370000000  0.4888210000000  0.4615520000000 1.0
C      1  0.4718630000000  0.5086240000000  0.4605580000000 1.0
C      1  0.5192460000000  0.5222830000000  0.3997720000000 1.0
C      1  0.4970270000000  0.5081480000000  0.5046310000000 1.0
C      1  0.5711850000000  0.5177770000000  0.5126340000000 1.0
C      1  0.5380440000000  0.5158350000000  0.4732180000000 1.0
C      1  0.5630300000000  0.4360240000000  0.5359840000000 1.0
C      1  0.5255460000000  0.5970010000000  0.5348880000000 1.0
C      1  0.5692990000000  0.5730610000000  0.5293530000000 1.0
C      1  0.5938660000000  0.5175580000000  0.4640690000000 1.0
C      1  0.4304530000000  0.4539310000000  0.4299510000000 1.0
C      1  0.5508030000000  0.5880120000000  0.4866480000000 1.0
C      1  0.5464020000000  0.3985820000000  0.4769700000000 1.0
C      1  0.5642620000000  0.4150190000000  0.5111720000000 1.0
C      1  0.5403850000000  0.4950730000000  0.5707530000000 1.0
C      1  0.4425970000000  0.4159220000000  0.5225300000000 1.0
C      1  0.5484900000000  0.5898790000000  0.5165220000000 1.0
C      1  0.5712100000000  0.5308620000000  0.5646300000000 1.0
C      1  0.4974190000000  0.4781480000000  0.3971470000000 1.0
C      1  0.4732590000000  0.5403690000000  0.5094920000000 1.0
C      1  0.4777580000000  0.4625690000000  0.5366670000000 1.0
C      1  0.5451550000000  0.3937080000000  0.5061160000000 1.0
C      1  0.4573420000000  0.4446970000000  0.4649220000000 1.0
C      1  0.4854660000000  0.4536090000000  0.3880540000000 1.0
C      1  0.5192970000000  0.4037610000000  0.4659490000000 1.0
C      1  0.4155310000000  0.4352990000000  0.4830720000000 1.0
C      1  0.5613330000000  0.4943560000000  0.5282870000000 1.0
C      1  0.5485600000000  0.5719860000000  0.5714810000000 1.0
C      1  0.5272710000000  0.5863420000000  0.5611750000000 1.0
C      1  0.4737970000000  0.4438320000000  0.4893800000000 1.0
C      1  0.4721480000000  0.5773710000000  0.5689220000000 1.0
C      1  0.5908120000000  0.4704440000000  0.4838970000000 1.0
C      1  0.3920370000000  0.4845680000000  0.5029940000000 1.0
C      1  0.4301600000000  0.4427510000000  0.4582270000000 1.0
C      1  0.4162230000000  0.5289550000000  0.4439910000000 1.0
C      1  0.5017050000000  0.4290380000000  0.4266100000000 1.0
C      1  0.4545490000000  0.4001770000000  0.4771530000000 1.0
C      1  0.4456800000000  0.4585870000000  0.5839570000000 1.0
C      1  0.5648000000000  0.5289980000000  0.4322660000000 1.0
C      1  0.4179290000000  0.4577760000000  0.5237640000000 1.0
C      1  0.5953270000000  0.5216190000000  0.5331860000000 1.0
C      1  0.5438820000000  0.5651610000000  0.4219530000000 1.0
C      1  0.5450130000000  0.4595120000000  0.5400430000000 1.0
C      1  0.5010870000000  0.5237540000000  0.5596580000000 1.0
C      1  0.5043970000000  0.4710570000000  0.5309890000000 1.0
C      1  0.5786670000000  0.4770840000000  0.4363500000000 1.0
C      1  0.5696200000000  0.4499880000000  0.4415020000000 1.0
C      1  0.4170320000000  0.5514000000000  0.4893550000000 1.0
C      1  0.5121920000000  0.5766680000000  0.4951490000000 1.0
C      1  0.4709830000000  0.5886280000000  0.4391740000000 1.0
C      1  0.5447800000000  0.4645690000000  0.4753580000000 1.0
C      1  0.4467280000000  0.5925740000000  0.4970230000000 1.0
C      1  0.5319390000000  0.5004510000000  0.4224700000000 1.0
C      1  0.5546440000000  0.4806390000000  0.4192370000000 1.0
C      1  0.5063140000000  0.4837650000000  0.4255850000000 1.0
C      1  0.4845980000000  0.5942190000000  0.4640740000000 1.0
C      1  0.4953020000000  0.5803340000000  0.4262820000000 1.0
C      1  0.6056720000000  0.5400330000000  0.5119690000000 1.0
C      1  0.5302950000000  0.5446380000000  0.4088190000000 1.0
C      1  0.4560610000000  0.5545980000000  0.5778310000000 1.0
C      1  0.4917230000000  0.5309160000000  0.3956260000000 1.0
C      1  0.5182050000000  0.4003330000000  0.5219340000000 1.0
C      1  0.3948380000000  0.5047030000000  0.4808550000000 1.0
C      1  0.4699250000000  0.4256980000000  0.5677050000000 1.0
C      1  0.4488970000000  0.5552910000000  0.5261260000000 1.0
C      1  0.4791780000000  0.4339320000000  0.4087320000000 1.0
C      1  0.4381490000000  0.5497730000000  0.5550590000000 1.0
END
