TITL C-4164239-2837-452 0.717817988452736 125000 -16395.166261675 0 0 109 (C1) n - 1
REM
REM in /home/nfs/bkarasulu/CARBON/AIRSS/Generating-Clusters/ReaxFF-fromJPCA2015/Units_Real/with-SteepDescent/Only-C1/SD-CG/Try1-3A/FIRE-CG
REM
REM
REM
REM
REM
REM ./C.cell (11c1c37f851c82e70ff6c80c92926a4b)
REM
REM compiler GCC version 9.2.1 20190827 (Red Hat 9.2.1-1)
REM options -cpp -mtune=generic -march=x86-64 -g -O0 -fpre-include=/usr/include/finclude/math-vector-fortran.h
REM seed -1353892944 -654411483 348542079 -1812908388 -1498305855 -1837910777 -1115566819 -482452084 -1067868245 312565784 1896095667 -88423676 806161982 -44276648 -1814834360 1781101265 211112836 1868580118 1526294581 1502375293 1210694050 -291004740 477224128 -60876799 1557640000 -1527412572 2112885676 -2056534067 2029203064 1699398176 1018154182 -1910159999 -1148365398
REM
CELL 1.54180   50.00000   50.00000   50.00000   90.00000   90.00000   90.00000
LATT -1
SFAC C  
C      1  0.4800710000000  0.4194350000000  0.4697450000000 1.0
C      1  0.4844260000000  0.4699210000000  0.4010570000000 1.0
C      1  0.4317580000000  0.4839830000000  0.4416620000000 1.0
C      1  0.5620830000000  0.5434380000000  0.5252760000000 1.0
C      1  0.5537060000000  0.4972780000000  0.5506040000000 1.0
C      1  0.4939010000000  0.4356550000000  0.5522440000000 1.0
C      1  0.4868860000000  0.5373780000000  0.4267070000000 1.0
C      1  0.4761210000000  0.5160840000000  0.4611140000000 1.0
C      1  0.4180310000000  0.4601490000000  0.5104000000000 1.0
C      1  0.4728420000000  0.5158810000000  0.5265780000000 1.0
C      1  0.5308060000000  0.5088060000000  0.5079120000000 1.0
C      1  0.4884800000000  0.4243560000000  0.5249400000000 1.0
C      1  0.5599280000000  0.4823880000000  0.4495450000000 1.0
C      1  0.4602130000000  0.5455020000000  0.5829160000000 1.0
C      1  0.5717890000000  0.5167980000000  0.5362170000000 1.0
C      1  0.4820530000000  0.4969830000000  0.5925160000000 1.0
C      1  0.5562860000000  0.5742510000000  0.4847460000000 1.0
C      1  0.4258270000000  0.5450880000000  0.4719010000000 1.0
C      1  0.4851240000000  0.5760240000000  0.4932180000000 1.0
C      1  0.5392600000000  0.4537020000000  0.5697240000000 1.0
C      1  0.4555310000000  0.4632810000000  0.4013150000000 1.0
C      1  0.5858800000000  0.4741700000000  0.5062430000000 1.0
C      1  0.4475360000000  0.4393970000000  0.4439780000000 1.0
C      1  0.5058350000000  0.4445850000000  0.4328340000000 1.0
C      1  0.5503270000000  0.5004440000000  0.4294180000000 1.0
C      1  0.4683060000000  0.5191940000000  0.5928750000000 1.0
C      1  0.5346760000000  0.4697670000000  0.4513490000000 1.0
C      1  0.4654920000000  0.5720570000000  0.5188640000000 1.0
C      1  0.5862290000000  0.5363770000000  0.4792260000000 1.0
C      1  0.4821780000000  0.4586930000000  0.5657680000000 1.0
C      1  0.4101070000000  0.4872240000000  0.5193530000000 1.0
C      1  0.5404570000000  0.5577640000000  0.5392380000000 1.0
C      1  0.5053690000000  0.5984680000000  0.4980070000000 1.0
C      1  0.5394490000000  0.5310420000000  0.4672960000000 1.0
C      1  0.5621830000000  0.4296230000000  0.5083350000000 1.0
C      1  0.5768770000000  0.5355490000000  0.4520220000000 1.0
C      1  0.5088660000000  0.4699730000000  0.4173520000000 1.0
C      1  0.4793790000000  0.5299020000000  0.5057590000000 1.0
C      1  0.5731310000000  0.4525500000000  0.5223940000000 1.0
C      1  0.5456640000000  0.4983970000000  0.5795340000000 1.0
C      1  0.5298090000000  0.4152350000000  0.5430290000000 1.0
C      1  0.5124400000000  0.5244510000000  0.4184820000000 1.0
C      1  0.5688790000000  0.5518730000000  0.4985940000000 1.0
C      1  0.4630920000000  0.5222330000000  0.4354680000000 1.0
C      1  0.5181950000000  0.5275230000000  0.4868270000000 1.0
C      1  0.5453600000000  0.5950690000000  0.4991480000000 1.0
C      1  0.5243120000000  0.5889950000000  0.5181090000000 1.0
C      1  0.4406890000000  0.5356900000000  0.5664040000000 1.0
C      1  0.5212710000000  0.4305850000000  0.5647750000000 1.0
C      1  0.5029270000000  0.5181340000000  0.5564070000000 1.0
C      1  0.4884440000000  0.4639370000000  0.4652510000000 1.0
C      1  0.4638860000000  0.5153180000000  0.4868930000000 1.0
C      1  0.4730690000000  0.5689710000000  0.4662530000000 1.0
C      1  0.4467080000000  0.5618940000000  0.4771620000000 1.0
C      1  0.5366760000000  0.5798440000000  0.4629370000000 1.0
C      1  0.4874530000000  0.4729460000000  0.5142130000000 1.0
C      1  0.5201900000000  0.4298010000000  0.4534980000000 1.0
C      1  0.4571360000000  0.4202110000000  0.4857890000000 1.0
C      1  0.4327380000000  0.4790670000000  0.5630780000000 1.0
C      1  0.5274930000000  0.4747890000000  0.5845860000000 1.0
C      1  0.4186870000000  0.5117750000000  0.5036570000000 1.0
C      1  0.4750490000000  0.5083900000000  0.5525720000000 1.0
C      1  0.5447220000000  0.5276910000000  0.5839150000000 1.0
C      1  0.4831300000000  0.5688630000000  0.5408230000000 1.0
C      1  0.4372690000000  0.5094250000000  0.4269940000000 1.0
C      1  0.4268610000000  0.5360150000000  0.5193030000000 1.0
C      1  0.5046820000000  0.5102540000000  0.4627940000000 1.0
C      1  0.5523660000000  0.4455480000000  0.4860290000000 1.0
C      1  0.5584400000000  0.5304660000000  0.4306490000000 1.0
C      1  0.5229900000000  0.5042930000000  0.5378130000000 1.0
C      1  0.5552890000000  0.4642500000000  0.5453460000000 1.0
C      1  0.4582230000000  0.4751590000000  0.5189830000000 1.0
C      1  0.4451160000000  0.4952690000000  0.4936720000000 1.0
C      1  0.4825800000000  0.5597540000000  0.5675410000000 1.0
C      1  0.5271280000000  0.6026060000000  0.4785770000000 1.0
C      1  0.5064300000000  0.4170860000000  0.4770670000000 1.0
C      1  0.5128010000000  0.5632300000000  0.5264810000000 1.0
C      1  0.4614380000000  0.4271440000000  0.5136970000000 1.0
C      1  0.5918330000000  0.4993980000000  0.5219030000000 1.0
C      1  0.5101500000000  0.4157880000000  0.5060990000000 1.0
C      1  0.5316400000000  0.5442360000000  0.4266260000000 1.0
C      1  0.5081870000000  0.4779300000000  0.5340300000000 1.0
C      1  0.5460480000000  0.4432180000000  0.4570190000000 1.0
C      1  0.4364590000000  0.4335230000000  0.4696920000000 1.0
C      1  0.4618230000000  0.4776820000000  0.5532320000000 1.0
C      1  0.4067640000000  0.5260020000000  0.4749610000000 1.0
C      1  0.4910800000000  0.5603190000000  0.4450580000000 1.0
C      1  0.5285380000000  0.4574970000000  0.4988260000000 1.0
C      1  0.5013090000000  0.5505020000000  0.5022800000000 1.0
C      1  0.5355410000000  0.5511080000000  0.5674400000000 1.0
C      1  0.5204340000000  0.5646010000000  0.4436920000000 1.0
C      1  0.4386950000000  0.4593120000000  0.4257790000000 1.0
C      1  0.4426450000000  0.5582850000000  0.5078630000000 1.0
C      1  0.4156700000000  0.4960150000000  0.5464160000000 1.0
C      1  0.4209580000000  0.4559770000000  0.4814490000000 1.0
C      1  0.5383400000000  0.4124880000000  0.5166660000000 1.0
C      1  0.4232130000000  0.5270960000000  0.5469270000000 1.0
C      1  0.4972940000000  0.4738270000000  0.5859580000000 1.0
C      1  0.5233360000000  0.4968510000000  0.4190070000000 1.0
C      1  0.5517290000000  0.4969780000000  0.4969910000000 1.0
C      1  0.5714530000000  0.4890080000000  0.4804090000000 1.0
C      1  0.5885820000000  0.5079600000000  0.4814530000000 1.0
C      1  0.4322590000000  0.4804100000000  0.4709930000000 1.0
C      1  0.5002990000000  0.4612000000000  0.4912590000000 1.0
C      1  0.5086990000000  0.4823360000000  0.4567820000000 1.0
C      1  0.4436200000000  0.4496870000000  0.5204000000000 1.0
C      1  0.4786610000000  0.4403020000000  0.4499800000000 1.0
C      1  0.5069090000000  0.5430380000000  0.5709090000000 1.0
C      1  0.5307990000000  0.4620800000000  0.5269050000000 1.0
END
