TITL C-4164244-2836-61 -4.50154262134561 125000 -30006.5931674317 0 0 197 (C1) n - 1
REM
REM in /home/nfs/bkarasulu/CARBON/AIRSS/Generating-Clusters/ReaxFF-fromJPCA2015/Units_Real/with-SteepDescent/Only-C1/SD-CG/Try1-3A/FIRE-CG
REM
REM
REM
REM
REM
REM ./C.cell (11c1c37f851c82e70ff6c80c92926a4b)
REM
REM compiler GCC version 9.2.1 20190827 (Red Hat 9.2.1-1)
REM options -cpp -mtune=generic -march=x86-64 -g -O0 -fpre-include=/usr/include/finclude/math-vector-fortran.h
REM seed -1599144409 -1698342296 -629446887 -1428405731 -814672532 -430050790 -1260058456 405851066 1211591955 1999598030 1763905871 -2101624792 -1486433714 -1071315501 1357765133 526010059 1443044394 1203921274 -513007931 -961499399 -2040646422 563387809 -961688956 -704003681 -1623723318 -510144215 -1487831168 761538835 -1402728982 1458002370 1751682878 583563917 372516271
REM
CELL 1.54180   50.00000   50.00000   50.00000   90.00000   90.00000   90.00000
LATT -1
SFAC C  
C      1  0.5239740000000  0.4705880000000  0.6015840000000 1.0
C      1  0.5613240000000  0.4776640000000  0.4956220000000 1.0
C      1  0.4873830000000  0.4431760000000  0.5657690000000 1.0
C      1  0.5751500000000  0.5881190000000  0.4791830000000 1.0
C      1  0.5047600000000  0.5885570000000  0.5618980000000 1.0
C      1  0.4570000000000  0.3969260000000  0.5503600000000 1.0
C      1  0.5494670000000  0.4835520000000  0.5972280000000 1.0
C      1  0.5816760000000  0.4382600000000  0.5198050000000 1.0
C      1  0.4617460000000  0.4977920000000  0.4397050000000 1.0
C      1  0.6027170000000  0.4598640000000  0.4545110000000 1.0
C      1  0.4822400000000  0.4343950000000  0.4645310000000 1.0
C      1  0.5926100000000  0.4775080000000  0.4790930000000 1.0
C      1  0.5093170000000  0.4532560000000  0.5237280000000 1.0
C      1  0.5840970000000  0.4129700000000  0.4683070000000 1.0
C      1  0.4662980000000  0.5719190000000  0.5099860000000 1.0
C      1  0.5441030000000  0.5116820000000  0.3937540000000 1.0
C      1  0.5391610000000  0.4202230000000  0.5158120000000 1.0
C      1  0.3939240000000  0.4980930000000  0.5358130000000 1.0
C      1  0.5091580000000  0.4834290000000  0.5191170000000 1.0
C      1  0.5490060000000  0.5732150000000  0.5496110000000 1.0
C      1  0.5370370000000  0.4823000000000  0.3937330000000 1.0
C      1  0.4416980000000  0.5208400000000  0.4344280000000 1.0
C      1  0.5545470000000  0.4920060000000  0.4445180000000 1.0
C      1  0.5225560000000  0.4300900000000  0.4677260000000 1.0
C      1  0.4100630000000  0.4498950000000  0.4621320000000 1.0
C      1  0.5167020000000  0.4063000000000  0.5571490000000 1.0
C      1  0.4481170000000  0.5387200000000  0.6046280000000 1.0
C      1  0.4987320000000  0.3933590000000  0.5405060000000 1.0
C      1  0.5174230000000  0.5168130000000  0.3836790000000 1.0
C      1  0.4865240000000  0.5015370000000  0.5303480000000 1.0
C      1  0.5005140000000  0.5417370000000  0.5529610000000 1.0
C      1  0.4807000000000  0.6035900000000  0.4446290000000 1.0
C      1  0.5274070000000  0.6005940000000  0.4667410000000 1.0
C      1  0.4275840000000  0.4760600000000  0.5037140000000 1.0
C      1  0.4666540000000  0.4833500000000  0.5760040000000 1.0
C      1  0.5374400000000  0.4642020000000  0.4818210000000 1.0
C      1  0.4875990000000  0.4231580000000  0.4929360000000 1.0
C      1  0.4770450000000  0.5363620000000  0.6108480000000 1.0
C      1  0.5843240000000  0.5208310000000  0.4194100000000 1.0
C      1  0.4616270000000  0.5958760000000  0.5295610000000 1.0
C      1  0.4403150000000  0.5120130000000  0.5981300000000 1.0
C      1  0.4556490000000  0.4682220000000  0.4105300000000 1.0
C      1  0.6098070000000  0.5547150000000  0.4931900000000 1.0
C      1  0.4610100000000  0.5665020000000  0.4176600000000 1.0
C      1  0.4056300000000  0.4587580000000  0.5137880000000 1.0
C      1  0.4330680000000  0.5035590000000  0.4927160000000 1.0
C      1  0.5397430000000  0.5327950000000  0.5885460000000 1.0
C      1  0.5115870000000  0.4958440000000  0.6123690000000 1.0
C      1  0.4669930000000  0.4656930000000  0.4859050000000 1.0
C      1  0.4653740000000  0.4400940000000  0.4074950000000 1.0
C      1  0.5468980000000  0.4666070000000  0.4529840000000 1.0
C      1  0.4309570000000  0.5576070000000  0.5888150000000 1.0
C      1  0.4549620000000  0.4517610000000  0.4616270000000 1.0
C      1  0.4476380000000  0.5442870000000  0.5276950000000 1.0
C      1  0.4130030000000  0.4842140000000  0.4395290000000 1.0
C      1  0.5686470000000  0.5713840000000  0.5024060000000 1.0
C      1  0.3905390000000  0.5266640000000  0.5307960000000 1.0
C      1  0.6103300000000  0.5211350000000  0.4616070000000 1.0
C      1  0.5059200000000  0.4507560000000  0.4567430000000 1.0
C      1  0.4849580000000  0.5081160000000  0.6116860000000 1.0
C      1  0.5887550000000  0.4665330000000  0.4295520000000 1.0
C      1  0.4165600000000  0.5707410000000  0.4800720000000 1.0
C      1  0.5744520000000  0.4143050000000  0.4954810000000 1.0
C      1  0.4938710000000  0.5302030000000  0.5272220000000 1.0
C      1  0.5999750000000  0.5365700000000  0.4383970000000 1.0
C      1  0.4817520000000  0.4190140000000  0.4218650000000 1.0
C      1  0.4156810000000  0.4630330000000  0.5657850000000 1.0
C      1  0.4845270000000  0.4058480000000  0.4497990000000 1.0
C      1  0.4655410000000  0.6166360000000  0.5045430000000 1.0
C      1  0.5559140000000  0.4246880000000  0.4254620000000 1.0
C      1  0.5844970000000  0.4583630000000  0.5608830000000 1.0
C      1  0.5499150000000  0.3992610000000  0.4986490000000 1.0
C      1  0.5883590000000  0.5055850000000  0.4712850000000 1.0
C      1  0.4437220000000  0.5169180000000  0.5169470000000 1.0
C      1  0.4618460000000  0.4919830000000  0.6014150000000 1.0
C      1  0.4530260000000  0.5384760000000  0.4101080000000 1.0
C      1  0.5658470000000  0.4054170000000  0.4452640000000 1.0
C      1  0.5283650000000  0.5363100000000  0.5613370000000 1.0
C      1  0.5597160000000  0.5315690000000  0.4082460000000 1.0
C      1  0.5654640000000  0.4639340000000  0.5203840000000 1.0
C      1  0.5306960000000  0.4941830000000  0.5426030000000 1.0
C      1  0.4824710000000  0.5867880000000  0.6028290000000 1.0
C      1  0.6196260000000  0.5040000000000  0.5083080000000 1.0
C      1  0.4776450000000  0.5293450000000  0.5656390000000 1.0
C      1  0.5267170000000  0.4390600000000  0.4962700000000 1.0
C      1  0.5143090000000  0.4616840000000  0.5734820000000 1.0
C      1  0.4922490000000  0.5792400000000  0.4971760000000 1.0
C      1  0.4959990000000  0.4154090000000  0.5751900000000 1.0
C      1  0.4577530000000  0.5513340000000  0.4660630000000 1.0
C      1  0.4374130000000  0.4184810000000  0.5532080000000 1.0
C      1  0.5801490000000  0.5105700000000  0.5711040000000 1.0
C      1  0.5730350000000  0.4345970000000  0.5486880000000 1.0
C      1  0.5013770000000  0.3973870000000  0.4975040000000 1.0
C      1  0.4506780000000  0.6064940000000  0.4814700000000 1.0
C      1  0.5935520000000  0.5608840000000  0.5162630000000 1.0
C      1  0.4396230000000  0.4414350000000  0.5757870000000 1.0
C      1  0.5149440000000  0.4036710000000  0.4586850000000 1.0
C      1  0.4726160000000  0.5198340000000  0.4007410000000 1.0
C      1  0.5044400000000  0.4248060000000  0.4041230000000 1.0
C      1  0.4198380000000  0.5628680000000  0.5309640000000 1.0
C      1  0.4480970000000  0.4167870000000  0.5935420000000 1.0
C      1  0.5922160000000  0.5483050000000  0.5422010000000 1.0
C      1  0.4110410000000  0.5117290000000  0.4317140000000 1.0
C      1  0.5538490000000  0.5909820000000  0.4588540000000 1.0
C      1  0.5070320000000  0.5792550000000  0.5899120000000 1.0
C      1  0.4314280000000  0.4326950000000  0.4617870000000 1.0
C      1  0.5135170000000  0.4888180000000  0.3791010000000 1.0
C      1  0.4641260000000  0.5947830000000  0.5804780000000 1.0
C      1  0.5980320000000  0.5203840000000  0.5507550000000 1.0
C      1  0.5025200000000  0.5357120000000  0.4806670000000 1.0
C      1  0.4443890000000  0.4739170000000  0.4379300000000 1.0
C      1  0.5984250000000  0.5722330000000  0.4715960000000 1.0
C      1  0.5308010000000  0.4351440000000  0.4125920000000 1.0
C      1  0.4118730000000  0.5408000000000  0.5744770000000 1.0
C      1  0.4405130000000  0.4192240000000  0.5051750000000 1.0
C      1  0.5077850000000  0.5186290000000  0.4345240000000 1.0
C      1  0.5506140000000  0.4727520000000  0.5440980000000 1.0
C      1  0.4658030000000  0.5069430000000  0.4818110000000 1.0
C      1  0.5628200000000  0.5724410000000  0.4377020000000 1.0
C      1  0.5259130000000  0.3909580000000  0.4821660000000 1.0
C      1  0.6116970000000  0.4993760000000  0.5358940000000 1.0
C      1  0.4936860000000  0.5606450000000  0.6092440000000 1.0
C      1  0.4858700000000  0.4874510000000  0.4817180000000 1.0
C      1  0.4897770000000  0.4743340000000  0.3839850000000 1.0
C      1  0.5647750000000  0.4510300000000  0.4364270000000 1.0
C      1  0.4274890000000  0.5151890000000  0.5712410000000 1.0
C      1  0.4783250000000  0.5975460000000  0.5551990000000 1.0
C      1  0.4592060000000  0.5943400000000  0.4277120000000 1.0
C      1  0.5314760000000  0.4514340000000  0.5483250000000 1.0
C      1  0.4515840000000  0.5327160000000  0.5543320000000 1.0
C      1  0.4601830000000  0.4953190000000  0.5237570000000 1.0
C      1  0.4750520000000  0.5331690000000  0.4791930000000 1.0
C      1  0.6056720000000  0.4705100000000  0.5438270000000 1.0
C      1  0.5458150000000  0.5401130000000  0.4664530000000 1.0
C      1  0.5766120000000  0.4929200000000  0.4259630000000 1.0
C      1  0.4746620000000  0.3869970000000  0.5283270000000 1.0
C      1  0.4540090000000  0.4703010000000  0.5117000000000 1.0
C      1  0.5199880000000  0.6119480000000  0.4935330000000 1.0
C      1  0.3944900000000  0.5352900000000  0.5028410000000 1.0
C      1  0.3956050000000  0.4738420000000  0.4607470000000 1.0
C      1  0.4387640000000  0.5821680000000  0.5753760000000 1.0
C      1  0.4905150000000  0.4953170000000  0.4371670000000 1.0
C      1  0.4459270000000  0.5772100000000  0.4858940000000 1.0
C      1  0.4548130000000  0.6114350000000  0.4528870000000 1.0
C      1  0.6148140000000  0.4763450000000  0.5000710000000 1.0
C      1  0.4403550000000  0.4081500000000  0.4780940000000 1.0
C      1  0.5123280000000  0.4893190000000  0.5641450000000 1.0
C      1  0.3908210000000  0.4932510000000  0.4840610000000 1.0
C      1  0.5897130000000  0.5629100000000  0.4450550000000 1.0
C      1  0.4121260000000  0.5539400000000  0.4559210000000 1.0
C      1  0.4692280000000  0.4903930000000  0.3961750000000 1.0
C      1  0.5157920000000  0.5880100000000  0.5115650000000 1.0
C      1  0.4009560000000  0.5472910000000  0.5486820000000 1.0
C      1  0.5120870000000  0.5348520000000  0.5059700000000 1.0
C      1  0.6071560000000  0.4319870000000  0.4607400000000 1.0
C      1  0.5175680000000  0.5564860000000  0.4186610000000 1.0
C      1  0.5261720000000  0.5859890000000  0.5413420000000 1.0
C      1  0.3874040000000  0.4827380000000  0.5110870000000 1.0
C      1  0.5375450000000  0.5093700000000  0.6064380000000 1.0
C      1  0.5012510000000  0.5873860000000  0.4628700000000 1.0
C      1  0.5437610000000  0.5021840000000  0.4928150000000 1.0
C      1  0.5424550000000  0.4244420000000  0.5458700000000 1.0
C      1  0.4344970000000  0.5359590000000  0.4593080000000 1.0
C      1  0.5514400000000  0.5503710000000  0.4925710000000 1.0
C      1  0.5467010000000  0.5560340000000  0.4194000000000 1.0
C      1  0.5574750000000  0.5116550000000  0.4672770000000 1.0
C      1  0.5069590000000  0.4700890000000  0.4354970000000 1.0
C      1  0.4858120000000  0.4986720000000  0.5622230000000 1.0
C      1  0.5406060000000  0.5212260000000  0.5398380000000 1.0
C      1  0.5710120000000  0.5588240000000  0.5595630000000 1.0
C      1  0.3941650000000  0.5342670000000  0.4411570000000 1.0
C      1  0.5023090000000  0.5661880000000  0.4410320000000 1.0
C      1  0.4044060000000  0.5625110000000  0.5042340000000 1.0
C      1  0.4071430000000  0.5174060000000  0.4828230000000 1.0
C      1  0.4139640000000  0.4272740000000  0.5121750000000 1.0
C      1  0.4685190000000  0.4297790000000  0.5139580000000 1.0
C      1  0.5271840000000  0.4642390000000  0.4149810000000 1.0
C      1  0.4751470000000  0.5560970000000  0.4406690000000 1.0
C      1  0.6075030000000  0.4561290000000  0.5196100000000 1.0
C      1  0.6198400000000  0.5273850000000  0.4890920000000 1.0
C      1  0.4843230000000  0.4427010000000  0.5342620000000 1.0
C      1  0.4017110000000  0.4496150000000  0.5451470000000 1.0
C      1  0.4875970000000  0.4453920000000  0.3895590000000 1.0
C      1  0.4332920000000  0.5889880000000  0.5448370000000 1.0
C      1  0.4688740000000  0.4022750000000  0.5776460000000 1.0
C      1  0.4113620000000  0.4899520000000  0.5582040000000 1.0
C      1  0.5687230000000  0.4822300000000  0.5730890000000 1.0
C      1  0.5668310000000  0.5352890000000  0.5789290000000 1.0
C      1  0.5192990000000  0.5317550000000  0.4584530000000 1.0
C      1  0.4929840000000  0.6208000000000  0.4986900000000 1.0
C      1  0.5025210000000  0.5306270000000  0.4065150000000 1.0
C      1  0.4753750000000  0.3835640000000  0.4972280000000 1.0
C      1  0.4644970000000  0.3940300000000  0.4721060000000 1.0
C      1  0.4112770000000  0.4221110000000  0.5405020000000 1.0
C      1  0.5176290000000  0.4869030000000  0.4905250000000 1.0
C      1  0.4651390000000  0.4573430000000  0.5795730000000 1.0
C      1  0.5402190000000  0.5271980000000  0.5110380000000 1.0
END
