TITL C-4164236-1577-440 0.710905342014659 125000 -17144.5183821 0 0 114 (C1) n - 1
REM
REM in /home/nfs/bkarasulu/CARBON/AIRSS/Generating-Clusters/ReaxFF-fromJPCA2015/Units_Real/with-SteepDescent/Only-C1/SD-CG/Try1-3A/FIRE-CG
REM
REM
REM
REM
REM
REM ./C.cell (11c1c37f851c82e70ff6c80c92926a4b)
REM
REM compiler GCC version 9.2.1 20190827 (Red Hat 9.2.1-1)
REM options -cpp -mtune=generic -march=x86-64 -g -O0 -fpre-include=/usr/include/finclude/math-vector-fortran.h
REM seed -1319452516 -1906331189 -36796786 -1109915929 -1705164479 -1259754664 -1718343070 -1204294771 1593686988 -1770687546 1400159403 439619806 -369263143 -674002048 30897138 501098983 216428084 -1793105851 1553457597 -2060622987 -8633362 1097253679 -1513829320 -196602526 -1944900593 -1315508088 343258495 1203003330 447072251 -1815240625 1846049261 57666931 1392683680
REM
CELL 1.54180   50.00000   50.00000   50.00000   90.00000   90.00000   90.00000
LATT -1
SFAC C  
C      1  0.5322910000000  0.5756690000000  0.5363880000000 1.0
C      1  0.5279820000000  0.4940160000000  0.5352390000000 1.0
C      1  0.5881550000000  0.5193220000000  0.4894690000000 1.0
C      1  0.4518490000000  0.5236140000000  0.5253470000000 1.0
C      1  0.4825680000000  0.4884230000000  0.4167240000000 1.0
C      1  0.5391290000000  0.5535750000000  0.4479330000000 1.0
C      1  0.4674320000000  0.5071270000000  0.5429590000000 1.0
C      1  0.5176460000000  0.5554340000000  0.4099380000000 1.0
C      1  0.5445860000000  0.5460360000000  0.4182280000000 1.0
C      1  0.4569260000000  0.4124390000000  0.5031440000000 1.0
C      1  0.4840880000000  0.5908560000000  0.4683830000000 1.0
C      1  0.4612460000000  0.5232810000000  0.4996790000000 1.0
C      1  0.4587020000000  0.4707840000000  0.4221960000000 1.0
C      1  0.5141280000000  0.5887440000000  0.5173600000000 1.0
C      1  0.5603790000000  0.5522540000000  0.4691140000000 1.0
C      1  0.5581550000000  0.4594860000000  0.4900790000000 1.0
C      1  0.4502880000000  0.4657540000000  0.5151560000000 1.0
C      1  0.4434300000000  0.5168300000000  0.4306160000000 1.0
C      1  0.4533780000000  0.4277430000000  0.5467340000000 1.0
C      1  0.4779820000000  0.5202610000000  0.5683390000000 1.0
C      1  0.4365440000000  0.5314230000000  0.4571170000000 1.0
C      1  0.4963870000000  0.4428780000000  0.5000840000000 1.0
C      1  0.4140980000000  0.4895310000000  0.4762950000000 1.0
C      1  0.4600440000000  0.5418860000000  0.5653010000000 1.0
C      1  0.5706930000000  0.5088800000000  0.4425590000000 1.0
C      1  0.4607590000000  0.4679320000000  0.5755950000000 1.0
C      1  0.5418210000000  0.5254450000000  0.4995170000000 1.0
C      1  0.4438490000000  0.4898360000000  0.5860480000000 1.0
C      1  0.5655700000000  0.5368780000000  0.5369970000000 1.0
C      1  0.4445900000000  0.4332510000000  0.5197350000000 1.0
C      1  0.4160910000000  0.5375920000000  0.4803340000000 1.0
C      1  0.5204060000000  0.5246180000000  0.4529150000000 1.0
C      1  0.4998720000000  0.5302870000000  0.5183130000000 1.0
C      1  0.4349150000000  0.4901310000000  0.4212490000000 1.0
C      1  0.5532000000000  0.5175720000000  0.4209420000000 1.0
C      1  0.4460380000000  0.4231790000000  0.4796670000000 1.0
C      1  0.5218900000000  0.4958600000000  0.5848490000000 1.0
C      1  0.5051460000000  0.5219880000000  0.5810540000000 1.0
C      1  0.4590570000000  0.4653500000000  0.4865880000000 1.0
C      1  0.5273080000000  0.5376320000000  0.5705300000000 1.0
C      1  0.4652400000000  0.5470690000000  0.4863960000000 1.0
C      1  0.5579350000000  0.4698210000000  0.5735630000000 1.0
C      1  0.5767530000000  0.5286310000000  0.4642880000000 1.0
C      1  0.4104110000000  0.5160760000000  0.5230460000000 1.0
C      1  0.4482100000000  0.5701390000000  0.4910340000000 1.0
C      1  0.5097710000000  0.4170680000000  0.5038130000000 1.0
C      1  0.4937840000000  0.5501100000000  0.5381220000000 1.0
C      1  0.4788510000000  0.4461850000000  0.4786640000000 1.0
C      1  0.5473800000000  0.4344020000000  0.5346000000000 1.0
C      1  0.5270740000000  0.4604830000000  0.4246960000000 1.0
C      1  0.4722230000000  0.5708490000000  0.5377950000000 1.0
C      1  0.4812420000000  0.4196040000000  0.5429850000000 1.0
C      1  0.4688730000000  0.5913580000000  0.4936440000000 1.0
C      1  0.4844630000000  0.5083140000000  0.5030300000000 1.0
C      1  0.4283300000000  0.5423280000000  0.5274570000000 1.0
C      1  0.5695420000000  0.4801360000000  0.4492100000000 1.0
C      1  0.5164690000000  0.5596040000000  0.5547810000000 1.0
C      1  0.4980310000000  0.4623170000000  0.5215130000000 1.0
C      1  0.4880340000000  0.5235810000000  0.4508760000000 1.0
C      1  0.4203040000000  0.5009390000000  0.5711710000000 1.0
C      1  0.4393490000000  0.5053380000000  0.4720870000000 1.0
C      1  0.5511760000000  0.4589720000000  0.4405030000000 1.0
C      1  0.5383700000000  0.4214280000000  0.5082950000000 1.0
C      1  0.5352310000000  0.4518070000000  0.5807910000000 1.0
C      1  0.5288280000000  0.5848370000000  0.4927800000000 1.0
C      1  0.4065730000000  0.5137980000000  0.4948110000000 1.0
C      1  0.5516440000000  0.4325110000000  0.4854040000000 1.0
C      1  0.5138340000000  0.5921390000000  0.4689010000000 1.0
C      1  0.5115840000000  0.4372440000000  0.4346080000000 1.0
C      1  0.5943000000000  0.4867900000000  0.5209450000000 1.0
C      1  0.4468640000000  0.5592720000000  0.5477910000000 1.0
C      1  0.4293870000000  0.4696010000000  0.5361240000000 1.0
C      1  0.4606850000000  0.4517380000000  0.4437400000000 1.0
C      1  0.5237400000000  0.4757630000000  0.5131240000000 1.0
C      1  0.4842880000000  0.5893040000000  0.5180390000000 1.0
C      1  0.5262950000000  0.5197860000000  0.5222290000000 1.0
C      1  0.4921360000000  0.4662710000000  0.5702310000000 1.0
C      1  0.4866090000000  0.4997340000000  0.4709740000000 1.0
C      1  0.5517580000000  0.4986080000000  0.5744280000000 1.0
C      1  0.5282160000000  0.4361290000000  0.5567520000000 1.0
C      1  0.5042920000000  0.4783710000000  0.4651590000000 1.0
C      1  0.5128490000000  0.4670530000000  0.5916340000000 1.0
C      1  0.5551140000000  0.5611270000000  0.5244360000000 1.0
C      1  0.4766810000000  0.4853120000000  0.5241180000000 1.0
C      1  0.4726490000000  0.5137190000000  0.4265200000000 1.0
C      1  0.5788850000000  0.4736350000000  0.4758720000000 1.0
C      1  0.5273980000000  0.4168820000000  0.4448120000000 1.0
C      1  0.4157030000000  0.4947880000000  0.5422730000000 1.0
C      1  0.5116850000000  0.4848980000000  0.4186560000000 1.0
C      1  0.4611320000000  0.4884490000000  0.4705560000000 1.0
C      1  0.5091960000000  0.4892840000000  0.5572050000000 1.0
C      1  0.5231670000000  0.5797120000000  0.4446010000000 1.0
C      1  0.5319960000000  0.5113210000000  0.4770130000000 1.0
C      1  0.4165150000000  0.4618710000000  0.4700090000000 1.0
C      1  0.5883090000000  0.4657950000000  0.5406690000000 1.0
C      1  0.5003690000000  0.5736670000000  0.4272550000000 1.0
C      1  0.5669730000000  0.4837110000000  0.5302020000000 1.0
C      1  0.5501820000000  0.4640030000000  0.5168170000000 1.0
C      1  0.5954400000000  0.4911760000000  0.4919450000000 1.0
C      1  0.4371770000000  0.4416540000000  0.4596360000000 1.0
C      1  0.5681670000000  0.5243460000000  0.5105440000000 1.0
C      1  0.5507720000000  0.5643920000000  0.4943410000000 1.0
C      1  0.5683830000000  0.4498100000000  0.5545570000000 1.0
C      1  0.5268890000000  0.4834410000000  0.4815940000000 1.0
C      1  0.4908720000000  0.4535180000000  0.4546260000000 1.0
C      1  0.4431340000000  0.4535100000000  0.5573440000000 1.0
C      1  0.5530270000000  0.5244220000000  0.5615800000000 1.0
C      1  0.4848840000000  0.4074230000000  0.5168340000000 1.0
C      1  0.4783850000000  0.5723020000000  0.4469140000000 1.0
C      1  0.5260180000000  0.5088410000000  0.4276090000000 1.0
C      1  0.5484400000000  0.4324540000000  0.4557320000000 1.0
C      1  0.4999620000000  0.4425660000000  0.5485940000000 1.0
C      1  0.4240320000000  0.5567180000000  0.5001180000000 1.0
C      1  0.4689180000000  0.5459500000000  0.4582710000000 1.0
END
