TITL C-4164233-775-268 32.800695875273 125000 -27746.731148523 0 0 183 (C1) n - 1
REM
REM in /home/nfs/bkarasulu/CARBON/AIRSS/Generating-Clusters/ReaxFF-fromJPCA2015/Units_Real/with-SteepDescent/Only-C1/SD-CG/Try1-3A/FIRE-CG
REM
REM
REM
REM
REM
REM ./C.cell (11c1c37f851c82e70ff6c80c92926a4b)
REM
REM compiler GCC version 9.2.1 20190827 (Red Hat 9.2.1-1)
REM options -cpp -mtune=generic -march=x86-64 -g -O0 -fpre-include=/usr/include/finclude/math-vector-fortran.h
REM seed 1851592591 -738556650 -1593429144 -1821264948 482831556 1466404916 951198344 1252212422 -1964512551 935885265 -1436025854 -1296077740 -903811687 2118649394 -770202786 -1084945224 -794693106 638635989 -540501469 304163608 -2060182 -353030250 -1081063513 1653731494 -634192414 324115236 651790038 -1976287385 199274871 1891596302 -2128837706 -1433177653 1666741269
REM
CELL 1.54180   50.00000   50.00000   50.00000   90.00000   90.00000   90.00000
LATT -1
SFAC C  
C      1  0.5992080000000  0.5241560000000  0.4600070000000 1.0
C      1  0.5445070000000  0.5319820000000  0.4801060000000 1.0
C      1  0.5224050000000  0.4133770000000  0.4786490000000 1.0
C      1  0.5279220000000  0.5835170000000  0.5746710000000 1.0
C      1  0.5246150000000  0.4743390000000  0.5990570000000 1.0
C      1  0.3954880000000  0.4612590000000  0.4814500000000 1.0
C      1  0.5016820000000  0.5680970000000  0.4211060000000 1.0
C      1  0.5845620000000  0.5863040000000  0.5107200000000 1.0
C      1  0.4212490000000  0.4869800000000  0.4261900000000 1.0
C      1  0.4566210000000  0.4927060000000  0.3932120000000 1.0
C      1  0.3934310000000  0.5424440000000  0.5204190000000 1.0
C      1  0.4088230000000  0.5134540000000  0.4908180000000 1.0
C      1  0.4046800000000  0.5001520000000  0.4472350000000 1.0
C      1  0.5031860000000  0.4984930000000  0.3946520000000 1.0
C      1  0.4671450000000  0.6024120000000  0.5030330000000 1.0
C      1  0.4036950000000  0.4441560000000  0.5037510000000 1.0
C      1  0.5809720000000  0.4651240000000  0.4680410000000 1.0
C      1  0.4508940000000  0.5557150000000  0.5798650000000 1.0
C      1  0.4440080000000  0.5944960000000  0.5425580000000 1.0
C      1  0.4532420000000  0.4760260000000  0.4854740000000 1.0
C      1  0.5307080000000  0.5152160000000  0.4599060000000 1.0
C      1  0.4742730000000  0.5153030000000  0.5105400000000 1.0
C      1  0.4709410000000  0.4935890000000  0.5285930000000 1.0
C      1  0.4121810000000  0.4532150000000  0.4590280000000 1.0
C      1  0.4755260000000  0.5672180000000  0.4363120000000 1.0
C      1  0.4815780000000  0.5597790000000  0.5805840000000 1.0
C      1  0.4968450000000  0.4260480000000  0.4709490000000 1.0
C      1  0.5246620000000  0.5817400000000  0.4319670000000 1.0
C      1  0.5640830000000  0.5062700000000  0.5983080000000 1.0
C      1  0.5593020000000  0.4385870000000  0.5276140000000 1.0
C      1  0.4557280000000  0.5373180000000  0.5121170000000 1.0
C      1  0.5018930000000  0.4719590000000  0.4970780000000 1.0
C      1  0.5001970000000  0.4708310000000  0.4017630000000 1.0
C      1  0.4679080000000  0.4080440000000  0.4317810000000 1.0
C      1  0.4665530000000  0.4636360000000  0.4322360000000 1.0
C      1  0.5757260000000  0.5147810000000  0.4445350000000 1.0
C      1  0.4932510000000  0.4516820000000  0.4594550000000 1.0
C      1  0.5193710000000  0.5081090000000  0.5176370000000 1.0
C      1  0.4880470000000  0.5149420000000  0.4850750000000 1.0
C      1  0.5891800000000  0.5541610000000  0.5459580000000 1.0
C      1  0.3991780000000  0.4960600000000  0.5401410000000 1.0
C      1  0.5641190000000  0.4943370000000  0.5076770000000 1.0
C      1  0.4367310000000  0.4541630000000  0.4749570000000 1.0
C      1  0.4458930000000  0.4828680000000  0.5200550000000 1.0
C      1  0.5158690000000  0.4641020000000  0.4484370000000 1.0
C      1  0.3971250000000  0.4681620000000  0.5520220000000 1.0
C      1  0.4959700000000  0.5404860000000  0.6030940000000 1.0
C      1  0.4158090000000  0.4605720000000  0.5713030000000 1.0
C      1  0.4972030000000  0.5962650000000  0.5439380000000 1.0
C      1  0.4939320000000  0.5139000000000  0.5670860000000 1.0
C      1  0.4007780000000  0.5291710000000  0.4501820000000 1.0
C      1  0.4632660000000  0.5023910000000  0.4667340000000 1.0
C      1  0.5613200000000  0.4126950000000  0.5138210000000 1.0
C      1  0.3966220000000  0.5579640000000  0.4974620000000 1.0
C      1  0.5737270000000  0.4189480000000  0.4709640000000 1.0
C      1  0.5017020000000  0.4664850000000  0.5539080000000 1.0
C      1  0.5177810000000  0.4101670000000  0.5688710000000 1.0
C      1  0.5917820000000  0.5511820000000  0.4680740000000 1.0
C      1  0.4873580000000  0.4457930000000  0.5392560000000 1.0
C      1  0.5445380000000  0.5409560000000  0.5386670000000 1.0
C      1  0.5315200000000  0.5254860000000  0.4323940000000 1.0
C      1  0.5249380000000  0.5999210000000  0.5326010000000 1.0
C      1  0.4335950000000  0.5290080000000  0.4884790000000 1.0
C      1  0.5858190000000  0.4965730000000  0.4089820000000 1.0
C      1  0.5645960000000  0.5478260000000  0.5955110000000 1.0
C      1  0.4773810000000  0.4188070000000  0.5832010000000 1.0
C      1  0.4941720000000  0.3971310000000  0.5681490000000 1.0
C      1  0.4796800000000  0.4637050000000  0.4814360000000 1.0
C      1  0.4751740000000  0.5393900000000  0.3905510000000 1.0
C      1  0.5469570000000  0.5893680000000  0.4862650000000 1.0
C      1  0.5776730000000  0.5246410000000  0.4172550000000 1.0
C      1  0.4713760000000  0.4682780000000  0.4025300000000 1.0
C      1  0.4897760000000  0.4417850000000  0.5957700000000 1.0
C      1  0.4775720000000  0.5106670000000  0.3853680000000 1.0
C      1  0.5555330000000  0.4437710000000  0.5569550000000 1.0
C      1  0.4265250000000  0.5013480000000  0.5340580000000 1.0
C      1  0.5482050000000  0.4554070000000  0.4129220000000 1.0
C      1  0.4500650000000  0.4237410000000  0.5754780000000 1.0
C      1  0.5510560000000  0.4816610000000  0.5898750000000 1.0
C      1  0.4771440000000  0.3808810000000  0.5201850000000 1.0
C      1  0.4204050000000  0.5773080000000  0.4963770000000 1.0
C      1  0.5250810000000  0.4885660000000  0.5385950000000 1.0
C      1  0.5460720000000  0.4540270000000  0.5054720000000 1.0
C      1  0.4298990000000  0.5336870000000  0.4109000000000 1.0
C      1  0.5596570000000  0.4712380000000  0.5632750000000 1.0
C      1  0.4838960000000  0.6079080000000  0.4591810000000 1.0
C      1  0.6105980000000  0.4814470000000  0.5267330000000 1.0
C      1  0.4721100000000  0.6033520000000  0.5296780000000 1.0
C      1  0.6118240000000  0.5056290000000  0.4781400000000 1.0
C      1  0.4368490000000  0.4616280000000  0.4262760000000 1.0
C      1  0.4289020000000  0.4320100000000  0.4935000000000 1.0
C      1  0.5533220000000  0.5415670000000  0.4190650000000 1.0
C      1  0.4958370000000  0.5513920000000  0.5284840000000 1.0
C      1  0.4389410000000  0.5266020000000  0.5807170000000 1.0
C      1  0.6099270000000  0.5090440000000  0.5337850000000 1.0
C      1  0.5910110000000  0.5398960000000  0.4980290000000 1.0
C      1  0.5215890000000  0.5059100000000  0.5617380000000 1.0
C      1  0.5056370000000  0.4329140000000  0.5234700000000 1.0
C      1  0.4368590000000  0.4499360000000  0.5851810000000 1.0
C      1  0.4894520000000  0.5490170000000  0.4810480000000 1.0
C      1  0.5588220000000  0.4907010000000  0.4417240000000 1.0
C      1  0.4095920000000  0.4504660000000  0.5314680000000 1.0
C      1  0.5754190000000  0.5233270000000  0.5761910000000 1.0
C      1  0.5464520000000  0.5659950000000  0.5858830000000 1.0
C      1  0.4787700000000  0.4666800000000  0.6051330000000 1.0
C      1  0.4533370000000  0.3988580000000  0.5238720000000 1.0
C      1  0.5155410000000  0.4195000000000  0.4254540000000 1.0
C      1  0.5075010000000  0.4982000000000  0.4959510000000 1.0
C      1  0.4467210000000  0.4157110000000  0.5475490000000 1.0
C      1  0.5567150000000  0.4736110000000  0.4854530000000 1.0
C      1  0.5960490000000  0.4466030000000  0.5099390000000 1.0
C      1  0.5167690000000  0.5220060000000  0.4071980000000 1.0
C      1  0.4998890000000  0.4868730000000  0.6078750000000 1.0
C      1  0.5619530000000  0.4353890000000  0.4280530000000 1.0
C      1  0.4489260000000  0.5301040000000  0.4642050000000 1.0
C      1  0.4172890000000  0.5470850000000  0.4342710000000 1.0
C      1  0.5487410000000  0.5165410000000  0.5558340000000 1.0
C      1  0.5544790000000  0.4903040000000  0.5406290000000 1.0
C      1  0.5467650000000  0.4089950000000  0.4630740000000 1.0
C      1  0.6097990000000  0.5167560000000  0.5048700000000 1.0
C      1  0.5678150000000  0.6051440000000  0.5017460000000 1.0
C      1  0.5220480000000  0.5351870000000  0.6104830000000 1.0
C      1  0.6030240000000  0.4828290000000  0.4597620000000 1.0
C      1  0.5448400000000  0.5882420000000  0.5503360000000 1.0
C      1  0.4487650000000  0.4124510000000  0.4990230000000 1.0
C      1  0.4452480000000  0.5013640000000  0.5903170000000 1.0
C      1  0.5185780000000  0.4519900000000  0.5077800000000 1.0
C      1  0.4295000000000  0.5827270000000  0.5224880000000 1.0
C      1  0.5611360000000  0.5641770000000  0.5427920000000 1.0
C      1  0.5012840000000  0.5464260000000  0.4011940000000 1.0
C      1  0.4537890000000  0.5377520000000  0.5401310000000 1.0
C      1  0.5111880000000  0.6035400000000  0.4465310000000 1.0
C      1  0.5375530000000  0.5612750000000  0.4836390000000 1.0
C      1  0.4805960000000  0.5415370000000  0.5521370000000 1.0
C      1  0.4004580000000  0.4898060000000  0.4744990000000 1.0
C      1  0.4319730000000  0.5242950000000  0.5515650000000 1.0
C      1  0.4587700000000  0.4410110000000  0.5382340000000 1.0
C      1  0.4601430000000  0.6003070000000  0.4760700000000 1.0
C      1  0.3928240000000  0.5238630000000  0.5402010000000 1.0
C      1  0.4899710000000  0.5127140000000  0.5982280000000 1.0
C      1  0.5789090000000  0.4404510000000  0.4524380000000 1.0
C      1  0.5350470000000  0.4309160000000  0.5740650000000 1.0
C      1  0.5909310000000  0.4738300000000  0.5110500000000 1.0
C      1  0.5348410000000  0.4036090000000  0.5036540000000 1.0
C      1  0.5142190000000  0.4525420000000  0.5827190000000 1.0
C      1  0.5060870000000  0.5977370000000  0.4743750000000 1.0
C      1  0.5494460000000  0.5284120000000  0.6125150000000 1.0
C      1  0.5524720000000  0.5686510000000  0.4324950000000 1.0
C      1  0.5113750000000  0.5687030000000  0.4801120000000 1.0
C      1  0.4813890000000  0.3880890000000  0.4652130000000 1.0
C      1  0.5423860000000  0.4143960000000  0.4341620000000 1.0
C      1  0.4948900000000  0.4027770000000  0.4346180000000 1.0
C      1  0.4261660000000  0.4369250000000  0.4385320000000 1.0
C      1  0.5185200000000  0.4528150000000  0.4210610000000 1.0
C      1  0.4844310000000  0.4902170000000  0.5536980000000 1.0
C      1  0.5350200000000  0.4840740000000  0.4598330000000 1.0
C      1  0.4983080000000  0.5819990000000  0.5690920000000 1.0
C      1  0.5151780000000  0.4067310000000  0.5254980000000 1.0
C      1  0.5595540000000  0.4819590000000  0.4141530000000 1.0
C      1  0.4353620000000  0.5836660000000  0.4709320000000 1.0
C      1  0.4334100000000  0.5045630000000  0.4069080000000 1.0
C      1  0.5721480000000  0.5622450000000  0.4512950000000 1.0
C      1  0.4419680000000  0.5729890000000  0.5601960000000 1.0
C      1  0.5955900000000  0.5272230000000  0.5541110000000 1.0
C      1  0.4981140000000  0.3875690000000  0.5400770000000 1.0
C      1  0.4500790000000  0.5720390000000  0.4227400000000 1.0
C      1  0.4678140000000  0.4139060000000  0.4728800000000 1.0
C      1  0.4820850000000  0.3801670000000  0.4919570000000 1.0
C      1  0.5969580000000  0.5636930000000  0.5189730000000 1.0
C      1  0.4776770000000  0.5549550000000  0.5064890000000 1.0
C      1  0.4512720000000  0.4742710000000  0.5971830000000 1.0
C      1  0.4301130000000  0.5721200000000  0.4446440000000 1.0
C      1  0.5374990000000  0.6068470000000  0.5073110000000 1.0
C      1  0.4385400000000  0.4580030000000  0.5317760000000 1.0
C      1  0.5206770000000  0.5368690000000  0.5227870000000 1.0
C      1  0.4503940000000  0.5511760000000  0.4013830000000 1.0
C      1  0.5652400000000  0.5217870000000  0.4975850000000 1.0
C      1  0.5854970000000  0.4216330000000  0.4986970000000 1.0
C      1  0.4740080000000  0.4912340000000  0.4413250000000 1.0
C      1  0.4694460000000  0.5502010000000  0.4587140000000 1.0
C      1  0.4476700000000  0.4181630000000  0.4457480000000 1.0
C      1  0.3928140000000  0.5355610000000  0.4784730000000 1.0
C      1  0.6038040000000  0.4871870000000  0.4300450000000 1.0
END
