TITL C-4164244-2836-38 -6.68297642718603 125000 -4024.86798730737 0 0 28 (C1) n - 1
REM
REM in /home/nfs/bkarasulu/CARBON/AIRSS/Generating-Clusters/ReaxFF-fromJPCA2015/Units_Real/with-SteepDescent/Only-C1/SD-CG/Try1-3A/FIRE-CG
REM
REM
REM
REM
REM
REM ./C.cell (11c1c37f851c82e70ff6c80c92926a4b)
REM
REM compiler GCC version 9.2.1 20190827 (Red Hat 9.2.1-1)
REM options -cpp -mtune=generic -march=x86-64 -g -O0 -fpre-include=/usr/include/finclude/math-vector-fortran.h
REM seed -1225771289 1749082569 838379287 -1558079387 -958653390 1362839703 595918122 -1452076803 1356773433 2034788492 1368660092 -468297989 -1023135154 202338891 1853575613 1087935666 1961002141 270946762 -1826363710 400536698 -72405218 1809051283 -1237942317 -186774096 847310508 1783382213 -838664209 -1533932623 -1444643131 1070691711 842040144 -336438610 -2079327445
REM
CELL 1.54180   50.00000   50.00000   50.00000   90.00000   90.00000   90.00000
LATT -1
SFAC C  
C      1  0.4840890000000  0.4705210000000  0.4491450000000 1.0
C      1  0.5024880000000  0.5057510000000  0.4632770000000 1.0
C      1  0.5294330000000  0.5487260000000  0.4687860000000 1.0
C      1  0.5240960000000  0.4743270000000  0.5068470000000 1.0
C      1  0.4723960000000  0.5205780000000  0.5264530000000 1.0
C      1  0.4862210000000  0.5427820000000  0.5129060000000 1.0
C      1  0.4733600000000  0.4892690000000  0.4711540000000 1.0
C      1  0.4608380000000  0.5170050000000  0.4790860000000 1.0
C      1  0.4478830000000  0.4711190000000  0.5150870000000 1.0
C      1  0.5485450000000  0.5441920000000  0.4902170000000 1.0
C      1  0.5130580000000  0.4544100000000  0.4874390000000 1.0
C      1  0.4778010000000  0.4570140000000  0.5498720000000 1.0
C      1  0.4603720000000  0.4778380000000  0.5426440000000 1.0
C      1  0.5409370000000  0.5511310000000  0.5194130000000 1.0
C      1  0.5120710000000  0.4645680000000  0.4593910000000 1.0
C      1  0.5550350000000  0.5161100000000  0.4998130000000 1.0
C      1  0.5026800000000  0.5344110000000  0.4657970000000 1.0
C      1  0.4490250000000  0.5186030000000  0.5063740000000 1.0
C      1  0.5074560000000  0.4786900000000  0.5313530000000 1.0
C      1  0.5267180000000  0.4901490000000  0.4638810000000 1.0
C      1  0.4891440000000  0.4485330000000  0.5020620000000 1.0
C      1  0.4981910000000  0.4504210000000  0.5313770000000 1.0
C      1  0.4795840000000  0.5389400000000  0.4837680000000 1.0
C      1  0.5401510000000  0.4924070000000  0.4901410000000 1.0
C      1  0.5551160000000  0.5254810000000  0.5286420000000 1.0
C      1  0.5117870000000  0.5538430000000  0.5227490000000 1.0
C      1  0.4837480000000  0.4960190000000  0.5380690000000 1.0
C      1  0.4677760000000  0.4671640000000  0.4942580000000 1.0
END
