TITL C-4164238-4211-27 23.937150026463 125000 -15269.7565199965 0 0 103 (C1) n - 1
REM
REM in /home/nfs/bkarasulu/CARBON/AIRSS/Generating-Clusters/ReaxFF-fromJPCA2015/Units_Real/with-SteepDescent/Only-C1/SD-CG/Try1-3A/FIRE-CG
REM
REM
REM
REM
REM
REM ./C.cell (11c1c37f851c82e70ff6c80c92926a4b)
REM
REM compiler GCC version 9.2.1 20190827 (Red Hat 9.2.1-1)
REM options -cpp -mtune=generic -march=x86-64 -g -O0 -fpre-include=/usr/include/finclude/math-vector-fortran.h
REM seed -1441639546 1517736100 75749306 -164094709 1027129008 1239941135 2135280854 609377785 1272098277 2142178499 885788635 654391462 1465309 -850025046 -232409374 -431574602 163713319 1946120500 14833446 649264236 -1120346253 1143272466 1351578334 2126817935 -1178975566 -29739133 -681245753 -610320426 839430499 -2003559557 1795401617 -1793144464 -531439086
REM
CELL 1.54180   50.00000   50.00000   50.00000   90.00000   90.00000   90.00000
LATT -1
SFAC C  
C      1  0.4186190000000  0.5327180000000  0.4993570000000 1.0
C      1  0.4814990000000  0.5765340000000  0.5110310000000 1.0
C      1  0.5651210000000  0.4464030000000  0.5256680000000 1.0
C      1  0.4337270000000  0.4431890000000  0.5117560000000 1.0
C      1  0.5470050000000  0.5262650000000  0.4975870000000 1.0
C      1  0.4586630000000  0.4075800000000  0.4859670000000 1.0
C      1  0.5412330000000  0.4331700000000  0.5365060000000 1.0
C      1  0.5705470000000  0.4502570000000  0.4965310000000 1.0
C      1  0.5213910000000  0.5696250000000  0.4956700000000 1.0
C      1  0.4724740000000  0.4208400000000  0.5347770000000 1.0
C      1  0.5410780000000  0.5492770000000  0.5687690000000 1.0
C      1  0.5419590000000  0.5717840000000  0.5485010000000 1.0
C      1  0.5065280000000  0.4814420000000  0.5929800000000 1.0
C      1  0.4908450000000  0.5426060000000  0.5554340000000 1.0
C      1  0.5484860000000  0.4377310000000  0.4807260000000 1.0
C      1  0.5451800000000  0.5643170000000  0.4795920000000 1.0
C      1  0.5154800000000  0.5647440000000  0.4430750000000 1.0
C      1  0.5017510000000  0.5417730000000  0.4889280000000 1.0
C      1  0.4386600000000  0.4293750000000  0.4860390000000 1.0
C      1  0.4702520000000  0.5147180000000  0.5201020000000 1.0
C      1  0.5161880000000  0.4984800000000  0.5357800000000 1.0
C      1  0.4623590000000  0.5322560000000  0.5679840000000 1.0
C      1  0.4974180000000  0.4380430000000  0.4449180000000 1.0
C      1  0.4458320000000  0.5353100000000  0.5460950000000 1.0
C      1  0.5214060000000  0.5738370000000  0.5279570000000 1.0
C      1  0.4862940000000  0.4865660000000  0.4236080000000 1.0
C      1  0.5249880000000  0.4479140000000  0.5578710000000 1.0
C      1  0.4554490000000  0.4427700000000  0.4674510000000 1.0
C      1  0.5141290000000  0.5425110000000  0.5759430000000 1.0
C      1  0.4344950000000  0.4879190000000  0.5580610000000 1.0
C      1  0.4464980000000  0.5383380000000  0.5175180000000 1.0
C      1  0.5835790000000  0.4739140000000  0.4831880000000 1.0
C      1  0.4366570000000  0.4821620000000  0.4481910000000 1.0
C      1  0.4414150000000  0.4570930000000  0.4554030000000 1.0
C      1  0.4587820000000  0.4988190000000  0.4371290000000 1.0
C      1  0.4852050000000  0.4735390000000  0.5580380000000 1.0
C      1  0.5185290000000  0.5234820000000  0.5022020000000 1.0
C      1  0.4163270000000  0.5231770000000  0.4680230000000 1.0
C      1  0.4557100000000  0.5041950000000  0.5726500000000 1.0
C      1  0.4934950000000  0.5176490000000  0.5363350000000 1.0
C      1  0.4694830000000  0.4281420000000  0.4465150000000 1.0
C      1  0.5403590000000  0.4821170000000  0.4977890000000 1.0
C      1  0.4609860000000  0.5523300000000  0.4280010000000 1.0
C      1  0.4982820000000  0.4672340000000  0.4414710000000 1.0
C      1  0.5457300000000  0.5037680000000  0.4802060000000 1.0
C      1  0.4192450000000  0.4911610000000  0.5333850000000 1.0
C      1  0.5311570000000  0.4630730000000  0.5817050000000 1.0
C      1  0.5654100000000  0.4696400000000  0.5432370000000 1.0
C      1  0.4173970000000  0.4941430000000  0.4650800000000 1.0
C      1  0.5633800000000  0.5700000000000  0.5305630000000 1.0
C      1  0.4767730000000  0.5086980000000  0.4600350000000 1.0
C      1  0.5248170000000  0.4223360000000  0.4887660000000 1.0
C      1  0.5778610000000  0.5142950000000  0.4518410000000 1.0
C      1  0.5215160000000  0.4209920000000  0.5189620000000 1.0
C      1  0.4948270000000  0.5681430000000  0.5353800000000 1.0
C      1  0.4306390000000  0.5333840000000  0.4470620000000 1.0
C      1  0.5591020000000  0.5022160000000  0.5692510000000 1.0
C      1  0.4440370000000  0.4601110000000  0.5546330000000 1.0
C      1  0.5149720000000  0.4941580000000  0.5065510000000 1.0
C      1  0.4306440000000  0.4731380000000  0.5104600000000 1.0
C      1  0.4939010000000  0.5755410000000  0.4593610000000 1.0
C      1  0.4823590000000  0.5500960000000  0.4095720000000 1.0
C      1  0.5078160000000  0.5045810000000  0.4181000000000 1.0
C      1  0.4978990000000  0.4878100000000  0.4647550000000 1.0
C      1  0.4985000000000  0.5831530000000  0.4869080000000 1.0
C      1  0.4664910000000  0.4707050000000  0.5390960000000 1.0
C      1  0.5005550000000  0.4232580000000  0.5387960000000 1.0
C      1  0.4776580000000  0.4189600000000  0.5051150000000 1.0
C      1  0.5021940000000  0.5300460000000  0.4059760000000 1.0
C      1  0.5529070000000  0.5278830000000  0.4432470000000 1.0
C      1  0.4813030000000  0.5348610000000  0.4700790000000 1.0
C      1  0.4104520000000  0.4869450000000  0.4925310000000 1.0
C      1  0.5103170000000  0.4726060000000  0.5476130000000 1.0
C      1  0.5357380000000  0.5032050000000  0.4342980000000 1.0
C      1  0.5012420000000  0.4938090000000  0.6142680000000 1.0
C      1  0.4175680000000  0.5618150000000  0.4855640000000 1.0
C      1  0.5630490000000  0.5283440000000  0.5625020000000 1.0
C      1  0.4455030000000  0.4360800000000  0.5371590000000 1.0
C      1  0.5048590000000  0.4198640000000  0.4672360000000 1.0
C      1  0.5792130000000  0.5060880000000  0.5225980000000 1.0
C      1  0.5929680000000  0.5142560000000  0.4755640000000 1.0
C      1  0.5564960000000  0.4749390000000  0.5726130000000 1.0
C      1  0.5506920000000  0.4759930000000  0.4461670000000 1.0
C      1  0.4882840000000  0.4751130000000  0.4957350000000 1.0
C      1  0.4468240000000  0.5269290000000  0.4268960000000 1.0
C      1  0.4782640000000  0.4865770000000  0.5812930000000 1.0
C      1  0.5648600000000  0.5495620000000  0.4948240000000 1.0
C      1  0.4784920000000  0.4061420000000  0.4643930000000 1.0
C      1  0.5406980000000  0.4636450000000  0.4701310000000 1.0
C      1  0.4449790000000  0.5699210000000  0.4789300000000 1.0
C      1  0.4632930000000  0.4866650000000  0.5138000000000 1.0
C      1  0.5084000000000  0.5562720000000  0.4161330000000 1.0
C      1  0.5943490000000  0.4974060000000  0.4981470000000 1.0
C      1  0.4678810000000  0.5609050000000  0.4566700000000 1.0
C      1  0.5238100000000  0.5040150000000  0.4615080000000 1.0
C      1  0.4551650000000  0.5666900000000  0.5058510000000 1.0
C      1  0.5772530000000  0.4829130000000  0.4553510000000 1.0
C      1  0.4074700000000  0.5083600000000  0.5123500000000 1.0
C      1  0.5776180000000  0.5546540000000  0.5200430000000 1.0
C      1  0.5406750000000  0.5530780000000  0.4533610000000 1.0
C      1  0.4861480000000  0.4474210000000  0.4993370000000 1.0
C      1  0.5788890000000  0.5315240000000  0.5370100000000 1.0
C      1  0.5551020000000  0.4899670000000  0.5248860000000 1.0
END
