TITL C-4164247-2821-373 22.3133390555484 125000 -29318.2799968598 0 0 198 (C1) n - 1
REM
REM in /home/nfs/bkarasulu/CARBON/AIRSS/Generating-Clusters/ReaxFF-fromJPCA2015/Units_Real/with-SteepDescent/Only-C1/SD-CG/Try1-3A/FIRE-CG
REM
REM
REM
REM
REM
REM ./C.cell (11c1c37f851c82e70ff6c80c92926a4b)
REM
REM compiler GCC version 9.2.1 20190827 (Red Hat 9.2.1-1)
REM options -cpp -mtune=generic -march=x86-64 -g -O0 -fpre-include=/usr/include/finclude/math-vector-fortran.h
REM seed -451209570 -907637123 -1555976341 -1405094895 -1504588683 823314825 -1154064204 -1886106957 937198204 210255420 -689118829 -539738107 -742836754 1741172575 -587109805 -762617792 -1772071046 381368458 248826168 724809861 -1571020299 830840055 -1863682849 922939770 1428526420 -689838884 -751355732 -968633304 652806848 -993330413 1325364719 -2111002990 -240681679
REM
CELL 1.54180   50.00000   50.00000   50.00000   90.00000   90.00000   90.00000
LATT -1
SFAC C  
C      1  0.4231630000000  0.4921890000000  0.4013490000000 1.0
C      1  0.4765190000000  0.4828000000000  0.3902020000000 1.0
C      1  0.6199650000000  0.4783800000000  0.5456260000000 1.0
C      1  0.5169310000000  0.4162030000000  0.5703110000000 1.0
C      1  0.4162550000000  0.4139580000000  0.5207760000000 1.0
C      1  0.4683270000000  0.4598230000000  0.5246900000000 1.0
C      1  0.5193790000000  0.4234700000000  0.5007510000000 1.0
C      1  0.4349470000000  0.5103230000000  0.4451440000000 1.0
C      1  0.4978840000000  0.4161580000000  0.4273570000000 1.0
C      1  0.3895910000000  0.4480830000000  0.4746870000000 1.0
C      1  0.4803540000000  0.4348660000000  0.4122040000000 1.0
C      1  0.4940770000000  0.4821720000000  0.6073810000000 1.0
C      1  0.5571840000000  0.4886080000000  0.4141190000000 1.0
C      1  0.4629400000000  0.4516000000000  0.4476520000000 1.0
C      1  0.5451980000000  0.5887310000000  0.5554650000000 1.0
C      1  0.4583910000000  0.5179080000000  0.6053920000000 1.0
C      1  0.4571370000000  0.5854660000000  0.5050140000000 1.0
C      1  0.4900860000000  0.4562030000000  0.3950200000000 1.0
C      1  0.4377870000000  0.4429500000000  0.4941140000000 1.0
C      1  0.5428330000000  0.5179080000000  0.5378550000000 1.0
C      1  0.5675270000000  0.4864190000000  0.5342590000000 1.0
C      1  0.5711030000000  0.5058100000000  0.4405980000000 1.0
C      1  0.5621130000000  0.5634430000000  0.4461180000000 1.0
C      1  0.4711850000000  0.5487270000000  0.5524180000000 1.0
C      1  0.4561400000000  0.5277650000000  0.3977080000000 1.0
C      1  0.5922060000000  0.4874140000000  0.4513540000000 1.0
C      1  0.4160950000000  0.5144350000000  0.4245160000000 1.0
C      1  0.5214160000000  0.5039970000000  0.4519940000000 1.0
C      1  0.6103810000000  0.5208810000000  0.4881770000000 1.0
C      1  0.5783200000000  0.4180070000000  0.4792830000000 1.0
C      1  0.4581220000000  0.3990290000000  0.4553390000000 1.0
C      1  0.6232480000000  0.4895350000000  0.5192330000000 1.0
C      1  0.4213720000000  0.5678960000000  0.4848180000000 1.0
C      1  0.5219830000000  0.4913930000000  0.3832800000000 1.0
C      1  0.5247800000000  0.5474920000000  0.4648970000000 1.0
C      1  0.4101900000000  0.4699540000000  0.4422160000000 1.0
C      1  0.4255440000000  0.4842450000000  0.5342180000000 1.0
C      1  0.5511250000000  0.4098410000000  0.5313010000000 1.0
C      1  0.5069780000000  0.5291820000000  0.5733880000000 1.0
C      1  0.5270920000000  0.4572490000000  0.5312690000000 1.0
C      1  0.4259800000000  0.4795350000000  0.5624190000000 1.0
C      1  0.6092170000000  0.4949530000000  0.4742640000000 1.0
C      1  0.4485150000000  0.6015170000000  0.4592950000000 1.0
C      1  0.5866520000000  0.4594030000000  0.4474480000000 1.0
C      1  0.4988460000000  0.5549180000000  0.4729420000000 1.0
C      1  0.4363300000000  0.5931410000000  0.4847610000000 1.0
C      1  0.5799060000000  0.5291850000000  0.5847260000000 1.0
C      1  0.4985420000000  0.4397060000000  0.5828030000000 1.0
C      1  0.5279420000000  0.5228400000000  0.5117220000000 1.0
C      1  0.5024170000000  0.4605030000000  0.5607100000000 1.0
C      1  0.5432730000000  0.4630350000000  0.4085830000000 1.0
C      1  0.4383940000000  0.5517080000000  0.4681600000000 1.0
C      1  0.5597090000000  0.4497090000000  0.4429100000000 1.0
C      1  0.5295700000000  0.4940250000000  0.5471010000000 1.0
C      1  0.4989520000000  0.4995800000000  0.3987150000000 1.0
C      1  0.5574010000000  0.4589650000000  0.5379700000000 1.0
C      1  0.5790690000000  0.5746960000000  0.5168880000000 1.0
C      1  0.4752480000000  0.4713150000000  0.4794590000000 1.0
C      1  0.6016760000000  0.5188700000000  0.5658100000000 1.0
C      1  0.6070860000000  0.4474350000000  0.4908620000000 1.0
C      1  0.5391730000000  0.5416100000000  0.4901530000000 1.0
C      1  0.4681810000000  0.4962770000000  0.5581640000000 1.0
C      1  0.5062080000000  0.5015870000000  0.4742300000000 1.0
C      1  0.4032710000000  0.5527130000000  0.5513780000000 1.0
C      1  0.4671130000000  0.5587330000000  0.5975070000000 1.0
C      1  0.3897400000000  0.4549420000000  0.5037760000000 1.0
C      1  0.4491500000000  0.4874210000000  0.4376700000000 1.0
C      1  0.4947640000000  0.4239520000000  0.4869700000000 1.0
C      1  0.4022260000000  0.5393160000000  0.4322950000000 1.0
C      1  0.5691790000000  0.5006930000000  0.5087580000000 1.0
C      1  0.4582440000000  0.4693580000000  0.5956270000000 1.0
C      1  0.5535170000000  0.5241700000000  0.5992380000000 1.0
C      1  0.5330960000000  0.4014610000000  0.4559320000000 1.0
C      1  0.5697820000000  0.4311040000000  0.5271220000000 1.0
C      1  0.5135620000000  0.5013770000000  0.5931860000000 1.0
C      1  0.6017900000000  0.5323120000000  0.5391960000000 1.0
C      1  0.4648700000000  0.4357740000000  0.5741030000000 1.0
C      1  0.6164140000000  0.4750270000000  0.4944870000000 1.0
C      1  0.4138940000000  0.5748490000000  0.5365030000000 1.0
C      1  0.4302340000000  0.5853720000000  0.4433120000000 1.0
C      1  0.5419170000000  0.5859480000000  0.4562700000000 1.0
C      1  0.4942720000000  0.4504740000000  0.4793410000000 1.0
C      1  0.4981600000000  0.5786180000000  0.4252380000000 1.0
C      1  0.5019370000000  0.6122110000000  0.4559960000000 1.0
C      1  0.4560180000000  0.4352970000000  0.5159760000000 1.0
C      1  0.4013280000000  0.4383630000000  0.5243700000000 1.0
C      1  0.6105890000000  0.4929180000000  0.5665830000000 1.0
C      1  0.5048650000000  0.5431840000000  0.5202820000000 1.0
C      1  0.3922850000000  0.4753650000000  0.4603260000000 1.0
C      1  0.5270220000000  0.4171350000000  0.4311980000000 1.0
C      1  0.5078670000000  0.4650500000000  0.4366650000000 1.0
C      1  0.5793460000000  0.5452210000000  0.5260160000000 1.0
C      1  0.5918030000000  0.4743160000000  0.5558990000000 1.0
C      1  0.4665990000000  0.4802840000000  0.5053870000000 1.0
C      1  0.4646230000000  0.5152780000000  0.4836480000000 1.0
C      1  0.4886360000000  0.5539080000000  0.4989480000000 1.0
C      1  0.4777340000000  0.5071580000000  0.5085880000000 1.0
C      1  0.4050750000000  0.4243370000000  0.4675640000000 1.0
C      1  0.4609460000000  0.5552110000000  0.5079510000000 1.0
C      1  0.5410140000000  0.4990120000000  0.6058350000000 1.0
C      1  0.5961130000000  0.4384480000000  0.4653020000000 1.0
C      1  0.6157520000000  0.5177670000000  0.5166560000000 1.0
C      1  0.5192100000000  0.6168290000000  0.4742060000000 1.0
C      1  0.4636180000000  0.5682470000000  0.4045080000000 1.0
C      1  0.4957670000000  0.5950910000000  0.5443280000000 1.0
C      1  0.5892790000000  0.5726310000000  0.4906240000000 1.0
C      1  0.5054540000000  0.4016670000000  0.5509170000000 1.0
C      1  0.5889130000000  0.4282750000000  0.5053060000000 1.0
C      1  0.4853980000000  0.5498380000000  0.5756290000000 1.0
C      1  0.5270810000000  0.5422070000000  0.4356640000000 1.0
C      1  0.5436000000000  0.4154540000000  0.5583590000000 1.0
C      1  0.5504200000000  0.5524670000000  0.4198530000000 1.0
C      1  0.5747220000000  0.5285500000000  0.5044890000000 1.0
C      1  0.4527990000000  0.4996340000000  0.3922170000000 1.0
C      1  0.4607830000000  0.5591270000000  0.4516760000000 1.0
C      1  0.5521330000000  0.5291360000000  0.4041960000000 1.0
C      1  0.4432920000000  0.4413520000000  0.4650330000000 1.0
C      1  0.5254260000000  0.5590190000000  0.5341250000000 1.0
C      1  0.5339190000000  0.5466610000000  0.6044290000000 1.0
C      1  0.5528560000000  0.4044470000000  0.4771720000000 1.0
C      1  0.4843680000000  0.5154620000000  0.4633020000000 1.0
C      1  0.4383230000000  0.4215860000000  0.5377820000000 1.0
C      1  0.5614750000000  0.4542540000000  0.5948080000000 1.0
C      1  0.5083740000000  0.3900600000000  0.4677380000000 1.0
C      1  0.5053960000000  0.5504970000000  0.6119260000000 1.0
C      1  0.4694050000000  0.4922230000000  0.5942750000000 1.0
C      1  0.4451120000000  0.5068610000000  0.5355740000000 1.0
C      1  0.4724230000000  0.4777590000000  0.4511390000000 1.0
C      1  0.4095710000000  0.5150070000000  0.4924870000000 1.0
C      1  0.4391070000000  0.5527140000000  0.4047180000000 1.0
C      1  0.5424340000000  0.4495060000000  0.4632970000000 1.0
C      1  0.4308660000000  0.4676450000000  0.4229440000000 1.0
C      1  0.5595620000000  0.4429830000000  0.5679180000000 1.0
C      1  0.4695460000000  0.5794220000000  0.4316820000000 1.0
C      1  0.3931370000000  0.5273920000000  0.4564380000000 1.0
C      1  0.4835960000000  0.5428260000000  0.4514000000000 1.0
C      1  0.4797780000000  0.5444810000000  0.3992420000000 1.0
C      1  0.4840770000000  0.5296130000000  0.5335890000000 1.0
C      1  0.5176700000000  0.5838100000000  0.5650250000000 1.0
C      1  0.4677220000000  0.5933300000000  0.5436400000000 1.0
C      1  0.4877940000000  0.3875140000000  0.5152850000000 1.0
C      1  0.4522250000000  0.4382280000000  0.4234750000000 1.0
C      1  0.4046390000000  0.5251510000000  0.5490250000000 1.0
C      1  0.5182480000000  0.4833440000000  0.5699050000000 1.0
C      1  0.5387270000000  0.4694980000000  0.6045930000000 1.0
C      1  0.4443040000000  0.5585510000000  0.5591870000000 1.0
C      1  0.4438920000000  0.4565430000000  0.5768220000000 1.0
C      1  0.4760520000000  0.4694460000000  0.5502560000000 1.0
C      1  0.5568400000000  0.4881980000000  0.4858230000000 1.0
C      1  0.4338600000000  0.5232750000000  0.5907090000000 1.0
C      1  0.5102960000000  0.3839260000000  0.4969000000000 1.0
C      1  0.4912620000000  0.5137620000000  0.5537760000000 1.0
C      1  0.4713750000000  0.4086700000000  0.5000900000000 1.0
C      1  0.5832090000000  0.4545070000000  0.5761820000000 1.0
C      1  0.4362350000000  0.5225350000000  0.4748200000000 1.0
C      1  0.5798670000000  0.5519760000000  0.5697520000000 1.0
C      1  0.4173380000000  0.4626620000000  0.5117070000000 1.0
C      1  0.5492610000000  0.4995070000000  0.4594840000000 1.0
C      1  0.4812920000000  0.6005080000000  0.4977140000000 1.0
C      1  0.3905510000000  0.5045540000000  0.4728760000000 1.0
C      1  0.5182680000000  0.5689690000000  0.5915430000000 1.0
C      1  0.4873110000000  0.3989810000000  0.4490660000000 1.0
C      1  0.5142480000000  0.4459610000000  0.4589020000000 1.0
C      1  0.5734080000000  0.5380460000000  0.4527900000000 1.0
C      1  0.5422030000000  0.6025670000000  0.4797940000000 1.0
C      1  0.5039740000000  0.6013200000000  0.5170990000000 1.0
C      1  0.5186570000000  0.4823510000000  0.5245780000000 1.0
C      1  0.4218600000000  0.5624970000000  0.4267030000000 1.0
C      1  0.4471130000000  0.5320660000000  0.5209540000000 1.0
C      1  0.5341440000000  0.5401370000000  0.5559950000000 1.0
C      1  0.5108110000000  0.4589850000000  0.6025780000000 1.0
C      1  0.5542950000000  0.5949300000000  0.5283580000000 1.0
C      1  0.5101800000000  0.5000730000000  0.5036310000000 1.0
C      1  0.4493890000000  0.3982420000000  0.4824520000000 1.0
C      1  0.5437530000000  0.5599350000000  0.5117200000000 1.0
C      1  0.4239770000000  0.4123540000000  0.4907740000000 1.0
C      1  0.5366570000000  0.3992010000000  0.5034790000000 1.0
C      1  0.4186920000000  0.5075650000000  0.5696140000000 1.0
C      1  0.5492650000000  0.5040410000000  0.3912650000000 1.0
C      1  0.5189360000000  0.4634890000000  0.3897610000000 1.0
C      1  0.5002750000000  0.5486170000000  0.4223370000000 1.0
C      1  0.4396840000000  0.5514010000000  0.5878630000000 1.0
C      1  0.4407040000000  0.5855400000000  0.5482700000000 1.0
C      1  0.5021040000000  0.4924260000000  0.4295020000000 1.0
C      1  0.4811960000000  0.3947230000000  0.5432750000000 1.0
C      1  0.5863290000000  0.5409050000000  0.4807130000000 1.0
C      1  0.4042810000000  0.5306720000000  0.5165710000000 1.0
C      1  0.5549490000000  0.5630230000000  0.5661000000000 1.0
C      1  0.4102500000000  0.5592300000000  0.5110450000000 1.0
C      1  0.4777650000000  0.5384870000000  0.6147870000000 1.0
C      1  0.5332490000000  0.6024900000000  0.5099640000000 1.0
C      1  0.5298470000000  0.4490170000000  0.5050660000000 1.0
C      1  0.5460690000000  0.4371440000000  0.4218730000000 1.0
C      1  0.4594170000000  0.4139530000000  0.5563250000000 1.0
C      1  0.5477560000000  0.4609330000000  0.4873620000000 1.0
C      1  0.5178520000000  0.5935880000000  0.4404870000000 1.0
C      1  0.4393760000000  0.4201530000000  0.4450180000000 1.0
C      1  0.4789730000000  0.6064680000000  0.4696640000000 1.0
END
