TITL C-4164244-2836-102 51.6662867302532 125000 -26097.8503803786 0 0 173 (C1) n - 1
REM
REM in /home/nfs/bkarasulu/CARBON/AIRSS/Generating-Clusters/ReaxFF-fromJPCA2015/Units_Real/with-SteepDescent/Only-C1/SD-CG/Try1-3A/FIRE-CG
REM
REM
REM
REM
REM
REM ./C.cell (11c1c37f851c82e70ff6c80c92926a4b)
REM
REM compiler GCC version 9.2.1 20190827 (Red Hat 9.2.1-1)
REM options -cpp -mtune=generic -march=x86-64 -g -O0 -fpre-include=/usr/include/finclude/math-vector-fortran.h
REM seed -351699664 -565014848 1508107436 -1541805883 -402279068 575943293 -1196377989 2011132291 -261779268 843913362 -920567469 -1308716305 -1272332785 1930750294 -1566066045 1118172565 1645928927 -1542341597 1647036290 1588047321 -183175902 -257164866 960385859 -146849708 -1925353141 -1690539781 735684433 -835450199 2086513047 242065026 962178827 1899018726 141170542
REM
CELL 1.54180   50.00000   50.00000   50.00000   90.00000   90.00000   90.00000
LATT -1
SFAC C  
C      1  0.4318660000000  0.5062780000000  0.5116840000000 1.0
C      1  0.4486380000000  0.5636540000000  0.5488600000000 1.0
C      1  0.5263370000000  0.4373690000000  0.5118690000000 1.0
C      1  0.4185710000000  0.5689170000000  0.4892750000000 1.0
C      1  0.5079410000000  0.5626880000000  0.5020550000000 1.0
C      1  0.5136580000000  0.5461350000000  0.5232030000000 1.0
C      1  0.5477590000000  0.5463530000000  0.4275210000000 1.0
C      1  0.5511560000000  0.4579140000000  0.4332390000000 1.0
C      1  0.5047520000000  0.6082960000000  0.4899840000000 1.0
C      1  0.4538910000000  0.5204280000000  0.5224140000000 1.0
C      1  0.5237860000000  0.4766920000000  0.4824010000000 1.0
C      1  0.5310050000000  0.5723700000000  0.4872060000000 1.0
C      1  0.5417270000000  0.4144920000000  0.5570450000000 1.0
C      1  0.4894620000000  0.5433610000000  0.5375790000000 1.0
C      1  0.6037880000000  0.5313690000000  0.5001500000000 1.0
C      1  0.4827870000000  0.5379610000000  0.4763330000000 1.0
C      1  0.4098990000000  0.5282740000000  0.4724710000000 1.0
C      1  0.5514640000000  0.5321210000000  0.4971900000000 1.0
C      1  0.4650420000000  0.4772280000000  0.5096710000000 1.0
C      1  0.5268640000000  0.4753550000000  0.4397950000000 1.0
C      1  0.4372280000000  0.4789080000000  0.5160380000000 1.0
C      1  0.5891410000000  0.5335910000000  0.5435100000000 1.0
C      1  0.5647300000000  0.4760250000000  0.5392680000000 1.0
C      1  0.5796450000000  0.5675370000000  0.4833660000000 1.0
C      1  0.5355670000000  0.4811340000000  0.5401840000000 1.0
C      1  0.4062800000000  0.4957600000000  0.5623140000000 1.0
C      1  0.4800740000000  0.4564480000000  0.6030710000000 1.0
C      1  0.5026790000000  0.5066660000000  0.5730260000000 1.0
C      1  0.5291580000000  0.4987250000000  0.5630340000000 1.0
C      1  0.5108010000000  0.4972150000000  0.3922510000000 1.0
C      1  0.4860490000000  0.4822450000000  0.3945780000000 1.0
C      1  0.5959780000000  0.5059950000000  0.5424890000000 1.0
C      1  0.5379240000000  0.4843350000000  0.3976710000000 1.0
C      1  0.5707990000000  0.5799540000000  0.4559610000000 1.0
C      1  0.4805150000000  0.5926110000000  0.4795780000000 1.0
C      1  0.5035240000000  0.5060870000000  0.5072370000000 1.0
C      1  0.5763480000000  0.4459000000000  0.4754370000000 1.0
C      1  0.4353820000000  0.5505660000000  0.4401960000000 1.0
C      1  0.5487550000000  0.5182190000000  0.5690860000000 1.0
C      1  0.5633560000000  0.4155090000000  0.5380210000000 1.0
C      1  0.5240410000000  0.4459600000000  0.4823380000000 1.0
C      1  0.5067900000000  0.5364830000000  0.5780620000000 1.0
C      1  0.4523420000000  0.6031640000000  0.4699690000000 1.0
C      1  0.4855380000000  0.5902520000000  0.4499290000000 1.0
C      1  0.4553560000000  0.5269410000000  0.4072930000000 1.0
C      1  0.3975180000000  0.5108860000000  0.5384620000000 1.0
C      1  0.5638840000000  0.4576480000000  0.4993000000000 1.0
C      1  0.5483320000000  0.4822760000000  0.4935490000000 1.0
C      1  0.5101670000000  0.3870150000000  0.5247360000000 1.0
C      1  0.4802010000000  0.4865460000000  0.5552360000000 1.0
C      1  0.5595460000000  0.5378230000000  0.5492170000000 1.0
C      1  0.4062130000000  0.4476020000000  0.4945560000000 1.0
C      1  0.4557590000000  0.4078200000000  0.4879910000000 1.0
C      1  0.4686420000000  0.5525700000000  0.6015040000000 1.0
C      1  0.5473440000000  0.4587020000000  0.5906230000000 1.0
C      1  0.5060390000000  0.6062330000000  0.5183350000000 1.0
C      1  0.4646910000000  0.4904110000000  0.4841590000000 1.0
C      1  0.4749380000000  0.4908080000000  0.4396580000000 1.0
C      1  0.5149830000000  0.4214200000000  0.4316690000000 1.0
C      1  0.5173520000000  0.3964550000000  0.5497770000000 1.0
C      1  0.4598160000000  0.4055370000000  0.4593360000000 1.0
C      1  0.4708920000000  0.3947660000000  0.5106790000000 1.0
C      1  0.4678280000000  0.5404520000000  0.4494700000000 1.0
C      1  0.5317190000000  0.5012320000000  0.4464870000000 1.0
C      1  0.4170050000000  0.4425390000000  0.4677370000000 1.0
C      1  0.4685420000000  0.4382870000000  0.5375360000000 1.0
C      1  0.4004570000000  0.4884120000000  0.4746230000000 1.0
C      1  0.5594380000000  0.5083730000000  0.4844520000000 1.0
C      1  0.5484470000000  0.5263930000000  0.5968910000000 1.0
C      1  0.5502640000000  0.4979720000000  0.6052400000000 1.0
C      1  0.4334320000000  0.4976300000000  0.5741540000000 1.0
C      1  0.5114960000000  0.5298900000000  0.4664190000000 1.0
C      1  0.4280200000000  0.5284470000000  0.4189340000000 1.0
C      1  0.4645580000000  0.5488270000000  0.5232210000000 1.0
C      1  0.4908220000000  0.5807570000000  0.5649250000000 1.0
C      1  0.3899950000000  0.4850670000000  0.5249950000000 1.0
C      1  0.5297850000000  0.3922060000000  0.4784000000000 1.0
C      1  0.5977770000000  0.4797230000000  0.4986180000000 1.0
C      1  0.5185490000000  0.5898840000000  0.5609090000000 1.0
C      1  0.4907160000000  0.5032790000000  0.6013980000000 1.0
C      1  0.4157560000000  0.4692550000000  0.4569110000000 1.0
C      1  0.4796950000000  0.5626060000000  0.4953130000000 1.0
C      1  0.4892340000000  0.4013490000000  0.5585880000000 1.0
C      1  0.5293060000000  0.5479610000000  0.5909590000000 1.0
C      1  0.5137190000000  0.5258410000000  0.3956610000000 1.0
C      1  0.4574680000000  0.5936380000000  0.4422550000000 1.0
C      1  0.5772170000000  0.5024710000000  0.4337370000000 1.0
C      1  0.5571630000000  0.5033190000000  0.4081810000000 1.0
C      1  0.3925630000000  0.4734590000000  0.4979630000000 1.0
C      1  0.4202080000000  0.4494560000000  0.5468800000000 1.0
C      1  0.4472500000000  0.4499720000000  0.5612310000000 1.0
C      1  0.5137630000000  0.4392200000000  0.4083950000000 1.0
C      1  0.5370900000000  0.5724340000000  0.5756480000000 1.0
C      1  0.4755680000000  0.6044680000000  0.5279260000000 1.0
C      1  0.5386710000000  0.4557510000000  0.4058900000000 1.0
C      1  0.5176650000000  0.4562430000000  0.5318090000000 1.0
C      1  0.5424960000000  0.5274910000000  0.4046200000000 1.0
C      1  0.5302960000000  0.5994780000000  0.4781720000000 1.0
C      1  0.5571370000000  0.5679750000000  0.5555240000000 1.0
C      1  0.4720970000000  0.4086210000000  0.5362240000000 1.0
C      1  0.5783380000000  0.4752830000000  0.4451120000000 1.0
C      1  0.4726750000000  0.5180610000000  0.4300240000000 1.0
C      1  0.5663990000000  0.4814790000000  0.5861520000000 1.0
C      1  0.4906610000000  0.4532650000000  0.3941800000000 1.0
C      1  0.5879810000000  0.4335520000000  0.5366360000000 1.0
C      1  0.4196390000000  0.5620880000000  0.5412110000000 1.0
C      1  0.4702480000000  0.4975930000000  0.5299370000000 1.0
C      1  0.4538490000000  0.4786160000000  0.5666020000000 1.0
C      1  0.4995190000000  0.4769190000000  0.6101490000000 1.0
C      1  0.4958770000000  0.5484320000000  0.4021380000000 1.0
C      1  0.4635100000000  0.4623270000000  0.3955510000000 1.0
C      1  0.4941460000000  0.4561330000000  0.5489140000000 1.0
C      1  0.5046180000000  0.3853750000000  0.4718610000000 1.0
C      1  0.4063050000000  0.5620920000000  0.5150390000000 1.0
C      1  0.5301560000000  0.4761790000000  0.6069740000000 1.0
C      1  0.4436760000000  0.5212850000000  0.5882380000000 1.0
C      1  0.4982240000000  0.4726830000000  0.4403400000000 1.0
C      1  0.4869820000000  0.4523630000000  0.4552250000000 1.0
C      1  0.5950740000000  0.5510530000000  0.5207490000000 1.0
C      1  0.5384180000000  0.5309580000000  0.5228840000000 1.0
C      1  0.4666250000000  0.5539300000000  0.4054740000000 1.0
C      1  0.5242320000000  0.5458720000000  0.4453590000000 1.0
C      1  0.5522570000000  0.4050500000000  0.4864230000000 1.0
C      1  0.4819580000000  0.5114300000000  0.4907320000000 1.0
C      1  0.6077820000000  0.4316420000000  0.5521700000000 1.0
C      1  0.5520520000000  0.4295630000000  0.4677090000000 1.0
C      1  0.5782110000000  0.5739600000000  0.5143300000000 1.0
C      1  0.5419320000000  0.4289190000000  0.4389200000000 1.0
C      1  0.4929550000000  0.4072170000000  0.4544680000000 1.0
C      1  0.5903820000000  0.5330290000000  0.4476730000000 1.0
C      1  0.4501680000000  0.5489540000000  0.5786910000000 1.0
C      1  0.4667890000000  0.5883750000000  0.5506600000000 1.0
C      1  0.4580260000000  0.4368820000000  0.4884020000000 1.0
C      1  0.4487760000000  0.4357490000000  0.4333490000000 1.0
C      1  0.5056060000000  0.4415890000000  0.5743390000000 1.0
C      1  0.4678380000000  0.5209430000000  0.6053710000000 1.0
C      1  0.4642050000000  0.4389950000000  0.5872630000000 1.0
C      1  0.4012000000000  0.5401100000000  0.5346250000000 1.0
C      1  0.4131470000000  0.5097880000000  0.4881990000000 1.0
C      1  0.5578940000000  0.5111840000000  0.4552300000000 1.0
C      1  0.4912640000000  0.5526810000000  0.5634670000000 1.0
C      1  0.5346130000000  0.4365550000000  0.5749390000000 1.0
C      1  0.5133870000000  0.5007620000000  0.4677760000000 1.0
C      1  0.5569700000000  0.5841260000000  0.5314590000000 1.0
C      1  0.5531740000000  0.5562590000000  0.4834710000000 1.0
C      1  0.4592930000000  0.4518260000000  0.4608010000000 1.0
C      1  0.6024830000000  0.5040240000000  0.5126110000000 1.0
C      1  0.5970820000000  0.5417760000000  0.4742870000000 1.0
C      1  0.4860970000000  0.4204640000000  0.5814620000000 1.0
C      1  0.3995910000000  0.4701210000000  0.5490880000000 1.0
C      1  0.4550680000000  0.4809420000000  0.4593620000000 1.0
C      1  0.5803990000000  0.4871730000000  0.5600300000000 1.0
C      1  0.5283570000000  0.5969980000000  0.5344910000000 1.0
C      1  0.4503820000000  0.5709300000000  0.4250480000000 1.0
C      1  0.5810500000000  0.4624390000000  0.5202780000000 1.0
C      1  0.5467070000000  0.4160860000000  0.5140350000000 1.0
C      1  0.4533430000000  0.5996480000000  0.5124020000000 1.0
C      1  0.4233790000000  0.4532410000000  0.5182940000000 1.0
C      1  0.5500430000000  0.6007510000000  0.4549380000000 1.0
C      1  0.4656800000000  0.4489560000000  0.5114010000000 1.0
C      1  0.5005170000000  0.4315090000000  0.4699000000000 1.0
C      1  0.5738450000000  0.5548370000000  0.4384050000000 1.0
C      1  0.4349940000000  0.4203940000000  0.4533720000000 1.0
C      1  0.4953960000000  0.3810300000000  0.5016030000000 1.0
C      1  0.5248440000000  0.5042920000000  0.5217520000000 1.0
C      1  0.4251550000000  0.5019810000000  0.4231540000000 1.0
C      1  0.5086890000000  0.5608350000000  0.4252540000000 1.0
C      1  0.4222620000000  0.4750390000000  0.4274590000000 1.0
C      1  0.4345090000000  0.5946830000000  0.4916910000000 1.0
C      1  0.4157310000000  0.5535070000000  0.4646100000000 1.0
C      1  0.4415690000000  0.4558670000000  0.4143560000000 1.0
C      1  0.5919890000000  0.4700420000000  0.4698550000000 1.0
C      1  0.4858900000000  0.5629230000000  0.4427110000000 1.0
END
