TITL C-4164236-1577-216 1.95870570900275 125000 -17239.3717659589 0 0 115 (C1) n - 1
REM
REM in /home/nfs/bkarasulu/CARBON/AIRSS/Generating-Clusters/ReaxFF-fromJPCA2015/Units_Real/with-SteepDescent/Only-C1/SD-CG/Try1-3A/FIRE-CG
REM
REM
REM
REM
REM
REM ./C.cell (11c1c37f851c82e70ff6c80c92926a4b)
REM
REM compiler GCC version 9.2.1 20190827 (Red Hat 9.2.1-1)
REM options -cpp -mtune=generic -march=x86-64 -g -O0 -fpre-include=/usr/include/finclude/math-vector-fortran.h
REM seed 924326595 -638836794 -157632939 -56800556 917067862 -1121341964 -1654620307 1117411569 -621048531 739324102 2076087798 1525579327 -1736410209 1779879583 -172316765 2079435404 -586809185 -223961140 -460815318 1102360125 -1670006423 742060957 914172976 -712690163 191672715 -652556875 -807683125 -1442563490 923310781 646302382 -509340360 2037850487 1722040385
REM
CELL 1.54180   50.00000   50.00000   50.00000   90.00000   90.00000   90.00000
LATT -1
SFAC C  
C      1  0.5540610000000  0.5641160000000  0.4658510000000 1.0
C      1  0.5291250000000  0.4962970000000  0.4847450000000 1.0
C      1  0.5341750000000  0.4879250000000  0.5428030000000 1.0
C      1  0.5328560000000  0.5464110000000  0.4307860000000 1.0
C      1  0.5631060000000  0.4291200000000  0.4879500000000 1.0
C      1  0.5224140000000  0.5740650000000  0.5528500000000 1.0
C      1  0.5084100000000  0.5095090000000  0.4060040000000 1.0
C      1  0.5472970000000  0.5221620000000  0.4445630000000 1.0
C      1  0.4497220000000  0.5699490000000  0.4707730000000 1.0
C      1  0.4900370000000  0.4913510000000  0.5778770000000 1.0
C      1  0.4864450000000  0.4968800000000  0.4945500000000 1.0
C      1  0.5371310000000  0.4773710000000  0.5703260000000 1.0
C      1  0.5086200000000  0.4522590000000  0.4869150000000 1.0
C      1  0.4375250000000  0.4681610000000  0.5281430000000 1.0
C      1  0.4172910000000  0.5117820000000  0.5239340000000 1.0
C      1  0.4723410000000  0.5719740000000  0.5516580000000 1.0
C      1  0.5025360000000  0.5141870000000  0.5886190000000 1.0
C      1  0.4977530000000  0.5837280000000  0.5424880000000 1.0
C      1  0.5529600000000  0.4952950000000  0.4298600000000 1.0
C      1  0.4852010000000  0.4880210000000  0.5497160000000 1.0
C      1  0.5415070000000  0.5653440000000  0.5280480000000 1.0
C      1  0.4871190000000  0.5282610000000  0.5270380000000 1.0
C      1  0.5304800000000  0.4906500000000  0.4114580000000 1.0
C      1  0.5166200000000  0.4508360000000  0.5749450000000 1.0
C      1  0.4155430000000  0.4885830000000  0.4762090000000 1.0
C      1  0.4468300000000  0.4437840000000  0.4447860000000 1.0
C      1  0.4555040000000  0.5244780000000  0.5633120000000 1.0
C      1  0.5651740000000  0.5365500000000  0.4641490000000 1.0
C      1  0.5214640000000  0.5585380000000  0.5774070000000 1.0
C      1  0.5724110000000  0.5221900000000  0.4879050000000 1.0
C      1  0.5562810000000  0.5808530000000  0.4877720000000 1.0
C      1  0.5023320000000  0.5977750000000  0.5159750000000 1.0
C      1  0.5780930000000  0.4547900000000  0.4892120000000 1.0
C      1  0.4433270000000  0.4293590000000  0.4706190000000 1.0
C      1  0.5006480000000  0.5580370000000  0.4663720000000 1.0
C      1  0.5271710000000  0.5397120000000  0.5095450000000 1.0
C      1  0.4222450000000  0.4352400000000  0.4917850000000 1.0
C      1  0.4853520000000  0.4665440000000  0.5304190000000 1.0
C      1  0.4284110000000  0.5667130000000  0.5207680000000 1.0
C      1  0.5091550000000  0.5359550000000  0.4183180000000 1.0
C      1  0.5164160000000  0.4515430000000  0.4596370000000 1.0
C      1  0.5814290000000  0.4940020000000  0.5450860000000 1.0
C      1  0.5012320000000  0.3973940000000  0.5133980000000 1.0
C      1  0.4809140000000  0.5956890000000  0.4954160000000 1.0
C      1  0.5481670000000  0.4870380000000  0.5193810000000 1.0
C      1  0.4961240000000  0.4361340000000  0.4453810000000 1.0
C      1  0.4765900000000  0.4827160000000  0.4576310000000 1.0
C      1  0.5624120000000  0.4624070000000  0.5133480000000 1.0
C      1  0.5464210000000  0.5465170000000  0.5719090000000 1.0
C      1  0.4403040000000  0.5441430000000  0.4713740000000 1.0
C      1  0.5162280000000  0.4648710000000  0.4094200000000 1.0
C      1  0.4617850000000  0.4221520000000  0.4915570000000 1.0
C      1  0.5509750000000  0.5873470000000  0.5116550000000 1.0
C      1  0.4945730000000  0.5055150000000  0.4521480000000 1.0
C      1  0.5277350000000  0.5641990000000  0.4523920000000 1.0
C      1  0.5469680000000  0.5123520000000  0.5028720000000 1.0
C      1  0.5471970000000  0.4484490000000  0.4455020000000 1.0
C      1  0.4478450000000  0.5276900000000  0.4917900000000 1.0
C      1  0.5882300000000  0.5418700000000  0.5446390000000 1.0
C      1  0.5217460000000  0.5080070000000  0.4604720000000 1.0
C      1  0.5279680000000  0.4316670000000  0.5334640000000 1.0
C      1  0.4792190000000  0.5257350000000  0.4991320000000 1.0
C      1  0.5002530000000  0.4412380000000  0.5324530000000 1.0
C      1  0.4267060000000  0.5083780000000  0.4954180000000 1.0
C      1  0.4274890000000  0.4913270000000  0.5433020000000 1.0
C      1  0.5279910000000  0.5046050000000  0.5791930000000 1.0
C      1  0.5146570000000  0.5288960000000  0.5333870000000 1.0
C      1  0.5088310000000  0.4791960000000  0.4972350000000 1.0
C      1  0.5640090000000  0.4750530000000  0.4468830000000 1.0
C      1  0.4507250000000  0.5819120000000  0.5349820000000 1.0
C      1  0.4228480000000  0.5392580000000  0.5241420000000 1.0
C      1  0.4367610000000  0.5813270000000  0.4952440000000 1.0
C      1  0.4216660000000  0.4892890000000  0.4470250000000 1.0
C      1  0.4941880000000  0.4228710000000  0.4918830000000 1.0
C      1  0.5530460000000  0.4234260000000  0.4616120000000 1.0
C      1  0.5313200000000  0.4418750000000  0.4199990000000 1.0
C      1  0.5640060000000  0.5280190000000  0.5605980000000 1.0
C      1  0.4899450000000  0.5355710000000  0.4418110000000 1.0
C      1  0.5811180000000  0.4768860000000  0.4703840000000 1.0
C      1  0.5322720000000  0.4287030000000  0.5642540000000 1.0
C      1  0.4339990000000  0.5118000000000  0.4330400000000 1.0
C      1  0.5284400000000  0.5985480000000  0.5073630000000 1.0
C      1  0.4747670000000  0.4572270000000  0.4376670000000 1.0
C      1  0.4253190000000  0.4613220000000  0.4356640000000 1.0
C      1  0.5693600000000  0.5598680000000  0.5333140000000 1.0
C      1  0.5877700000000  0.4970590000000  0.5184390000000 1.0
C      1  0.5029150000000  0.5438810000000  0.4930040000000 1.0
C      1  0.4644280000000  0.4811450000000  0.4844010000000 1.0
C      1  0.4417770000000  0.4984460000000  0.5677430000000 1.0
C      1  0.4579180000000  0.5133340000000  0.4157680000000 1.0
C      1  0.4599260000000  0.4478820000000  0.5649590000000 1.0
C      1  0.4871020000000  0.4486310000000  0.5791080000000 1.0
C      1  0.4773550000000  0.4719810000000  0.5937950000000 1.0
C      1  0.5156440000000  0.4198390000000  0.4310460000000 1.0
C      1  0.4781640000000  0.5776400000000  0.4734610000000 1.0
C      1  0.5692350000000  0.4813000000000  0.5663030000000 1.0
C      1  0.4872880000000  0.4695280000000  0.4123090000000 1.0
C      1  0.5332450000000  0.5144580000000  0.5522170000000 1.0
C      1  0.4401010000000  0.5394790000000  0.4445150000000 1.0
C      1  0.4517200000000  0.4719360000000  0.5793960000000 1.0
C      1  0.4708570000000  0.5118090000000  0.5425200000000 1.0
C      1  0.4552900000000  0.5976950000000  0.5100810000000 1.0
C      1  0.4622520000000  0.4681150000000  0.5114080000000 1.0
C      1  0.5111250000000  0.4063550000000  0.4759590000000 1.0
C      1  0.4811430000000  0.4970180000000  0.4067210000000 1.0
C      1  0.5504650000000  0.4359910000000  0.5148970000000 1.0
C      1  0.4896180000000  0.4120110000000  0.5361400000000 1.0
C      1  0.4967180000000  0.5418710000000  0.5826210000000 1.0
C      1  0.4715090000000  0.5484310000000  0.5703990000000 1.0
C      1  0.4432080000000  0.4272330000000  0.5132260000000 1.0
C      1  0.4641280000000  0.5395500000000  0.4271110000000 1.0
C      1  0.4103660000000  0.4616820000000  0.4875380000000 1.0
C      1  0.5298160000000  0.4061430000000  0.4549340000000 1.0
C      1  0.4446060000000  0.4420720000000  0.5394840000000 1.0
C      1  0.5894470000000  0.4986990000000  0.4895850000000 1.0
END
