TITL C-4164234-2335-571 8.87554871299337 125000 -21298.8133086682 0 0 142 (C1) n - 1
REM
REM in /home/nfs/bkarasulu/CARBON/AIRSS/Generating-Clusters/ReaxFF-fromJPCA2015/Units_Real/with-SteepDescent/Only-C1/SD-CG/Try1-3A/FIRE-CG
REM
REM
REM
REM
REM
REM ./C.cell (11c1c37f851c82e70ff6c80c92926a4b)
REM
REM compiler GCC version 9.2.1 20190827 (Red Hat 9.2.1-1)
REM options -cpp -mtune=generic -march=x86-64 -g -O0 -fpre-include=/usr/include/finclude/math-vector-fortran.h
REM seed -143819591 -1621426508 151857019 2114882464 1128684238 472746039 -646264262 1196909550 -342870679 -1227367566 -1194609776 760408425 -776676934 -1112865837 -782797722 -676249052 -82991946 -1640759209 -751781280 1857144785 2059550185 57648837 1276828242 -1817086856 -1814725759 1700571029 -1377822244 -2009279097 -1946518613 1742788458 -1371556541 -1998587521 1558601414
REM
CELL 1.54180   50.00000   50.00000   50.00000   90.00000   90.00000   90.00000
LATT -1
SFAC C  
C      1  0.5698600000000  0.5198230000000  0.4295040000000 1.0
C      1  0.4729370000000  0.4319840000000  0.5673150000000 1.0
C      1  0.5248800000000  0.6123070000000  0.4621330000000 1.0
C      1  0.5464010000000  0.4198550000000  0.4720550000000 1.0
C      1  0.4365580000000  0.5085170000000  0.5953130000000 1.0
C      1  0.4566390000000  0.4151500000000  0.4490850000000 1.0
C      1  0.5190130000000  0.4864710000000  0.4485190000000 1.0
C      1  0.4316360000000  0.4582600000000  0.4510940000000 1.0
C      1  0.5001080000000  0.5287560000000  0.4548600000000 1.0
C      1  0.5233680000000  0.5917800000000  0.5079470000000 1.0
C      1  0.5335360000000  0.5697890000000  0.4408020000000 1.0
C      1  0.4845790000000  0.4699770000000  0.5480570000000 1.0
C      1  0.4677090000000  0.4550380000000  0.5840240000000 1.0
C      1  0.4406460000000  0.5841100000000  0.5423420000000 1.0
C      1  0.5058240000000  0.4136900000000  0.4449900000000 1.0
C      1  0.6096460000000  0.4969760000000  0.4528120000000 1.0
C      1  0.5462390000000  0.5805900000000  0.4922960000000 1.0
C      1  0.4085470000000  0.4444570000000  0.5005130000000 1.0
C      1  0.4555120000000  0.5370480000000  0.4775860000000 1.0
C      1  0.4389000000000  0.5296560000000  0.5755870000000 1.0
C      1  0.4926790000000  0.5677700000000  0.4656750000000 1.0
C      1  0.5455410000000  0.4969580000000  0.4512300000000 1.0
C      1  0.4509200000000  0.5069500000000  0.5425220000000 1.0
C      1  0.5325070000000  0.4243200000000  0.4459360000000 1.0
C      1  0.4502900000000  0.4789420000000  0.5537540000000 1.0
C      1  0.5231970000000  0.4748660000000  0.5050360000000 1.0
C      1  0.4676790000000  0.4228350000000  0.4225450000000 1.0
C      1  0.5072790000000  0.5727950000000  0.4277290000000 1.0
C      1  0.4828470000000  0.4006610000000  0.4969380000000 1.0
C      1  0.4668830000000  0.4054430000000  0.5207680000000 1.0
C      1  0.4940060000000  0.5684160000000  0.5706710000000 1.0
C      1  0.5968090000000  0.5276520000000  0.5169960000000 1.0
C      1  0.5172600000000  0.5239590000000  0.5073960000000 1.0
C      1  0.6017810000000  0.4720880000000  0.4656350000000 1.0
C      1  0.5540250000000  0.4928690000000  0.5373580000000 1.0
C      1  0.5345880000000  0.4753480000000  0.5437570000000 1.0
C      1  0.4103570000000  0.4699760000000  0.5192470000000 1.0
C      1  0.4409220000000  0.5562310000000  0.4381910000000 1.0
C      1  0.5869940000000  0.5065560000000  0.5026980000000 1.0
C      1  0.5456320000000  0.4279740000000  0.5609890000000 1.0
C      1  0.4863960000000  0.4854190000000  0.4720800000000 1.0
C      1  0.5107610000000  0.4979290000000  0.5145710000000 1.0
C      1  0.5925780000000  0.5214980000000  0.4473640000000 1.0
C      1  0.4315690000000  0.5503980000000  0.4681940000000 1.0
C      1  0.4388050000000  0.5805810000000  0.4726320000000 1.0
C      1  0.4255120000000  0.4739990000000  0.4749940000000 1.0
C      1  0.5809340000000  0.5320530000000  0.4726530000000 1.0
C      1  0.5663950000000  0.5648910000000  0.5070380000000 1.0
C      1  0.5355650000000  0.4483610000000  0.4280480000000 1.0
C      1  0.4897620000000  0.4956980000000  0.5329490000000 1.0
C      1  0.5520870000000  0.5270330000000  0.4689970000000 1.0
C      1  0.4829300000000  0.5587380000000  0.5232950000000 1.0
C      1  0.4903110000000  0.4525890000000  0.5258690000000 1.0
C      1  0.5930030000000  0.4750920000000  0.5402770000000 1.0
C      1  0.4823470000000  0.4119960000000  0.4667210000000 1.0
C      1  0.4635790000000  0.4934820000000  0.4927080000000 1.0
C      1  0.5590420000000  0.4493270000000  0.5690250000000 1.0
C      1  0.4348980000000  0.5067530000000  0.4347880000000 1.0
C      1  0.4914070000000  0.5112030000000  0.4015200000000 1.0
C      1  0.5770220000000  0.4938470000000  0.5551680000000 1.0
C      1  0.6020350000000  0.4866330000000  0.5143830000000 1.0
C      1  0.4961420000000  0.5526140000000  0.4090640000000 1.0
C      1  0.4967870000000  0.4308200000000  0.4241330000000 1.0
C      1  0.4846970000000  0.5422620000000  0.4776590000000 1.0
C      1  0.5417340000000  0.5870790000000  0.4632620000000 1.0
C      1  0.5072030000000  0.4632040000000  0.4299800000000 1.0
C      1  0.4354120000000  0.4312840000000  0.4613000000000 1.0
C      1  0.5837030000000  0.5379530000000  0.5420980000000 1.0
C      1  0.4371240000000  0.4805890000000  0.5819250000000 1.0
C      1  0.5383320000000  0.5642890000000  0.5513720000000 1.0
C      1  0.5485310000000  0.4769510000000  0.4939360000000 1.0
C      1  0.4965520000000  0.6083200000000  0.4695630000000 1.0
C      1  0.4968910000000  0.5419960000000  0.5050070000000 1.0
C      1  0.5584300000000  0.5022630000000  0.5082330000000 1.0
C      1  0.4647370000000  0.4804260000000  0.4191680000000 1.0
C      1  0.4676250000000  0.5062450000000  0.5195580000000 1.0
C      1  0.5427200000000  0.4258960000000  0.5201100000000 1.0
C      1  0.5703890000000  0.4360400000000  0.5217110000000 1.0
C      1  0.5593930000000  0.4641930000000  0.4269520000000 1.0
C      1  0.4676070000000  0.5269370000000  0.5641390000000 1.0
C      1  0.5589640000000  0.4935480000000  0.4240730000000 1.0
C      1  0.5143020000000  0.5295570000000  0.4059710000000 1.0
C      1  0.4237670000000  0.4659800000000  0.5445460000000 1.0
C      1  0.4844410000000  0.5878290000000  0.4467140000000 1.0
C      1  0.4558720000000  0.5991460000000  0.5616800000000 1.0
C      1  0.3973260000000  0.4969690000000  0.5149640000000 1.0
C      1  0.5052940000000  0.4033390000000  0.5365280000000 1.0
C      1  0.4238720000000  0.5060450000000  0.4635880000000 1.0
C      1  0.5470020000000  0.4964770000000  0.5901710000000 1.0
C      1  0.4903870000000  0.4601740000000  0.4606900000000 1.0
C      1  0.5737590000000  0.4586990000000  0.4548200000000 1.0
C      1  0.5198910000000  0.5545580000000  0.5745280000000 1.0
C      1  0.5340920000000  0.4114770000000  0.4968540000000 1.0
C      1  0.4958940000000  0.5991830000000  0.4974800000000 1.0
C      1  0.4460660000000  0.5834090000000  0.5008580000000 1.0
C      1  0.5368070000000  0.4729500000000  0.5735320000000 1.0
C      1  0.5636540000000  0.5572790000000  0.5356360000000 1.0
C      1  0.5093630000000  0.4001020000000  0.5073270000000 1.0
C      1  0.4674680000000  0.4486080000000  0.5033040000000 1.0
C      1  0.4296380000000  0.4270780000000  0.4897180000000 1.0
C      1  0.5644250000000  0.5175460000000  0.5863410000000 1.0
C      1  0.4839350000000  0.5964490000000  0.5730330000000 1.0
C      1  0.4082750000000  0.5244910000000  0.5050680000000 1.0
C      1  0.4796160000000  0.4119270000000  0.5471340000000 1.0
C      1  0.5779010000000  0.4502290000000  0.5458210000000 1.0
C      1  0.4393090000000  0.4781210000000  0.4293200000000 1.0
C      1  0.4828720000000  0.4407330000000  0.4760930000000 1.0
C      1  0.4515180000000  0.4245670000000  0.5070680000000 1.0
C      1  0.5125310000000  0.5272010000000  0.5801140000000 1.0
C      1  0.4475370000000  0.5121970000000  0.4795460000000 1.0
C      1  0.4537090000000  0.5797120000000  0.4481210000000 1.0
C      1  0.4482900000000  0.5309950000000  0.4250920000000 1.0
C      1  0.4745160000000  0.5842490000000  0.5091440000000 1.0
C      1  0.5279500000000  0.5791760000000  0.5317140000000 1.0
C      1  0.4991580000000  0.5025210000000  0.4569120000000 1.0
C      1  0.5420100000000  0.5248450000000  0.4957690000000 1.0
C      1  0.4786780000000  0.5525080000000  0.5514640000000 1.0
C      1  0.5872210000000  0.5472220000000  0.4968770000000 1.0
C      1  0.4117600000000  0.5295500000000  0.4769400000000 1.0
C      1  0.4880930000000  0.5120790000000  0.5819290000000 1.0
C      1  0.6020360000000  0.4651590000000  0.4936540000000 1.0
C      1  0.4870280000000  0.4836740000000  0.5876790000000 1.0
C      1  0.5200390000000  0.4536440000000  0.5241830000000 1.0
C      1  0.4288830000000  0.5696950000000  0.5220950000000 1.0
C      1  0.5209210000000  0.5316110000000  0.4346920000000 1.0
C      1  0.4218140000000  0.5255380000000  0.5504900000000 1.0
C      1  0.3996920000000  0.5048160000000  0.5575660000000 1.0
C      1  0.3949990000000  0.4607350000000  0.4811770000000 1.0
C      1  0.4482190000000  0.4704770000000  0.4945450000000 1.0
C      1  0.5708770000000  0.4342680000000  0.4729040000000 1.0
C      1  0.5529840000000  0.4757310000000  0.4663530000000 1.0
C      1  0.4728980000000  0.5330910000000  0.4083410000000 1.0
C      1  0.5823760000000  0.5206150000000  0.5651080000000 1.0
C      1  0.5054260000000  0.4678450000000  0.5735800000000 1.0
C      1  0.3776280000000  0.5024260000000  0.5373370000000 1.0
C      1  0.4110490000000  0.4792780000000  0.5674640000000 1.0
C      1  0.4891080000000  0.4826640000000  0.4094390000000 1.0
C      1  0.4182510000000  0.5420100000000  0.5253390000000 1.0
C      1  0.5374330000000  0.5229490000000  0.5932590000000 1.0
C      1  0.5481260000000  0.5393400000000  0.4419040000000 1.0
C      1  0.5844110000000  0.4417390000000  0.4972870000000 1.0
C      1  0.5329590000000  0.4102450000000  0.5447740000000 1.0
END
