TITL C-4164240-4114-683 210.714798655235 125000 -26622.004280673 0 0 183 (C1) n - 1
REM
REM in /home/nfs/bkarasulu/CARBON/AIRSS/Generating-Clusters/ReaxFF-fromJPCA2015/Units_Real/with-SteepDescent/Only-C1/SD-CG/Try1-3A/FIRE-CG
REM
REM
REM
REM
REM
REM ./C.cell (11c1c37f851c82e70ff6c80c92926a4b)
REM
REM compiler GCC version 9.2.1 20190827 (Red Hat 9.2.1-1)
REM options -cpp -mtune=generic -march=x86-64 -g -O0 -fpre-include=/usr/include/finclude/math-vector-fortran.h
REM seed 2062411281 469023747 1281837365 -1688783559 -1613017855 -1813907503 1089713754 1140132991 962028738 2029618054 -856400217 -910106381 -859834888 736897763 1161980066 -1679648034 817406288 -2064470150 -1939953512 1821289381 -262249161 -1618069263 1974566246 336744140 2019901863 1286457383 1150998263 1027546600 -2012225973 -1166714544 -2027430401 1860798135 -587116643
REM
CELL 1.54180   50.00000   50.00000   50.00000   90.00000   90.00000   90.00000
LATT -1
SFAC C  
C      1  0.5079620000000  0.4434030000000  0.4101160000000 1.0
C      1  0.4875210000000  0.5219880000000  0.3964980000000 1.0
C      1  0.6159600000000  0.4934140000000  0.5082910000000 1.0
C      1  0.4983800000000  0.4017760000000  0.4861200000000 1.0
C      1  0.4978630000000  0.5471010000000  0.4017540000000 1.0
C      1  0.5503000000000  0.5073770000000  0.4281210000000 1.0
C      1  0.4857020000000  0.5656260000000  0.4197550000000 1.0
C      1  0.5022500000000  0.4732390000000  0.5089410000000 1.0
C      1  0.5823500000000  0.4766520000000  0.4379430000000 1.0
C      1  0.5248220000000  0.5370720000000  0.4009780000000 1.0
C      1  0.4543900000000  0.5154660000000  0.4360940000000 1.0
C      1  0.5145670000000  0.5114900000000  0.3907450000000 1.0
C      1  0.5395400000000  0.4665710000000  0.4730020000000 1.0
C      1  0.4406800000000  0.4999340000000  0.6153100000000 1.0
C      1  0.5441520000000  0.5418260000000  0.4905090000000 1.0
C      1  0.4229120000000  0.5615030000000  0.5225730000000 1.0
C      1  0.5090320000000  0.5147830000000  0.5596460000000 1.0
C      1  0.4950100000000  0.5339820000000  0.5759100000000 1.0
C      1  0.5308870000000  0.5053720000000  0.4937730000000 1.0
C      1  0.4808570000000  0.4840870000000  0.4489620000000 1.0
C      1  0.4970520000000  0.5699730000000  0.4458030000000 1.0
C      1  0.4103600000000  0.5218240000000  0.5589390000000 1.0
C      1  0.5243060000000  0.5032190000000  0.4423300000000 1.0
C      1  0.3990580000000  0.4867390000000  0.5081730000000 1.0
C      1  0.5658190000000  0.4614490000000  0.4193160000000 1.0
C      1  0.4543840000000  0.5997750000000  0.5142340000000 1.0
C      1  0.5855010000000  0.5468380000000  0.4858270000000 1.0
C      1  0.4801550000000  0.4543360000000  0.4014680000000 1.0
C      1  0.4287690000000  0.5336260000000  0.5740600000000 1.0
C      1  0.4698350000000  0.5606580000000  0.5424090000000 1.0
C      1  0.5299300000000  0.4768560000000  0.5001980000000 1.0
C      1  0.4478290000000  0.4495990000000  0.5897820000000 1.0
C      1  0.5739010000000  0.5486550000000  0.4619050000000 1.0
C      1  0.5681950000000  0.4759500000000  0.4660790000000 1.0
C      1  0.4136920000000  0.4701190000000  0.4334730000000 1.0
C      1  0.4284840000000  0.4447910000000  0.5690700000000 1.0
C      1  0.5621900000000  0.5029310000000  0.5928310000000 1.0
C      1  0.5585220000000  0.5154390000000  0.4947640000000 1.0
C      1  0.4013250000000  0.4744740000000  0.4819850000000 1.0
C      1  0.5989460000000  0.4960350000000  0.5524610000000 1.0
C      1  0.5412570000000  0.4118990000000  0.5029730000000 1.0
C      1  0.5585830000000  0.5281160000000  0.5841050000000 1.0
C      1  0.4721580000000  0.5070250000000  0.4626910000000 1.0
C      1  0.5226660000000  0.4741250000000  0.4481660000000 1.0
C      1  0.4457240000000  0.4108160000000  0.4849940000000 1.0
C      1  0.4607500000000  0.5791390000000  0.4237020000000 1.0
C      1  0.5044620000000  0.4113680000000  0.4397920000000 1.0
C      1  0.4707120000000  0.4084880000000  0.4702580000000 1.0
C      1  0.5763340000000  0.4597550000000  0.5782620000000 1.0
C      1  0.5667290000000  0.5759830000000  0.5178800000000 1.0
C      1  0.5183250000000  0.4248470000000  0.4906590000000 1.0
C      1  0.4901620000000  0.5195360000000  0.5154240000000 1.0
C      1  0.5732190000000  0.5408590000000  0.5647920000000 1.0
C      1  0.5422450000000  0.4144490000000  0.5312390000000 1.0
C      1  0.5159270000000  0.5881840000000  0.5448170000000 1.0
C      1  0.4716790000000  0.4478850000000  0.5352900000000 1.0
C      1  0.4119540000000  0.4967130000000  0.4667970000000 1.0
C      1  0.4825060000000  0.4931490000000  0.5123900000000 1.0
C      1  0.6110580000000  0.4803950000000  0.4821010000000 1.0
C      1  0.4486040000000  0.5464950000000  0.5878110000000 1.0
C      1  0.5559650000000  0.4872470000000  0.4073110000000 1.0
C      1  0.4939130000000  0.5242850000000  0.4691630000000 1.0
C      1  0.4478160000000  0.4044910000000  0.5129640000000 1.0
C      1  0.6046900000000  0.5405050000000  0.5296590000000 1.0
C      1  0.4946840000000  0.4971630000000  0.4258660000000 1.0
C      1  0.4696610000000  0.5050820000000  0.6112390000000 1.0
C      1  0.4922640000000  0.4218630000000  0.5767320000000 1.0
C      1  0.5551330000000  0.4270050000000  0.4549690000000 1.0
C      1  0.5215340000000  0.4701750000000  0.5466090000000 1.0
C      1  0.5705620000000  0.5276380000000  0.4358260000000 1.0
C      1  0.5227310000000  0.5985640000000  0.4898760000000 1.0
C      1  0.4480390000000  0.5935230000000  0.5577710000000 1.0
C      1  0.5456730000000  0.4687810000000  0.5296130000000 1.0
C      1  0.5297200000000  0.5469740000000  0.4667340000000 1.0
C      1  0.4936820000000  0.5649540000000  0.5008690000000 1.0
C      1  0.4415450000000  0.5137950000000  0.5245330000000 1.0
C      1  0.4447970000000  0.4945670000000  0.4159990000000 1.0
C      1  0.4249460000000  0.5197240000000  0.4797570000000 1.0
C      1  0.4699630000000  0.3921840000000  0.5276050000000 1.0
C      1  0.4959040000000  0.5985820000000  0.4483280000000 1.0
C      1  0.4944920000000  0.5935350000000  0.4947130000000 1.0
C      1  0.4887210000000  0.4816900000000  0.4021480000000 1.0
C      1  0.4540800000000  0.4869580000000  0.4795190000000 1.0
C      1  0.4095460000000  0.5347150000000  0.5305520000000 1.0
C      1  0.4079460000000  0.5603960000000  0.4567000000000 1.0
C      1  0.5001630000000  0.4869820000000  0.5573250000000 1.0
C      1  0.4729500000000  0.4743630000000  0.5502770000000 1.0
C      1  0.3935430000000  0.5350580000000  0.4567720000000 1.0
C      1  0.5996270000000  0.5183420000000  0.5112610000000 1.0
C      1  0.5521080000000  0.4359150000000  0.4260950000000 1.0
C      1  0.4573000000000  0.5160990000000  0.3949540000000 1.0
C      1  0.4393450000000  0.5596920000000  0.4982710000000 1.0
C      1  0.4756280000000  0.5867400000000  0.5297600000000 1.0
C      1  0.5914490000000  0.5046300000000  0.4365380000000 1.0
C      1  0.4485480000000  0.5932190000000  0.4681060000000 1.0
C      1  0.5490830000000  0.5829370000000  0.4961860000000 1.0
C      1  0.5292210000000  0.4860310000000  0.3972900000000 1.0
C      1  0.5253500000000  0.4237180000000  0.4217320000000 1.0
C      1  0.4563780000000  0.4611440000000  0.4167650000000 1.0
C      1  0.5162870000000  0.4042530000000  0.5372890000000 1.0
C      1  0.4145450000000  0.4951390000000  0.4214240000000 1.0
C      1  0.5627000000000  0.4010160000000  0.4863020000000 1.0
C      1  0.5747500000000  0.4867840000000  0.5665960000000 1.0
C      1  0.4325740000000  0.4887360000000  0.5876790000000 1.0
C      1  0.5649720000000  0.4362920000000  0.5685940000000 1.0
C      1  0.5567370000000  0.4377160000000  0.5412520000000 1.0
C      1  0.5170780000000  0.3960580000000  0.4606960000000 1.0
C      1  0.4168510000000  0.5609300000000  0.4352180000000 1.0
C      1  0.5955430000000  0.5256760000000  0.5528210000000 1.0
C      1  0.5362430000000  0.5488230000000  0.5307190000000 1.0
C      1  0.3996160000000  0.5090270000000  0.4433460000000 1.0
C      1  0.4186880000000  0.4414620000000  0.5143690000000 1.0
C      1  0.4989970000000  0.5875740000000  0.5692270000000 1.0
C      1  0.5230530000000  0.4668630000000  0.4185350000000 1.0
C      1  0.5147270000000  0.5663770000000  0.5249590000000 1.0
C      1  0.4665200000000  0.6024010000000  0.4875530000000 1.0
C      1  0.4681750000000  0.5355020000000  0.5264850000000 1.0
C      1  0.4964950000000  0.3959990000000  0.5170750000000 1.0
C      1  0.5432950000000  0.5830760000000  0.5860300000000 1.0
C      1  0.4335630000000  0.4195400000000  0.5546970000000 1.0
C      1  0.3967090000000  0.5173750000000  0.5099560000000 1.0
C      1  0.4527330000000  0.4845320000000  0.5670350000000 1.0
C      1  0.4578850000000  0.4029790000000  0.5528790000000 1.0
C      1  0.5583610000000  0.5630040000000  0.5449570000000 1.0
C      1  0.5147570000000  0.4102540000000  0.5661080000000 1.0
C      1  0.5289500000000  0.4531480000000  0.5971780000000 1.0
C      1  0.4302660000000  0.5722680000000  0.4731270000000 1.0
C      1  0.3999140000000  0.5336770000000  0.4852430000000 1.0
C      1  0.5030000000000  0.5621140000000  0.5837410000000 1.0
C      1  0.6089610000000  0.4782590000000  0.5311730000000 1.0
C      1  0.5177130000000  0.4796690000000  0.6053210000000 1.0
C      1  0.4749840000000  0.4193360000000  0.4446380000000 1.0
C      1  0.5183680000000  0.5186960000000  0.5133170000000 1.0
C      1  0.5728970000000  0.5033370000000  0.4726170000000 1.0
C      1  0.4365920000000  0.5641620000000  0.4157520000000 1.0
C      1  0.5725340000000  0.5096760000000  0.5192840000000 1.0
C      1  0.5311780000000  0.5194920000000  0.5392400000000 1.0
C      1  0.5596900000000  0.5736120000000  0.4704440000000 1.0
C      1  0.4247510000000  0.4460820000000  0.4426580000000 1.0
C      1  0.4893310000000  0.4477490000000  0.5114130000000 1.0
C      1  0.4851290000000  0.4472920000000  0.4816400000000 1.0
C      1  0.5882040000000  0.4311240000000  0.5358240000000 1.0
C      1  0.5258960000000  0.5647190000000  0.6028990000000 1.0
C      1  0.4740370000000  0.4265860000000  0.5564330000000 1.0
C      1  0.5561170000000  0.4477120000000  0.5923450000000 1.0
C      1  0.5151080000000  0.4353230000000  0.5803230000000 1.0
C      1  0.4237700000000  0.4311400000000  0.4883650000000 1.0
C      1  0.4526150000000  0.4913690000000  0.5098250000000 1.0
C      1  0.5888490000000  0.4654220000000  0.4814770000000 1.0
C      1  0.5569150000000  0.4961530000000  0.5389980000000 1.0
C      1  0.4555640000000  0.5667900000000  0.5664880000000 1.0
C      1  0.4775540000000  0.6014280000000  0.5552700000000 1.0
C      1  0.5894630000000  0.5588200000000  0.5115510000000 1.0
C      1  0.4132960000000  0.4669930000000  0.5549130000000 1.0
C      1  0.5299160000000  0.4395500000000  0.4691450000000 1.0
C      1  0.4074090000000  0.4655680000000  0.5265050000000 1.0
C      1  0.4656750000000  0.5972910000000  0.4466470000000 1.0
C      1  0.6007640000000  0.5033170000000  0.4644680000000 1.0
C      1  0.4975050000000  0.4639170000000  0.4609700000000 1.0
C      1  0.4102620000000  0.4925070000000  0.5682180000000 1.0
C      1  0.4668440000000  0.5504540000000  0.5026800000000 1.0
C      1  0.5361140000000  0.5003180000000  0.6010490000000 1.0
C      1  0.5385440000000  0.5618820000000  0.4378690000000 1.0
C      1  0.4339390000000  0.5876980000000  0.5318320000000 1.0
C      1  0.5439730000000  0.5876070000000  0.4497490000000 1.0
C      1  0.4568880000000  0.4579240000000  0.4768240000000 1.0
C      1  0.4536900000000  0.4390100000000  0.4340400000000 1.0
C      1  0.4426060000000  0.5403910000000  0.3976070000000 1.0
C      1  0.5462420000000  0.3980190000000  0.4621950000000 1.0
C      1  0.4992910000000  0.5525850000000  0.4699130000000 1.0
C      1  0.4384900000000  0.4277980000000  0.5279300000000 1.0
C      1  0.5216610000000  0.6036990000000  0.4614750000000 1.0
C      1  0.6021650000000  0.4500380000000  0.5196570000000 1.0
C      1  0.4405290000000  0.5311330000000  0.4564170000000 1.0
C      1  0.4874840000000  0.4808350000000  0.6102500000000 1.0
C      1  0.5787130000000  0.4225450000000  0.4762760000000 1.0
C      1  0.4680360000000  0.4628630000000  0.6016740000000 1.0
C      1  0.5428660000000  0.5860740000000  0.5569720000000 1.0
C      1  0.5958740000000  0.4426110000000  0.4893540000000 1.0
C      1  0.4118090000000  0.4486660000000  0.4697190000000 1.0
C      1  0.4714990000000  0.5276460000000  0.5919490000000 1.0
C      1  0.5484280000000  0.5458280000000  0.4165830000000 1.0
C      1  0.5221460000000  0.5182470000000  0.4680570000000 1.0
END
