TITL C-4164239-2837-54 6.22550823751726 125000 -27082.7381412205 0 0 180 (C1) n - 1
REM
REM in /home/nfs/bkarasulu/CARBON/AIRSS/Generating-Clusters/ReaxFF-fromJPCA2015/Units_Real/with-SteepDescent/Only-C1/SD-CG/Try1-3A/FIRE-CG
REM
REM
REM
REM
REM
REM ./C.cell (11c1c37f851c82e70ff6c80c92926a4b)
REM
REM compiler GCC version 9.2.1 20190827 (Red Hat 9.2.1-1)
REM options -cpp -mtune=generic -march=x86-64 -g -O0 -fpre-include=/usr/include/finclude/math-vector-fortran.h
REM seed 821686007 -537443942 -1352382394 -543374498 -1034205262 1625306417 1607085041 -1641639829 -2061308096 619288653 1580484700 -947304395 2081146064 -1245743996 -756952323 1029334927 962674717 -2098385399 -1723369798 -582728350 -382141882 -779605403 496741809 2079605143 1435987490 -1779330844 -840294599 1098865887 -1607046535 1620470669 418195556 1084830270 -1623387067
REM
CELL 1.54180   50.00000   50.00000   50.00000   90.00000   90.00000   90.00000
LATT -1
SFAC C  
C      1  0.4452340000000  0.4881320000000  0.4537500000000 1.0
C      1  0.5431940000000  0.4733630000000  0.5651630000000 1.0
C      1  0.5063210000000  0.5305220000000  0.4645100000000 1.0
C      1  0.5329530000000  0.5270440000000  0.4549550000000 1.0
C      1  0.5057990000000  0.4796060000000  0.6029540000000 1.0
C      1  0.4221020000000  0.4658790000000  0.4167550000000 1.0
C      1  0.5954410000000  0.4378640000000  0.5086090000000 1.0
C      1  0.5852550000000  0.5431970000000  0.4650070000000 1.0
C      1  0.5356710000000  0.6114000000000  0.5040570000000 1.0
C      1  0.4179630000000  0.4722870000000  0.5639050000000 1.0
C      1  0.5259490000000  0.4686590000000  0.4137610000000 1.0
C      1  0.5195740000000  0.4550460000000  0.4980650000000 1.0
C      1  0.4795340000000  0.4130710000000  0.4304300000000 1.0
C      1  0.5938450000000  0.4513850000000  0.4833760000000 1.0
C      1  0.5417820000000  0.5715010000000  0.4432200000000 1.0
C      1  0.4831260000000  0.4865670000000  0.4844140000000 1.0
C      1  0.5011550000000  0.5541300000000  0.6258800000000 1.0
C      1  0.4740310000000  0.4173140000000  0.5178650000000 1.0
C      1  0.5901140000000  0.4890360000000  0.4493010000000 1.0
C      1  0.5958840000000  0.5451740000000  0.4931600000000 1.0
C      1  0.5582000000000  0.5116990000000  0.5208360000000 1.0
C      1  0.3990800000000  0.4725500000000  0.5119400000000 1.0
C      1  0.4565300000000  0.5989740000000  0.5420420000000 1.0
C      1  0.5077240000000  0.4729360000000  0.5180760000000 1.0
C      1  0.4462630000000  0.4067370000000  0.5255980000000 1.0
C      1  0.5563800000000  0.4293050000000  0.4332480000000 1.0
C      1  0.5107120000000  0.4673490000000  0.4504000000000 1.0
C      1  0.5211260000000  0.3949140000000  0.5118060000000 1.0
C      1  0.4347030000000  0.5348860000000  0.5047020000000 1.0
C      1  0.4921000000000  0.4547810000000  0.5945510000000 1.0
C      1  0.4717930000000  0.5456390000000  0.6178040000000 1.0
C      1  0.5751680000000  0.5041470000000  0.5758310000000 1.0
C      1  0.5058440000000  0.4273750000000  0.5920530000000 1.0
C      1  0.4631660000000  0.4047960000000  0.5738260000000 1.0
C      1  0.4764470000000  0.5205890000000  0.6132550000000 1.0
C      1  0.5867030000000  0.5187060000000  0.4479020000000 1.0
C      1  0.4083460000000  0.4869170000000  0.5397670000000 1.0
C      1  0.4375370000000  0.5390990000000  0.5811030000000 1.0
C      1  0.5586390000000  0.4685960000000  0.5425400000000 1.0
C      1  0.4725260000000  0.5108770000000  0.4941660000000 1.0
C      1  0.4076470000000  0.4510920000000  0.4936520000000 1.0
C      1  0.4653450000000  0.5052520000000  0.4397410000000 1.0
C      1  0.4606970000000  0.5744630000000  0.4224150000000 1.0
C      1  0.4694110000000  0.4506410000000  0.4405240000000 1.0
C      1  0.4192190000000  0.4287780000000  0.5042080000000 1.0
C      1  0.5049130000000  0.4409390000000  0.5433250000000 1.0
C      1  0.4489460000000  0.5534650000000  0.4870090000000 1.0
C      1  0.5404960000000  0.4041970000000  0.4912300000000 1.0
C      1  0.5450100000000  0.5307660000000  0.5003570000000 1.0
C      1  0.5341680000000  0.4230410000000  0.5506720000000 1.0
C      1  0.4915250000000  0.4645060000000  0.5388590000000 1.0
C      1  0.4914170000000  0.5376400000000  0.4004040000000 1.0
C      1  0.6022440000000  0.4838820000000  0.5303950000000 1.0
C      1  0.5223000000000  0.5383080000000  0.6145390000000 1.0
C      1  0.4053130000000  0.5154820000000  0.4463360000000 1.0
C      1  0.4832810000000  0.4895610000000  0.5539280000000 1.0
C      1  0.5328120000000  0.4918190000000  0.6032250000000 1.0
C      1  0.4919330000000  0.5086590000000  0.4518990000000 1.0
C      1  0.5552440000000  0.4838460000000  0.5195300000000 1.0
C      1  0.4978510000000  0.3957510000000  0.5533160000000 1.0
C      1  0.5235890000000  0.4969440000000  0.4045300000000 1.0
C      1  0.4194760000000  0.5817150000000  0.5152890000000 1.0
C      1  0.4739370000000  0.4937560000000  0.4112620000000 1.0
C      1  0.5400890000000  0.5204890000000  0.6030340000000 1.0
C      1  0.4411190000000  0.5968500000000  0.5154860000000 1.0
C      1  0.5614870000000  0.5287000000000  0.5819690000000 1.0
C      1  0.5367120000000  0.4671130000000  0.4403030000000 1.0
C      1  0.4661370000000  0.5477290000000  0.4114540000000 1.0
C      1  0.5540410000000  0.6037800000000  0.5246720000000 1.0
C      1  0.4667580000000  0.4456040000000  0.5107360000000 1.0
C      1  0.6058780000000  0.4932550000000  0.5015030000000 1.0
C      1  0.4867470000000  0.5533460000000  0.4570150000000 1.0
C      1  0.4226930000000  0.5217510000000  0.4237080000000 1.0
C      1  0.3976970000000  0.5335850000000  0.4683700000000 1.0
C      1  0.5179990000000  0.5508060000000  0.3962030000000 1.0
C      1  0.5561370000000  0.4506100000000  0.4523530000000 1.0
C      1  0.4429050000000  0.4173800000000  0.4709870000000 1.0
C      1  0.5079080000000  0.4200650000000  0.4216680000000 1.0
C      1  0.4044930000000  0.5609390000000  0.4760990000000 1.0
C      1  0.5486810000000  0.5180710000000  0.4737750000000 1.0
C      1  0.5069260000000  0.5028630000000  0.5152710000000 1.0
C      1  0.4707980000000  0.4656280000000  0.4117120000000 1.0
C      1  0.4875270000000  0.5747190000000  0.4366100000000 1.0
C      1  0.5353650000000  0.5852570000000  0.4873430000000 1.0
C      1  0.5325800000000  0.4255340000000  0.5826560000000 1.0
C      1  0.5619110000000  0.4247680000000  0.5392510000000 1.0
C      1  0.5240470000000  0.3966420000000  0.5406260000000 1.0
C      1  0.4546820000000  0.5562140000000  0.5944030000000 1.0
C      1  0.5243810000000  0.4935170000000  0.5602720000000 1.0
C      1  0.4599010000000  0.5441320000000  0.4617580000000 1.0
C      1  0.5795330000000  0.5492170000000  0.5421390000000 1.0
C      1  0.4558290000000  0.4277470000000  0.4229920000000 1.0
C      1  0.5473940000000  0.5057860000000  0.3897340000000 1.0
C      1  0.5696730000000  0.5206790000000  0.4245370000000 1.0
C      1  0.4550320000000  0.4810440000000  0.5933950000000 1.0
C      1  0.5084500000000  0.4376780000000  0.4779450000000 1.0
C      1  0.4463540000000  0.4508030000000  0.4075060000000 1.0
C      1  0.4490370000000  0.5859550000000  0.4864050000000 1.0
C      1  0.5177270000000  0.5801140000000  0.5793140000000 1.0
C      1  0.4092820000000  0.5148420000000  0.5426960000000 1.0
C      1  0.5730330000000  0.4174440000000  0.5129460000000 1.0
C      1  0.4720170000000  0.5601970000000  0.5706480000000 1.0
C      1  0.5012120000000  0.5561650000000  0.5738020000000 1.0
C      1  0.4654370000000  0.5710810000000  0.5436640000000 1.0
C      1  0.4867250000000  0.6170490000000  0.4895060000000 1.0
C      1  0.5763250000000  0.4481310000000  0.5471060000000 1.0
C      1  0.4308480000000  0.4917520000000  0.5817710000000 1.0
C      1  0.5611520000000  0.4200460000000  0.4892690000000 1.0
C      1  0.4644000000000  0.4648660000000  0.4888690000000 1.0
C      1  0.5741700000000  0.5867300000000  0.5091490000000 1.0
C      1  0.5566900000000  0.4848830000000  0.5887380000000 1.0
C      1  0.5107140000000  0.5578190000000  0.5259460000000 1.0
C      1  0.4439930000000  0.5080330000000  0.4988950000000 1.0
C      1  0.4959380000000  0.5087700000000  0.4005280000000 1.0
C      1  0.4632420000000  0.5082580000000  0.5440170000000 1.0
C      1  0.5310930000000  0.5592380000000  0.5058500000000 1.0
C      1  0.4889900000000  0.6032050000000  0.5138100000000 1.0
C      1  0.4170060000000  0.4887230000000  0.4539550000000 1.0
C      1  0.5223370000000  0.5856710000000  0.4587420000000 1.0
C      1  0.5209180000000  0.4110020000000  0.4682730000000 1.0
C      1  0.4440410000000  0.4132490000000  0.5546700000000 1.0
C      1  0.3922850000000  0.5174600000000  0.4923520000000 1.0
C      1  0.4684590000000  0.4076580000000  0.4581620000000 1.0
C      1  0.5357940000000  0.5543810000000  0.4197010000000 1.0
C      1  0.4347180000000  0.4070040000000  0.4983820000000 1.0
C      1  0.4508420000000  0.5323490000000  0.4325360000000 1.0
C      1  0.6009290000000  0.5192660000000  0.4971070000000 1.0
C      1  0.4871830000000  0.5759050000000  0.5241400000000 1.0
C      1  0.5656670000000  0.5845000000000  0.4812190000000 1.0
C      1  0.4726480000000  0.5996490000000  0.4746850000000 1.0
C      1  0.5492250000000  0.4405570000000  0.3934920000000 1.0
C      1  0.5379320000000  0.5331180000000  0.3823240000000 1.0
C      1  0.5070670000000  0.5115530000000  0.5558880000000 1.0
C      1  0.5638840000000  0.4465200000000  0.4788370000000 1.0
C      1  0.5857610000000  0.5621030000000  0.5171040000000 1.0
C      1  0.5453950000000  0.4712060000000  0.4939030000000 1.0
C      1  0.4898490000000  0.4195010000000  0.5407780000000 1.0
C      1  0.5631630000000  0.5530200000000  0.5660740000000 1.0
C      1  0.4825170000000  0.6084950000000  0.5539860000000 1.0
C      1  0.4942910000000  0.3975050000000  0.5010880000000 1.0
C      1  0.5092550000000  0.6218940000000  0.5068230000000 1.0
C      1  0.5717950000000  0.4979660000000  0.4066170000000 1.0
C      1  0.5696480000000  0.4478600000000  0.4142060000000 1.0
C      1  0.5404310000000  0.5262770000000  0.4280610000000 1.0
C      1  0.5454920000000  0.5773830000000  0.5683000000000 1.0
C      1  0.5101590000000  0.6024920000000  0.5618380000000 1.0
C      1  0.4225400000000  0.5182160000000  0.5699250000000 1.0
C      1  0.4268600000000  0.4435090000000  0.4652690000000 1.0
C      1  0.4063660000000  0.5330940000000  0.5163730000000 1.0
C      1  0.4245250000000  0.5797540000000  0.4643300000000 1.0
C      1  0.5792800000000  0.4761930000000  0.4240950000000 1.0
C      1  0.4635400000000  0.4550900000000  0.5864710000000 1.0
C      1  0.5109260000000  0.5414590000000  0.5510190000000 1.0
C      1  0.5152290000000  0.5230400000000  0.4966840000000 1.0
C      1  0.4331990000000  0.4562880000000  0.5479990000000 1.0
C      1  0.4439420000000  0.4405050000000  0.5678190000000 1.0
C      1  0.5789220000000  0.5212640000000  0.5360630000000 1.0
C      1  0.5205660000000  0.4413680000000  0.4033970000000 1.0
C      1  0.5404760000000  0.5988100000000  0.5498370000000 1.0
C      1  0.4390320000000  0.5783680000000  0.4407270000000 1.0
C      1  0.4901200000000  0.4028400000000  0.5813350000000 1.0
C      1  0.6002460000000  0.4550470000000  0.5315270000000 1.0
C      1  0.4528270000000  0.4637480000000  0.5281860000000 1.0
C      1  0.5998030000000  0.4782180000000  0.4751830000000 1.0
C      1  0.4800840000000  0.4940490000000  0.6074150000000 1.0
C      1  0.4201710000000  0.4955140000000  0.4111360000000 1.0
C      1  0.5305570000000  0.4162300000000  0.4378380000000 1.0
C      1  0.3945970000000  0.4903260000000  0.4948670000000 1.0
C      1  0.4513550000000  0.4613350000000  0.4615030000000 1.0
C      1  0.5370990000000  0.4928130000000  0.4749370000000 1.0
C      1  0.4017510000000  0.5623500000000  0.5056640000000 1.0
C      1  0.4822260000000  0.5166980000000  0.5207870000000 1.0
C      1  0.5677880000000  0.5662580000000  0.4593330000000 1.0
C      1  0.5053760000000  0.4885060000000  0.4658800000000 1.0
C      1  0.4949780000000  0.4449990000000  0.4536660000000 1.0
C      1  0.4945060000000  0.5962120000000  0.4558250000000 1.0
C      1  0.4924000000000  0.3983790000000  0.4733050000000 1.0
C      1  0.4440500000000  0.4796880000000  0.5053270000000 1.0
C      1  0.4139860000000  0.4609760000000  0.4444040000000 1.0
C      1  0.5914070000000  0.5011560000000  0.5509920000000 1.0
END
