TITL C-4164245-3996-421 -23.4204348446225 125000 -9668.66693090343 0 0 64 (C1) n - 1
REM
REM in /home/nfs/bkarasulu/CARBON/AIRSS/Generating-Clusters/ReaxFF-fromJPCA2015/Units_Real/with-SteepDescent/Only-C1/SD-CG/Try1-3A/FIRE-CG
REM
REM
REM
REM
REM
REM ./C.cell (11c1c37f851c82e70ff6c80c92926a4b)
REM
REM compiler GCC version 9.2.1 20190827 (Red Hat 9.2.1-1)
REM options -cpp -mtune=generic -march=x86-64 -g -O0 -fpre-include=/usr/include/finclude/math-vector-fortran.h
REM seed 876801514 -1223044339 -1200847958 1587503346 -1323490774 -1419193595 -2008577962 1272272648 -958068367 -586424314 -294736709 2121887903 -1696531637 849262701 276592056 -937851115 935568558 -906710453 1314024133 156196041 1553833641 674865878 193830467 -1553406213 1725458839 534683675 1562742057 190764246 -2114561255 -890378975 1739043347 1377781514 1846921232
REM
CELL 1.54180   50.00000   50.00000   50.00000   90.00000   90.00000   90.00000
LATT -1
SFAC C  
C      1  0.5133360000000  0.5467890000000  0.5742840000000 1.0
C      1  0.5303340000000  0.5027770000000  0.5359050000000 1.0
C      1  0.4745200000000  0.4680190000000  0.5620740000000 1.0
C      1  0.4594220000000  0.5102410000000  0.4323240000000 1.0
C      1  0.5100220000000  0.5000310000000  0.4910840000000 1.0
C      1  0.5188620000000  0.5442860000000  0.4528640000000 1.0
C      1  0.5631970000000  0.4585580000000  0.4894730000000 1.0
C      1  0.5205610000000  0.5597570000000  0.5477900000000 1.0
C      1  0.4793580000000  0.4359680000000  0.5355940000000 1.0
C      1  0.5519400000000  0.4409470000000  0.5086720000000 1.0
C      1  0.5235220000000  0.5460410000000  0.4841760000000 1.0
C      1  0.5517500000000  0.4574710000000  0.5335620000000 1.0
C      1  0.4830140000000  0.5292580000000  0.4278140000000 1.0
C      1  0.4963850000000  0.4831250000000  0.4226210000000 1.0
C      1  0.4580340000000  0.4507350000000  0.5448910000000 1.0
C      1  0.5574830000000  0.4846490000000  0.4991500000000 1.0
C      1  0.5286120000000  0.4893780000000  0.5103500000000 1.0
C      1  0.5605270000000  0.5343810000000  0.5196710000000 1.0
C      1  0.4932030000000  0.5517630000000  0.4431440000000 1.0
C      1  0.4889600000000  0.4858880000000  0.5050060000000 1.0
C      1  0.4911290000000  0.4816840000000  0.4781480000000 1.0
C      1  0.4771160000000  0.5720010000000  0.4604990000000 1.0
C      1  0.5593890000000  0.5092820000000  0.5371780000000 1.0
C      1  0.5516220000000  0.5332760000000  0.4912920000000 1.0
C      1  0.5576820000000  0.5091940000000  0.4780810000000 1.0
C      1  0.5273080000000  0.4560010000000  0.5505110000000 1.0
C      1  0.4558630000000  0.4458130000000  0.4726250000000 1.0
C      1  0.5179060000000  0.4962070000000  0.5622510000000 1.0
C      1  0.4746310000000  0.5309270000000  0.5052410000000 1.0
C      1  0.4425930000000  0.4665000000000  0.5244720000000 1.0
C      1  0.4502290000000  0.4932940000000  0.5334430000000 1.0
C      1  0.5277690000000  0.5201550000000  0.4398980000000 1.0
C      1  0.4832100000000  0.4353470000000  0.4713170000000 1.0
C      1  0.4918540000000  0.4290140000000  0.5170580000000 1.0
C      1  0.4582180000000  0.4607480000000  0.4479290000000 1.0
C      1  0.5459650000000  0.4507530000000  0.4688800000000 1.0
C      1  0.4889730000000  0.5772500000000  0.4858150000000 1.0
C      1  0.5032330000000  0.4256180000000  0.4919740000000 1.0
C      1  0.4673670000000  0.5213820000000  0.5708320000000 1.0
C      1  0.4432190000000  0.5124110000000  0.4546350000000 1.0
C      1  0.4608110000000  0.4937410000000  0.5607500000000 1.0
C      1  0.4560690000000  0.5583900000000  0.4732350000000 1.0
C      1  0.5163950000000  0.5187350000000  0.5813270000000 1.0
C      1  0.4703810000000  0.5037010000000  0.5150990000000 1.0
C      1  0.4908580000000  0.5323110000000  0.5867250000000 1.0
C      1  0.4399700000000  0.4620400000000  0.4952100000000 1.0
C      1  0.4979810000000  0.4590710000000  0.4623660000000 1.0
C      1  0.5012890000000  0.5698470000000  0.5260810000000 1.0
C      1  0.5415510000000  0.5472240000000  0.5350700000000 1.0
C      1  0.4769020000000  0.5535120000000  0.5282120000000 1.0
C      1  0.4715870000000  0.5394830000000  0.5506300000000 1.0
C      1  0.4473080000000  0.5378100000000  0.4885960000000 1.0
C      1  0.5132420000000  0.4647100000000  0.4377340000000 1.0
C      1  0.4295150000000  0.5143300000000  0.4789020000000 1.0
C      1  0.4336030000000  0.4876330000000  0.4889040000000 1.0
C      1  0.5019220000000  0.5275550000000  0.4930490000000 1.0
C      1  0.5050990000000  0.4696340000000  0.5640540000000 1.0
C      1  0.4678360000000  0.4813080000000  0.4286930000000 1.0
C      1  0.5666770000000  0.4827810000000  0.5284950000000 1.0
C      1  0.5123240000000  0.5726330000000  0.4993410000000 1.0
C      1  0.5313890000000  0.4333880000000  0.4887810000000 1.0
C      1  0.5051120000000  0.5112390000000  0.4228950000000 1.0
C      1  0.5451540000000  0.5003070000000  0.4535940000000 1.0
C      1  0.5387030000000  0.4716960000000  0.4497280000000 1.0
END
