TITL C-4164245-3996-698 -5.62505917095759 125000 -12106.9750661533 0 0 83 (C1) n - 1
REM
REM in /home/nfs/bkarasulu/CARBON/AIRSS/Generating-Clusters/ReaxFF-fromJPCA2015/Units_Real/with-SteepDescent/Only-C1/SD-CG/Try1-3A/FIRE-CG
REM
REM
REM
REM
REM
REM ./C.cell (11c1c37f851c82e70ff6c80c92926a4b)
REM
REM compiler GCC version 9.2.1 20190827 (Red Hat 9.2.1-1)
REM options -cpp -mtune=generic -march=x86-64 -g -O0 -fpre-include=/usr/include/finclude/math-vector-fortran.h
REM seed 1289226667 -1419065281 -1663276671 596638379 -906188342 372982706 -1681900366 -1150480645 1762174612 -883182574 1761770545 361873965 -1652922360 2122487785 -1745082170 1304848041 -1184265801 -131032525 1756813606 -746795055 1527478726 1157573508 -2131433942 787741692 -1414710075 -1414629128 -833071961 -420371533 1984997831 432382405 2082844553 2085598647 1926419927
REM
CELL 1.54180   50.00000   50.00000   50.00000   90.00000   90.00000   90.00000
LATT -1
SFAC C  
C      1  0.5233250000000  0.4267230000000  0.5149410000000 1.0
C      1  0.4634860000000  0.5647970000000  0.5242850000000 1.0
C      1  0.4804580000000  0.4650740000000  0.4282530000000 1.0
C      1  0.5793340000000  0.5219630000000  0.5422520000000 1.0
C      1  0.4998570000000  0.5572080000000  0.5597390000000 1.0
C      1  0.4193070000000  0.5187120000000  0.5325160000000 1.0
C      1  0.5766830000000  0.5701390000000  0.5199980000000 1.0
C      1  0.4855900000000  0.5270000000000  0.4974190000000 1.0
C      1  0.4787190000000  0.5056580000000  0.4818200000000 1.0
C      1  0.4568080000000  0.4501020000000  0.5315320000000 1.0
C      1  0.5210960000000  0.4166170000000  0.4891590000000 1.0
C      1  0.4270670000000  0.5140480000000  0.4823920000000 1.0
C      1  0.4851380000000  0.5850610000000  0.5234170000000 1.0
C      1  0.4875980000000  0.5217610000000  0.5279820000000 1.0
C      1  0.5264240000000  0.5362000000000  0.4440020000000 1.0
C      1  0.4384490000000  0.5047670000000  0.5813770000000 1.0
C      1  0.5699570000000  0.4709790000000  0.5334530000000 1.0
C      1  0.5162550000000  0.5692130000000  0.4859030000000 1.0
C      1  0.4921640000000  0.4631470000000  0.4544670000000 1.0
C      1  0.5297940000000  0.5008510000000  0.5118060000000 1.0
C      1  0.4266040000000  0.5304000000000  0.5070560000000 1.0
C      1  0.4593900000000  0.4936790000000  0.5896400000000 1.0
C      1  0.5522480000000  0.5478860000000  0.4505910000000 1.0
C      1  0.5458560000000  0.5663610000000  0.4728990000000 1.0
C      1  0.5763060000000  0.4663510000000  0.5040320000000 1.0
C      1  0.4802970000000  0.4441970000000  0.5448350000000 1.0
C      1  0.4943260000000  0.5817220000000  0.4770820000000 1.0
C      1  0.5477460000000  0.4979210000000  0.4380740000000 1.0
C      1  0.5253700000000  0.4202120000000  0.5431830000000 1.0
C      1  0.5761350000000  0.4970860000000  0.5412500000000 1.0
C      1  0.4324730000000  0.4728190000000  0.5080820000000 1.0
C      1  0.4487010000000  0.5558040000000  0.4755760000000 1.0
C      1  0.5228390000000  0.5190080000000  0.4682510000000 1.0
C      1  0.5561400000000  0.4528630000000  0.4887210000000 1.0
C      1  0.5202720000000  0.4594850000000  0.4522930000000 1.0
C      1  0.4996170000000  0.4197720000000  0.4719310000000 1.0
C      1  0.5132160000000  0.4783270000000  0.5051460000000 1.0
C      1  0.5253030000000  0.4343530000000  0.4674390000000 1.0
C      1  0.5611130000000  0.4711670000000  0.4660640000000 1.0
C      1  0.4780400000000  0.5473260000000  0.5419720000000 1.0
C      1  0.5051020000000  0.4808560000000  0.5684830000000 1.0
C      1  0.4798570000000  0.4184220000000  0.5409870000000 1.0
C      1  0.5041350000000  0.4783670000000  0.4193890000000 1.0
C      1  0.5658230000000  0.5735240000000  0.4911090000000 1.0
C      1  0.5131620000000  0.5826450000000  0.5124350000000 1.0
C      1  0.5076180000000  0.5793660000000  0.5409130000000 1.0
C      1  0.5019530000000  0.4050300000000  0.5421320000000 1.0
C      1  0.5043040000000  0.5423070000000  0.4779120000000 1.0
C      1  0.4502440000000  0.4689800000000  0.4368990000000 1.0
C      1  0.4380240000000  0.4624540000000  0.4638740000000 1.0
C      1  0.4752010000000  0.4327860000000  0.4803460000000 1.0
C      1  0.4838050000000  0.4798800000000  0.4974860000000 1.0
C      1  0.4475330000000  0.4958220000000  0.4419570000000 1.0
C      1  0.5128010000000  0.5336810000000  0.5695240000000 1.0
C      1  0.4279660000000  0.4840290000000  0.4816610000000 1.0
C      1  0.5808900000000  0.4862580000000  0.4827960000000 1.0
C      1  0.4798480000000  0.4593880000000  0.4772670000000 1.0
C      1  0.5791580000000  0.5459000000000  0.5346960000000 1.0
C      1  0.4462840000000  0.4380720000000  0.4800160000000 1.0
C      1  0.5046320000000  0.4603020000000  0.5510320000000 1.0
C      1  0.5633170000000  0.5203460000000  0.4502950000000 1.0
C      1  0.4666020000000  0.5148850000000  0.4525580000000 1.0
C      1  0.5426380000000  0.4623190000000  0.5377950000000 1.0
C      1  0.4395230000000  0.4447550000000  0.5077670000000 1.0
C      1  0.4227280000000  0.5170670000000  0.5619790000000 1.0
C      1  0.4594180000000  0.4774800000000  0.5220050000000 1.0
C      1  0.5196730000000  0.5071930000000  0.5627520000000 1.0
C      1  0.4440020000000  0.5186120000000  0.5440730000000 1.0
C      1  0.4767080000000  0.4906030000000  0.5694020000000 1.0
C      1  0.4719300000000  0.5712350000000  0.4638410000000 1.0
C      1  0.5696500000000  0.5130420000000  0.4781400000000 1.0
C      1  0.4439020000000  0.5540280000000  0.5039960000000 1.0
C      1  0.4657290000000  0.4995170000000  0.5407120000000 1.0
C      1  0.4409540000000  0.5305000000000  0.4631180000000 1.0
C      1  0.5112600000000  0.5252000000000  0.4210540000000 1.0
C      1  0.5245600000000  0.4985990000000  0.4190130000000 1.0
C      1  0.5363890000000  0.4827250000000  0.4577550000000 1.0
C      1  0.5172120000000  0.5150810000000  0.5340700000000 1.0
C      1  0.5321260000000  0.4549520000000  0.5104570000000 1.0
C      1  0.4888980000000  0.5522310000000  0.4495290000000 1.0
C      1  0.5427660000000  0.5158110000000  0.4893020000000 1.0
C      1  0.5272510000000  0.4476430000000  0.5576740000000 1.0
C      1  0.4849270000000  0.5313470000000  0.4309680000000 1.0
END
