TITL C-4164232-771-38 131.960014514671 125000 -28804.1100522692 0 0 192 (C1) n - 1
REM
REM in /home/nfs/bkarasulu/CARBON/AIRSS/Generating-Clusters/ReaxFF-fromJPCA2015/Units_Real/with-SteepDescent/Only-C1/SD-CG/Try1-3A/FIRE-CG
REM
REM
REM
REM
REM
REM ./C.cell (11c1c37f851c82e70ff6c80c92926a4b)
REM
REM compiler GCC version 9.2.1 20190827 (Red Hat 9.2.1-1)
REM options -cpp -mtune=generic -march=x86-64 -g -O0 -fpre-include=/usr/include/finclude/math-vector-fortran.h
REM seed 300414090 592304513 -526442415 -1601976738 1367329431 -1373055265 -469047765 -1327126944 2078486872 1909894115 -348350387 -1807260410 406684579 -1695872762 1709429789 -1959450970 1765554708 402635798 -842421926 1211665712 -1165883172 -1630468597 -981422895 1752065527 485142972 -2128163687 -1234886497 1599047906 221363717 1708412171 -2115443097 -1927038605 1712820948
REM
CELL 1.54180   50.00000   50.00000   50.00000   90.00000   90.00000   90.00000
LATT -1
SFAC C  
C      1  0.5752570000000  0.5439940000000  0.5834220000000 1.0
C      1  0.3963580000000  0.5413730000000  0.4817140000000 1.0
C      1  0.4669060000000  0.4743770000000  0.4913780000000 1.0
C      1  0.4285960000000  0.4528270000000  0.5727960000000 1.0
C      1  0.5476040000000  0.5555880000000  0.5894630000000 1.0
C      1  0.5000570000000  0.4508580000000  0.5587580000000 1.0
C      1  0.4995410000000  0.5128270000000  0.3766430000000 1.0
C      1  0.6134730000000  0.4702510000000  0.4780210000000 1.0
C      1  0.4900500000000  0.5803690000000  0.5917710000000 1.0
C      1  0.4734670000000  0.3909090000000  0.5317620000000 1.0
C      1  0.5475910000000  0.4562300000000  0.4087160000000 1.0
C      1  0.3974570000000  0.4879270000000  0.5548590000000 1.0
C      1  0.5252980000000  0.3951970000000  0.5301790000000 1.0
C      1  0.4530940000000  0.4903310000000  0.4713980000000 1.0
C      1  0.5445900000000  0.5515650000000  0.4591060000000 1.0
C      1  0.6112790000000  0.4757830000000  0.5063500000000 1.0
C      1  0.5555210000000  0.5046710000000  0.5543730000000 1.0
C      1  0.5516560000000  0.4184830000000  0.4406050000000 1.0
C      1  0.5107010000000  0.5415880000000  0.5491280000000 1.0
C      1  0.4727370000000  0.4851260000000  0.6153240000000 1.0
C      1  0.5048470000000  0.5864960000000  0.4387740000000 1.0
C      1  0.4073820000000  0.4194620000000  0.4859150000000 1.0
C      1  0.5093760000000  0.4676490000000  0.5172860000000 1.0
C      1  0.5786050000000  0.5490400000000  0.5309720000000 1.0
C      1  0.5398150000000  0.3998190000000  0.4605890000000 1.0
C      1  0.4744180000000  0.4953160000000  0.5503460000000 1.0
C      1  0.4702390000000  0.5858530000000  0.5733320000000 1.0
C      1  0.4521310000000  0.6050030000000  0.5045960000000 1.0
C      1  0.5995750000000  0.5360710000000  0.4832390000000 1.0
C      1  0.5230210000000  0.4346280000000  0.5679280000000 1.0
C      1  0.4507310000000  0.5913950000000  0.5535580000000 1.0
C      1  0.4313140000000  0.4949940000000  0.4162650000000 1.0
C      1  0.4112380000000  0.4367400000000  0.4601360000000 1.0
C      1  0.4046360000000  0.4650830000000  0.4649310000000 1.0
C      1  0.4385390000000  0.5565770000000  0.4268100000000 1.0
C      1  0.4557760000000  0.5355000000000  0.4700740000000 1.0
C      1  0.5424970000000  0.4847200000000  0.4779370000000 1.0
C      1  0.5598410000000  0.5552730000000  0.4188160000000 1.0
C      1  0.6025040000000  0.4432330000000  0.4831460000000 1.0
C      1  0.4735130000000  0.4427730000000  0.5978060000000 1.0
C      1  0.5170590000000  0.4757350000000  0.6017990000000 1.0
C      1  0.5731150000000  0.4911460000000  0.4281700000000 1.0
C      1  0.4376380000000  0.5141270000000  0.4742830000000 1.0
C      1  0.5247000000000  0.4947560000000  0.4343230000000 1.0
C      1  0.4722580000000  0.4407490000000  0.4172110000000 1.0
C      1  0.5160870000000  0.4876300000000  0.3781320000000 1.0
C      1  0.4008990000000  0.4953500000000  0.4583220000000 1.0
C      1  0.5215950000000  0.4348290000000  0.4819950000000 1.0
C      1  0.4184240000000  0.5095250000000  0.4397350000000 1.0
C      1  0.4551760000000  0.4877470000000  0.5315840000000 1.0
C      1  0.4779330000000  0.5489310000000  0.4002700000000 1.0
C      1  0.5488150000000  0.3935020000000  0.5117760000000 1.0
C      1  0.5946880000000  0.5088510000000  0.5713300000000 1.0
C      1  0.4095430000000  0.4580360000000  0.5550120000000 1.0
C      1  0.5271920000000  0.5473710000000  0.3954350000000 1.0
C      1  0.4281360000000  0.5515430000000  0.5726030000000 1.0
C      1  0.5434510000000  0.6012580000000  0.4682530000000 1.0
C      1  0.4895330000000  0.5369420000000  0.5324630000000 1.0
C      1  0.3808620000000  0.4993770000000  0.5046640000000 1.0
C      1  0.4441090000000  0.5337690000000  0.5908720000000 1.0
C      1  0.5960110000000  0.4414530000000  0.5354550000000 1.0
C      1  0.5189420000000  0.4484670000000  0.4569410000000 1.0
C      1  0.5577900000000  0.4715120000000  0.5193140000000 1.0
C      1  0.5556520000000  0.5049070000000  0.5837320000000 1.0
C      1  0.4918980000000  0.4623970000000  0.6098090000000 1.0
C      1  0.4333070000000  0.5070440000000  0.5903090000000 1.0
C      1  0.4186090000000  0.5410870000000  0.4377070000000 1.0
C      1  0.5583330000000  0.5714260000000  0.5342490000000 1.0
C      1  0.4955620000000  0.3996640000000  0.4889230000000 1.0
C      1  0.5887020000000  0.5335910000000  0.4560790000000 1.0
C      1  0.4266340000000  0.5107640000000  0.4993360000000 1.0
C      1  0.5797750000000  0.5790350000000  0.4917070000000 1.0
C      1  0.5326090000000  0.4733800000000  0.4529930000000 1.0
C      1  0.4920210000000  0.4610700000000  0.4048260000000 1.0
C      1  0.5559260000000  0.3918930000000  0.4836050000000 1.0
C      1  0.4136200000000  0.5075760000000  0.5685820000000 1.0
C      1  0.4198450000000  0.5319280000000  0.5553860000000 1.0
C      1  0.4749130000000  0.4340390000000  0.5534160000000 1.0
C      1  0.4944640000000  0.6198170000000  0.4726010000000 1.0
C      1  0.5595600000000  0.5222980000000  0.5259140000000 1.0
C      1  0.5680340000000  0.4623440000000  0.4290870000000 1.0
C      1  0.4677170000000  0.3880720000000  0.4746650000000 1.0
C      1  0.5520100000000  0.4401930000000  0.5745320000000 1.0
C      1  0.5170570000000  0.5956830000000  0.5901030000000 1.0
C      1  0.4683130000000  0.5268170000000  0.4155690000000 1.0
C      1  0.5704260000000  0.4265400000000  0.5316090000000 1.0
C      1  0.5181880000000  0.4089070000000  0.4750060000000 1.0
C      1  0.4847610000000  0.4164140000000  0.4309190000000 1.0
C      1  0.4458920000000  0.5309500000000  0.5413310000000 1.0
C      1  0.5371440000000  0.5968700000000  0.4978050000000 1.0
C      1  0.4783120000000  0.4200230000000  0.5800660000000 1.0
C      1  0.4717450000000  0.4984760000000  0.4527490000000 1.0
C      1  0.5356880000000  0.4307160000000  0.4188700000000 1.0
C      1  0.6109400000000  0.4464310000000  0.5110340000000 1.0
C      1  0.4954210000000  0.5586690000000  0.4775410000000 1.0
C      1  0.4090950000000  0.4887420000000  0.5058120000000 1.0
C      1  0.5891150000000  0.5354440000000  0.5594140000000 1.0
C      1  0.5027160000000  0.4976080000000  0.5864210000000 1.0
C      1  0.5658020000000  0.4651230000000  0.5819710000000 1.0
C      1  0.5876710000000  0.4792760000000  0.5683310000000 1.0
C      1  0.5166920000000  0.6056820000000  0.4561480000000 1.0
C      1  0.5289630000000  0.4856390000000  0.5283710000000 1.0
C      1  0.5729390000000  0.4416280000000  0.4794420000000 1.0
C      1  0.4987340000000  0.3904410000000  0.5197880000000 1.0
C      1  0.4459570000000  0.4557420000000  0.5942000000000 1.0
C      1  0.5020890000000  0.5401950000000  0.3864470000000 1.0
C      1  0.5242700000000  0.4434580000000  0.5101980000000 1.0
C      1  0.5701010000000  0.5562060000000  0.4469400000000 1.0
C      1  0.5228490000000  0.5407080000000  0.5937530000000 1.0
C      1  0.5613950000000  0.5882930000000  0.5120670000000 1.0
C      1  0.5180480000000  0.5146670000000  0.4607600000000 1.0
C      1  0.4904510000000  0.4720540000000  0.3785150000000 1.0
C      1  0.4402390000000  0.4426170000000  0.4164550000000 1.0
C      1  0.4076050000000  0.4623660000000  0.4927190000000 1.0
C      1  0.4793010000000  0.5576080000000  0.5157780000000 1.0
C      1  0.4855280000000  0.5840230000000  0.5273060000000 1.0
C      1  0.4751490000000  0.5850670000000  0.4377820000000 1.0
C      1  0.4639520000000  0.6004820000000  0.5292370000000 1.0
C      1  0.4957700000000  0.5512060000000  0.5993440000000 1.0
C      1  0.4586810000000  0.4223330000000  0.5086010000000 1.0
C      1  0.4522080000000  0.3927230000000  0.5047710000000 1.0
C      1  0.5286220000000  0.5325370000000  0.5250920000000 1.0
C      1  0.5619510000000  0.4679300000000  0.4914760000000 1.0
C      1  0.5865650000000  0.4821990000000  0.5214220000000 1.0
C      1  0.4250370000000  0.4015350000000  0.4985490000000 1.0
C      1  0.4809800000000  0.4265010000000  0.4915320000000 1.0
C      1  0.5007950000000  0.4818360000000  0.4226810000000 1.0
C      1  0.4620240000000  0.5691740000000  0.4162710000000 1.0
C      1  0.5012850000000  0.6208330000000  0.4983980000000 1.0
C      1  0.5313810000000  0.5727910000000  0.5474510000000 1.0
C      1  0.5679310000000  0.4406730000000  0.4492840000000 1.0
C      1  0.5285570000000  0.4965950000000  0.5544270000000 1.0
C      1  0.5512720000000  0.5325480000000  0.4029990000000 1.0
C      1  0.4051940000000  0.5538300000000  0.5047450000000 1.0
C      1  0.4300740000000  0.5870650000000  0.4989130000000 1.0
C      1  0.5105600000000  0.4298910000000  0.4344450000000 1.0
C      1  0.5193560000000  0.6136500000000  0.5177000000000 1.0
C      1  0.4316460000000  0.5788630000000  0.4709480000000 1.0
C      1  0.4667800000000  0.6097950000000  0.4791540000000 1.0
C      1  0.5799360000000  0.5172690000000  0.5953910000000 1.0
C      1  0.4630550000000  0.4096310000000  0.4511880000000 1.0
C      1  0.4547740000000  0.4658510000000  0.5164150000000 1.0
C      1  0.4690100000000  0.4346680000000  0.4666380000000 1.0
C      1  0.5437680000000  0.5263270000000  0.4729300000000 1.0
C      1  0.5194280000000  0.5687860000000  0.4922160000000 1.0
C      1  0.4295180000000  0.5709760000000  0.5504870000000 1.0
C      1  0.4323240000000  0.4240970000000  0.4406410000000 1.0
C      1  0.4736890000000  0.4529650000000  0.4452660000000 1.0
C      1  0.4499340000000  0.4409680000000  0.5286240000000 1.0
C      1  0.5314990000000  0.4082590000000  0.5559980000000 1.0
C      1  0.4735980000000  0.5250820000000  0.5506710000000 1.0
C      1  0.3817550000000  0.4970530000000  0.5329720000000 1.0
C      1  0.3882040000000  0.5124020000000  0.4785010000000 1.0
C      1  0.5239660000000  0.5509410000000  0.5083970000000 1.0
C      1  0.4697790000000  0.5528130000000  0.4881360000000 1.0
C      1  0.6077810000000  0.5098340000000  0.4850960000000 1.0
C      1  0.4922070000000  0.4782910000000  0.5639590000000 1.0
C      1  0.4945370000000  0.4822190000000  0.4961010000000 1.0
C      1  0.4345290000000  0.4681530000000  0.4165870000000 1.0
C      1  0.5117010000000  0.5923000000000  0.5362590000000 1.0
C      1  0.5008250000000  0.5394670000000  0.4548990000000 1.0
C      1  0.4849610000000  0.4777870000000  0.4440810000000 1.0
C      1  0.4136050000000  0.5571480000000  0.4622620000000 1.0
C      1  0.5322070000000  0.5662080000000  0.4163150000000 1.0
C      1  0.6075310000000  0.4934800000000  0.4634400000000 1.0
C      1  0.5158740000000  0.4966240000000  0.4834500000000 1.0
C      1  0.5592650000000  0.4168880000000  0.5584350000000 1.0
C      1  0.5502070000000  0.5030320000000  0.4123820000000 1.0
C      1  0.5689990000000  0.4121250000000  0.5005020000000 1.0
C      1  0.4186240000000  0.5706740000000  0.5218490000000 1.0
C      1  0.5168210000000  0.5215260000000  0.5713230000000 1.0
C      1  0.5381660000000  0.5806420000000  0.5770190000000 1.0
C      1  0.4058800000000  0.4376120000000  0.5090980000000 1.0
C      1  0.4560070000000  0.5917390000000  0.4592000000000 1.0
C      1  0.5211110000000  0.5587460000000  0.4420070000000 1.0
C      1  0.4554240000000  0.5058430000000  0.4010950000000 1.0
C      1  0.4746620000000  0.4975840000000  0.3799570000000 1.0
C      1  0.5908570000000  0.5552800000000  0.5040270000000 1.0
C      1  0.4198030000000  0.4393840000000  0.5348730000000 1.0
C      1  0.4846290000000  0.5105250000000  0.6088450000000 1.0
C      1  0.4711800000000  0.5353230000000  0.6025590000000 1.0
C      1  0.5557540000000  0.5177620000000  0.4974200000000 1.0
C      1  0.5391280000000  0.4806290000000  0.3946230000000 1.0
C      1  0.4455770000000  0.5110380000000  0.5201390000000 1.0
C      1  0.4733720000000  0.5270680000000  0.4472690000000 1.0
C      1  0.5456970000000  0.4798350000000  0.5971430000000 1.0
C      1  0.5895160000000  0.5069330000000  0.4453060000000 1.0
C      1  0.5668820000000  0.5843330000000  0.4654280000000 1.0
C      1  0.4687560000000  0.4042560000000  0.5568200000000 1.0
C      1  0.4461530000000  0.4838820000000  0.6034360000000 1.0
C      1  0.5495020000000  0.4447400000000  0.5237570000000 1.0
C      1  0.5944340000000  0.4678990000000  0.5442760000000 1.0
END
