TITL C-4164238-4211-282 4.88468218152062 125000 -4642.22246110854 0 0 33 (C1) n - 1
REM
REM in /home/nfs/bkarasulu/CARBON/AIRSS/Generating-Clusters/ReaxFF-fromJPCA2015/Units_Real/with-SteepDescent/Only-C1/SD-CG/Try1-3A/FIRE-CG
REM
REM
REM
REM
REM
REM ./C.cell (11c1c37f851c82e70ff6c80c92926a4b)
REM
REM compiler GCC version 9.2.1 20190827 (Red Hat 9.2.1-1)
REM options -cpp -mtune=generic -march=x86-64 -g -O0 -fpre-include=/usr/include/finclude/math-vector-fortran.h
REM seed -1056182046 -1735638658 -1988232479 13490727 1058296250 1237317965 -121500868 -758509626 -361167378 877329968 1769773122 1423101512 -585990445 2141836085 -499249374 593743978 325985525 1043572428 520178939 -1226037366 -1336515124 1949884317 -2040012831 -202192858 960260197 1020673595 -97718883 753373992 -2009026843 -1602249840 1144114532 792504834 744299976
REM
CELL 1.54180   50.00000   50.00000   50.00000   90.00000   90.00000   90.00000
LATT -1
SFAC C  
C      1  0.4892800000000  0.5082770000000  0.5769100000000 1.0
C      1  0.5476740000000  0.5189170000000  0.5439830000000 1.0
C      1  0.4786860000000  0.4716050000000  0.4526740000000 1.0
C      1  0.5090140000000  0.4714530000000  0.5274820000000 1.0
C      1  0.4845780000000  0.5046970000000  0.4894040000000 1.0
C      1  0.4902010000000  0.5328890000000  0.4977450000000 1.0
C      1  0.4379880000000  0.5111930000000  0.4823970000000 1.0
C      1  0.5379220000000  0.5197070000000  0.4538080000000 1.0
C      1  0.5553620000000  0.4633770000000  0.5333320000000 1.0
C      1  0.4700700000000  0.4526620000000  0.4737080000000 1.0
C      1  0.4966030000000  0.4917080000000  0.4658000000000 1.0
C      1  0.4717980000000  0.5535330000000  0.4836140000000 1.0
C      1  0.5581810000000  0.4914300000000  0.5405600000000 1.0
C      1  0.5089610000000  0.5238250000000  0.5779490000000 1.0
C      1  0.5170900000000  0.5364790000000  0.5089800000000 1.0
C      1  0.4581020000000  0.4947280000000  0.4976400000000 1.0
C      1  0.4782820000000  0.4883430000000  0.5653950000000 1.0
C      1  0.4904640000000  0.4788910000000  0.5476910000000 1.0
C      1  0.5045510000000  0.4675800000000  0.4973320000000 1.0
C      1  0.5291050000000  0.4498440000000  0.5258030000000 1.0
C      1  0.4350320000000  0.4860690000000  0.4638040000000 1.0
C      1  0.4531450000000  0.4821130000000  0.4403110000000 1.0
C      1  0.4832830000000  0.5489550000000  0.4581840000000 1.0
C      1  0.5130890000000  0.5088440000000  0.4463830000000 1.0
C      1  0.5268150000000  0.5220230000000  0.5627770000000 1.0
C      1  0.5535980000000  0.5266790000000  0.4720560000000 1.0
C      1  0.5436240000000  0.5349900000000  0.5193400000000 1.0
C      1  0.5195860000000  0.4422130000000  0.4988830000000 1.0
C      1  0.4508790000000  0.5358190000000  0.4782430000000 1.0
C      1  0.5656320000000  0.5348730000000  0.4965600000000 1.0
C      1  0.4911230000000  0.4419350000000  0.4904700000000 1.0
C      1  0.5017930000000  0.5342590000000  0.4460290000000 1.0
C      1  0.4484900000000  0.4700910000000  0.4847520000000 1.0
END
