TITL C-4164242-3624-705 14.7925642896769 125000 -13194.8061500994 0 0 90 (C1) n - 1
REM
REM in /home/nfs/bkarasulu/CARBON/AIRSS/Generating-Clusters/ReaxFF-fromJPCA2015/Units_Real/with-SteepDescent/Only-C1/SD-CG/Try1-3A/FIRE-CG
REM
REM
REM
REM
REM
REM ./C.cell (11c1c37f851c82e70ff6c80c92926a4b)
REM
REM compiler GCC version 9.2.1 20190827 (Red Hat 9.2.1-1)
REM options -cpp -mtune=generic -march=x86-64 -g -O0 -fpre-include=/usr/include/finclude/math-vector-fortran.h
REM seed -916152156 1650685025 643501605 1558865278 1886389859 2012824094 655956670 -2064926637 -1685787666 -49140137 2080603848 159475338 -365310245 -942591795 166618135 -802227809 -48897687 333244669 2032687427 -1744219235 -86833556 1370145013 360429081 -2126450223 2087591318 -1793443096 -914968554 -293534506 -1352953301 438013305 -861215722 -1289594465 -1630551068
REM
CELL 1.54180   50.00000   50.00000   50.00000   90.00000   90.00000   90.00000
LATT -1
SFAC C  
C      1  0.5441260000000  0.4645950000000  0.4654630000000 1.0
C      1  0.5369990000000  0.5516330000000  0.5691730000000 1.0
C      1  0.4582010000000  0.4405640000000  0.5224690000000 1.0
C      1  0.4790560000000  0.4858470000000  0.5330430000000 1.0
C      1  0.5855990000000  0.5295720000000  0.4813260000000 1.0
C      1  0.4426820000000  0.4572010000000  0.5419390000000 1.0
C      1  0.5227070000000  0.5225570000000  0.4890890000000 1.0
C      1  0.4653040000000  0.4829070000000  0.5067650000000 1.0
C      1  0.5555500000000  0.4748160000000  0.5709560000000 1.0
C      1  0.5440590000000  0.4523300000000  0.4904550000000 1.0
C      1  0.4994720000000  0.4266170000000  0.4967160000000 1.0
C      1  0.5117570000000  0.5644040000000  0.4390800000000 1.0
C      1  0.4270840000000  0.5446100000000  0.5058530000000 1.0
C      1  0.5174670000000  0.4894830000000  0.5837590000000 1.0
C      1  0.5251470000000  0.4417230000000  0.5598260000000 1.0
C      1  0.4510500000000  0.4926540000000  0.4516700000000 1.0
C      1  0.4707890000000  0.5755330000000  0.4935910000000 1.0
C      1  0.5623750000000  0.5115430000000  0.5414850000000 1.0
C      1  0.5238460000000  0.4850100000000  0.5239290000000 1.0
C      1  0.5948720000000  0.4849670000000  0.5129690000000 1.0
C      1  0.5032740000000  0.4700730000000  0.5383960000000 1.0
C      1  0.4897470000000  0.5493030000000  0.4511550000000 1.0
C      1  0.4492980000000  0.5332270000000  0.5437660000000 1.0
C      1  0.4929180000000  0.5127400000000  0.5313060000000 1.0
C      1  0.4846110000000  0.4287770000000  0.5234130000000 1.0
C      1  0.4611200000000  0.5482260000000  0.4497250000000 1.0
C      1  0.4581930000000  0.4767260000000  0.5572300000000 1.0
C      1  0.5543870000000  0.4917890000000  0.4670510000000 1.0
C      1  0.5176650000000  0.5129980000000  0.5179470000000 1.0
C      1  0.4986320000000  0.4114110000000  0.4687700000000 1.0
C      1  0.4880190000000  0.5117730000000  0.4165170000000 1.0
C      1  0.4552350000000  0.5016020000000  0.5680050000000 1.0
C      1  0.5016440000000  0.4310550000000  0.4476980000000 1.0
C      1  0.5477960000000  0.4326110000000  0.5454440000000 1.0
C      1  0.4983990000000  0.4734840000000  0.4662930000000 1.0
C      1  0.4612990000000  0.5230400000000  0.4998800000000 1.0
C      1  0.5089950000000  0.5670350000000  0.5313750000000 1.0
C      1  0.4085550000000  0.4855730000000  0.4650480000000 1.0
C      1  0.5493650000000  0.5096620000000  0.4900520000000 1.0
C      1  0.5169740000000  0.5770470000000  0.4653830000000 1.0
C      1  0.5400050000000  0.5249230000000  0.5811360000000 1.0
C      1  0.4227610000000  0.5219390000000  0.4740290000000 1.0
C      1  0.4261140000000  0.4974950000000  0.4823660000000 1.0
C      1  0.4951510000000  0.5833870000000  0.4823440000000 1.0
C      1  0.4629320000000  0.5286600000000  0.5694790000000 1.0
C      1  0.5157960000000  0.5215560000000  0.4165190000000 1.0
C      1  0.4384960000000  0.5381930000000  0.4855060000000 1.0
C      1  0.4753470000000  0.4429870000000  0.4512270000000 1.0
C      1  0.5582170000000  0.5051670000000  0.5675630000000 1.0
C      1  0.4832370000000  0.4505800000000  0.4796060000000 1.0
C      1  0.4294850000000  0.4468900000000  0.4829600000000 1.0
C      1  0.5308420000000  0.4289980000000  0.4999860000000 1.0
C      1  0.5493830000000  0.5632210000000  0.4922810000000 1.0
C      1  0.5298220000000  0.4647070000000  0.5802280000000 1.0
C      1  0.4731720000000  0.4725850000000  0.4434150000000 1.0
C      1  0.5948170000000  0.5128500000000  0.5026200000000 1.0
C      1  0.4267390000000  0.4796830000000  0.4436080000000 1.0
C      1  0.5411540000000  0.4251450000000  0.5202490000000 1.0
C      1  0.4202250000000  0.4520250000000  0.5084640000000 1.0
C      1  0.4897840000000  0.5208780000000  0.4554040000000 1.0
C      1  0.4589410000000  0.4562920000000  0.4960360000000 1.0
C      1  0.4904840000000  0.4834240000000  0.4196990000000 1.0
C      1  0.4210530000000  0.4731580000000  0.5271840000000 1.0
C      1  0.4648710000000  0.5180950000000  0.4402160000000 1.0
C      1  0.5118280000000  0.5170070000000  0.5859060000000 1.0
C      1  0.4841870000000  0.5639450000000  0.5171640000000 1.0
C      1  0.4750640000000  0.5014730000000  0.4886000000000 1.0
C      1  0.4729190000000  0.5340930000000  0.5245230000000 1.0
C      1  0.4165420000000  0.4578950000000  0.4598610000000 1.0
C      1  0.5664700000000  0.5178220000000  0.5157440000000 1.0
C      1  0.4267240000000  0.5241790000000  0.5266490000000 1.0
C      1  0.5532150000000  0.5364450000000  0.4466580000000 1.0
C      1  0.5342770000000  0.4994140000000  0.4214750000000 1.0
C      1  0.4920070000000  0.5356820000000  0.5723940000000 1.0
C      1  0.4998530000000  0.4420430000000  0.5447800000000 1.0
C      1  0.5181140000000  0.4755240000000  0.4231190000000 1.0
C      1  0.5241950000000  0.5540320000000  0.4825920000000 1.0
C      1  0.4231710000000  0.4986040000000  0.5129430000000 1.0
C      1  0.5469980000000  0.4719180000000  0.5111320000000 1.0
C      1  0.4508390000000  0.5605570000000  0.4743700000000 1.0
C      1  0.5476430000000  0.5613490000000  0.5451130000000 1.0
C      1  0.5535590000000  0.5077860000000  0.4425460000000 1.0
C      1  0.5085750000000  0.5554160000000  0.5591930000000 1.0
C      1  0.5389500000000  0.5685010000000  0.5204930000000 1.0
C      1  0.4993570000000  0.5022540000000  0.4740460000000 1.0
C      1  0.5655700000000  0.5477170000000  0.4718930000000 1.0
C      1  0.5725930000000  0.4682760000000  0.5242040000000 1.0
C      1  0.5205390000000  0.4584340000000  0.4480830000000 1.0
C      1  0.5634750000000  0.4558390000000  0.5503960000000 1.0
C      1  0.5302410000000  0.5442350000000  0.4299860000000 1.0
END
