TITL C-4164243-3780-151 -4.83755884849067 125000 -11454.0985825399 0 0 77 (C1) n - 1
REM
REM in /home/nfs/bkarasulu/CARBON/AIRSS/Generating-Clusters/ReaxFF-fromJPCA2015/Units_Real/with-SteepDescent/Only-C1/SD-CG/Try1-3A/FIRE-CG
REM
REM
REM
REM
REM
REM ./C.cell (11c1c37f851c82e70ff6c80c92926a4b)
REM
REM compiler GCC version 9.2.1 20190827 (Red Hat 9.2.1-1)
REM options -cpp -mtune=generic -march=x86-64 -g -O0 -fpre-include=/usr/include/finclude/math-vector-fortran.h
REM seed 811150851 -1369684290 1612823816 1831297299 641076695 -32095132 1492655554 -690851907 -293175437 -1108190545 35410469 2075817089 -1917873887 1462113919 1413088247 -1379165297 1384360623 198642514 513004672 -1672203716 -435380902 1829948924 -678351336 -2096878251 -285232254 1111017336 -1854700734 531501924 166979768 1831597580 -1778836614 -1044212656 1568697678
REM
CELL 1.54180   50.00000   50.00000   50.00000   90.00000   90.00000   90.00000
LATT -1
SFAC C  
C      1  0.4848510000000  0.5249640000000  0.4831470000000 1.0
C      1  0.4561990000000  0.5476800000000  0.4469300000000 1.0
C      1  0.5609040000000  0.4594120000000  0.5506000000000 1.0
C      1  0.5465520000000  0.5426350000000  0.4921910000000 1.0
C      1  0.4254310000000  0.5060490000000  0.5444210000000 1.0
C      1  0.5285740000000  0.5124630000000  0.4914380000000 1.0
C      1  0.5243370000000  0.5764930000000  0.4560610000000 1.0
C      1  0.5325090000000  0.5662450000000  0.5342730000000 1.0
C      1  0.4536620000000  0.4676730000000  0.5420450000000 1.0
C      1  0.4457650000000  0.4602890000000  0.5144300000000 1.0
C      1  0.4389650000000  0.5734910000000  0.4881880000000 1.0
C      1  0.4484820000000  0.4924730000000  0.5574170000000 1.0
C      1  0.5360280000000  0.4874020000000  0.5058120000000 1.0
C      1  0.4331960000000  0.4793480000000  0.4690750000000 1.0
C      1  0.4833620000000  0.5801460000000  0.5148460000000 1.0
C      1  0.5149240000000  0.4380110000000  0.5471590000000 1.0
C      1  0.4507080000000  0.4579560000000  0.4601630000000 1.0
C      1  0.5084930000000  0.4748150000000  0.4312530000000 1.0
C      1  0.5454420000000  0.4809160000000  0.5648080000000 1.0
C      1  0.4168220000000  0.5288820000000  0.5107760000000 1.0
C      1  0.5157780000000  0.4882590000000  0.4564950000000 1.0
C      1  0.5483290000000  0.5570570000000  0.4616750000000 1.0
C      1  0.5211650000000  0.4500620000000  0.4401700000000 1.0
C      1  0.4398340000000  0.5027880000000  0.4522770000000 1.0
C      1  0.5340060000000  0.4251380000000  0.4718620000000 1.0
C      1  0.5628600000000  0.4917820000000  0.5202970000000 1.0
C      1  0.4713930000000  0.4517880000000  0.4405240000000 1.0
C      1  0.5731560000000  0.5359250000000  0.5042560000000 1.0
C      1  0.4963060000000  0.5325450000000  0.4560860000000 1.0
C      1  0.4629370000000  0.5006420000000  0.4333510000000 1.0
C      1  0.5787270000000  0.5077200000000  0.4994430000000 1.0
C      1  0.4709880000000  0.5705090000000  0.4601840000000 1.0
C      1  0.5184200000000  0.5310780000000  0.5717240000000 1.0
C      1  0.5242150000000  0.5177150000000  0.5462790000000 1.0
C      1  0.5235380000000  0.5559050000000  0.5597630000000 1.0
C      1  0.4363470000000  0.5307010000000  0.4594990000000 1.0
C      1  0.5487580000000  0.5026830000000  0.5468810000000 1.0
C      1  0.5651230000000  0.5095580000000  0.4585710000000 1.0
C      1  0.5234420000000  0.5168800000000  0.4595830000000 1.0
C      1  0.5246380000000  0.4650530000000  0.5182630000000 1.0
C      1  0.5743770000000  0.4626000000000  0.5249630000000 1.0
C      1  0.5486640000000  0.5282470000000  0.4476480000000 1.0
C      1  0.5037800000000  0.5184760000000  0.5012550000000 1.0
C      1  0.4178670000000  0.5000480000000  0.5157500000000 1.0
C      1  0.4299890000000  0.4790420000000  0.4987580000000 1.0
C      1  0.5667850000000  0.4484210000000  0.5005910000000 1.0
C      1  0.4965300000000  0.4379380000000  0.4494470000000 1.0
C      1  0.5762050000000  0.4907250000000  0.4752020000000 1.0
C      1  0.4706670000000  0.5288490000000  0.5264590000000 1.0
C      1  0.4900640000000  0.4292290000000  0.5010770000000 1.0
C      1  0.5040420000000  0.4256980000000  0.4751220000000 1.0
C      1  0.5002680000000  0.5310320000000  0.5257470000000 1.0
C      1  0.5388960000000  0.4470060000000  0.5360470000000 1.0
C      1  0.5250520000000  0.4117470000000  0.5093900000000 1.0
C      1  0.4528970000000  0.5459100000000  0.5428740000000 1.0
C      1  0.4719620000000  0.4661580000000  0.4804400000000 1.0
C      1  0.5169920000000  0.4801980000000  0.5744980000000 1.0
C      1  0.5018660000000  0.4570150000000  0.5657260000000 1.0
C      1  0.4726970000000  0.5026310000000  0.5709560000000 1.0
C      1  0.5005280000000  0.5047340000000  0.5785730000000 1.0
C      1  0.5638430000000  0.4622650000000  0.4758220000000 1.0
C      1  0.4651960000000  0.4438600000000  0.4996640000000 1.0
C      1  0.5450840000000  0.4480030000000  0.4577130000000 1.0
C      1  0.4737890000000  0.5273700000000  0.4355890000000 1.0
C      1  0.4950950000000  0.4776280000000  0.4704440000000 1.0
C      1  0.5484390000000  0.4224800000000  0.4981860000000 1.0
C      1  0.5055730000000  0.5626840000000  0.5226440000000 1.0
C      1  0.4798920000000  0.4587390000000  0.5466380000000 1.0
C      1  0.4250910000000  0.5347250000000  0.5383700000000 1.0
C      1  0.5550830000000  0.5560830000000  0.5170820000000 1.0
C      1  0.4987330000000  0.5638580000000  0.4542830000000 1.0
C      1  0.4625380000000  0.5294770000000  0.4988640000000 1.0
C      1  0.4660800000000  0.5813100000000  0.4876850000000 1.0
C      1  0.4654010000000  0.5691770000000  0.5334390000000 1.0
C      1  0.4792020000000  0.4764900000000  0.4276670000000 1.0
C      1  0.4352780000000  0.5404020000000  0.4888000000000 1.0
C      1  0.5003880000000  0.4486120000000  0.5243700000000 1.0
END
