TITL C-4164244-2836-736 -0.819656693522986 125000 -12170.1840694386 0 0 81 (C1) n - 1
REM
REM in /home/nfs/bkarasulu/CARBON/AIRSS/Generating-Clusters/ReaxFF-fromJPCA2015/Units_Real/with-SteepDescent/Only-C1/SD-CG/Try1-3A/FIRE-CG
REM
REM
REM
REM
REM
REM ./C.cell (11c1c37f851c82e70ff6c80c92926a4b)
REM
REM compiler GCC version 9.2.1 20190827 (Red Hat 9.2.1-1)
REM options -cpp -mtune=generic -march=x86-64 -g -O0 -fpre-include=/usr/include/finclude/math-vector-fortran.h
REM seed 1416280615 -1955201889 -467110980 957459840 -1997667318 675982024 -864108644 131018027 -1856045244 -2145509649 -1970807322 527145521 1121628870 1833858737 1601424434 380230413 1788554725 -833796966 -2081311045 1609287788 129987357 654888853 -1794026327 564095580 804349331 1287648086 1862397365 -1455398523 -325224421 -233388864 1376030270 107623791 -173926283
REM
CELL 1.54180   50.00000   50.00000   50.00000   90.00000   90.00000   90.00000
LATT -1
SFAC C  
C      1  0.5301270000000  0.4359930000000  0.5402400000000 1.0
C      1  0.4650630000000  0.4340280000000  0.4821210000000 1.0
C      1  0.4756850000000  0.5093590000000  0.4801280000000 1.0
C      1  0.5281220000000  0.4606200000000  0.4453450000000 1.0
C      1  0.5016390000000  0.5174800000000  0.5800470000000 1.0
C      1  0.4323270000000  0.5307620000000  0.5302820000000 1.0
C      1  0.4697030000000  0.4469930000000  0.4559680000000 1.0
C      1  0.5156180000000  0.5721670000000  0.5050310000000 1.0
C      1  0.4687190000000  0.4822190000000  0.4810450000000 1.0
C      1  0.5055000000000  0.5528250000000  0.4409770000000 1.0
C      1  0.4202560000000  0.4863170000000  0.5208550000000 1.0
C      1  0.4435890000000  0.5160380000000  0.5526060000000 1.0
C      1  0.4318000000000  0.4895980000000  0.5491000000000 1.0
C      1  0.4866880000000  0.5413490000000  0.5422310000000 1.0
C      1  0.4992210000000  0.5138260000000  0.4621380000000 1.0
C      1  0.4945620000000  0.5575420000000  0.4931830000000 1.0
C      1  0.4756970000000  0.5123080000000  0.5080590000000 1.0
C      1  0.5732110000000  0.5196850000000  0.5454520000000 1.0
C      1  0.4724560000000  0.4716350000000  0.5681010000000 1.0
C      1  0.5122740000000  0.4540830000000  0.4698450000000 1.0
C      1  0.4382500000000  0.4750660000000  0.4760340000000 1.0
C      1  0.5520340000000  0.5567940000000  0.4547860000000 1.0
C      1  0.5684960000000  0.5465780000000  0.4743030000000 1.0
C      1  0.5188720000000  0.4661300000000  0.5803410000000 1.0
C      1  0.4783030000000  0.4948080000000  0.5504890000000 1.0
C      1  0.4631350000000  0.4697420000000  0.4353240000000 1.0
C      1  0.5431970000000  0.5689320000000  0.5122990000000 1.0
C      1  0.5344440000000  0.5503150000000  0.4345870000000 1.0
C      1  0.5022660000000  0.4348100000000  0.5485660000000 1.0
C      1  0.4835020000000  0.4349340000000  0.5259970000000 1.0
C      1  0.5649530000000  0.4712270000000  0.4787200000000 1.0
C      1  0.5121550000000  0.5500180000000  0.5499840000000 1.0
C      1  0.4949770000000  0.4522780000000  0.5710040000000 1.0
C      1  0.5636770000000  0.5517510000000  0.5038920000000 1.0
C      1  0.5351340000000  0.5012570000000  0.4957820000000 1.0
C      1  0.5047380000000  0.4698990000000  0.4324970000000 1.0
C      1  0.4774960000000  0.5417700000000  0.5141560000000 1.0
C      1  0.5610420000000  0.4617160000000  0.5497550000000 1.0
C      1  0.5179800000000  0.4923770000000  0.5185310000000 1.0
C      1  0.5525170000000  0.4764300000000  0.4532820000000 1.0
C      1  0.5556480000000  0.5047870000000  0.4443580000000 1.0
C      1  0.4845160000000  0.4893100000000  0.5233810000000 1.0
C      1  0.5691940000000  0.5005850000000  0.4873140000000 1.0
C      1  0.5241930000000  0.5686840000000  0.5320490000000 1.0
C      1  0.4501450000000  0.4487070000000  0.5045300000000 1.0
C      1  0.5314210000000  0.5032900000000  0.5376840000000 1.0
C      1  0.4969890000000  0.5274360000000  0.4343150000000 1.0
C      1  0.5189510000000  0.5076030000000  0.4784740000000 1.0
C      1  0.5774540000000  0.5341840000000  0.5203970000000 1.0
C      1  0.4540690000000  0.5217230000000  0.4461440000000 1.0
C      1  0.4862810000000  0.4643310000000  0.4684380000000 1.0
C      1  0.4629060000000  0.5470490000000  0.4567920000000 1.0
C      1  0.4360010000000  0.4665510000000  0.4453670000000 1.0
C      1  0.4687480000000  0.4991950000000  0.4331840000000 1.0
C      1  0.4707310000000  0.4602140000000  0.5211980000000 1.0
C      1  0.5136200000000  0.5144140000000  0.4162660000000 1.0
C      1  0.4288560000000  0.5142800000000  0.4586580000000 1.0
C      1  0.5371150000000  0.4408360000000  0.5112110000000 1.0
C      1  0.4940770000000  0.4913800000000  0.4171250000000 1.0
C      1  0.5463850000000  0.5152950000000  0.5574940000000 1.0
C      1  0.4263450000000  0.4651180000000  0.5025630000000 1.0
C      1  0.5874010000000  0.5108840000000  0.5079400000000 1.0
C      1  0.4315530000000  0.5513420000000  0.4905080000000 1.0
C      1  0.4430060000000  0.4670900000000  0.5658710000000 1.0
C      1  0.4493750000000  0.5586060000000  0.4750790000000 1.0
C      1  0.4883040000000  0.5579620000000  0.4642950000000 1.0
C      1  0.5859730000000  0.4961540000000  0.5327980000000 1.0
C      1  0.5393990000000  0.5211080000000  0.4264480000000 1.0
C      1  0.4203950000000  0.5252950000000  0.4843750000000 1.0
C      1  0.5243250000000  0.5320480000000  0.5701260000000 1.0
C      1  0.5408580000000  0.4509320000000  0.5637620000000 1.0
C      1  0.4887290000000  0.4264090000000  0.4977630000000 1.0
C      1  0.5162450000000  0.4347510000000  0.4916340000000 1.0
C      1  0.5752610000000  0.4685320000000  0.5281500000000 1.0
C      1  0.5134810000000  0.4934040000000  0.5814560000000 1.0
C      1  0.4461780000000  0.5506360000000  0.5143490000000 1.0
C      1  0.4755770000000  0.5216210000000  0.5598360000000 1.0
C      1  0.4184750000000  0.5133900000000  0.5105930000000 1.0
C      1  0.5600600000000  0.4570880000000  0.5035250000000 1.0
C      1  0.4226500000000  0.4878110000000  0.4563140000000 1.0
C      1  0.5696820000000  0.5183050000000  0.4651520000000 1.0
END
