TITL C-4164238-4211-732 -7.90108221281878 125000 -16321.9109101011 0 0 108 (C1) n - 1
REM
REM in /home/nfs/bkarasulu/CARBON/AIRSS/Generating-Clusters/ReaxFF-fromJPCA2015/Units_Real/with-SteepDescent/Only-C1/SD-CG/Try1-3A/FIRE-CG
REM
REM
REM
REM
REM
REM ./C.cell (11c1c37f851c82e70ff6c80c92926a4b)
REM
REM compiler GCC version 9.2.1 20190827 (Red Hat 9.2.1-1)
REM options -cpp -mtune=generic -march=x86-64 -g -O0 -fpre-include=/usr/include/finclude/math-vector-fortran.h
REM seed -1467752688 1176339437 -707656321 1873510772 1549558200 -1180143479 -1371965829 7590385 1435951898 1527028417 24609228 -1489949837 283886777 -1651779872 405295353 -695521984 -986423598 -1125118449 1940999760 2054432036 -464543970 -1317233194 -117442863 -600745674 -1571525504 644076207 -789172988 -526849063 -1147410742 -1876445253 -1142898154 445928826 -160803574
REM
CELL 1.54180   50.00000   50.00000   50.00000   90.00000   90.00000   90.00000
LATT -1
SFAC C  
C      1  0.5048400000000  0.4181600000000  0.4700620000000 1.0
C      1  0.5390910000000  0.5100230000000  0.5111570000000 1.0
C      1  0.4699670000000  0.5194640000000  0.5181730000000 1.0
C      1  0.4271280000000  0.4593820000000  0.5035900000000 1.0
C      1  0.4883170000000  0.4321850000000  0.4335290000000 1.0
C      1  0.4809620000000  0.4253150000000  0.5089100000000 1.0
C      1  0.5968410000000  0.4936630000000  0.4916890000000 1.0
C      1  0.4385200000000  0.4312270000000  0.4948070000000 1.0
C      1  0.4517380000000  0.5307860000000  0.5736550000000 1.0
C      1  0.4359030000000  0.5265320000000  0.4224650000000 1.0
C      1  0.4946680000000  0.5477570000000  0.5773030000000 1.0
C      1  0.5054430000000  0.5991010000000  0.5190490000000 1.0
C      1  0.5119440000000  0.4872720000000  0.4731960000000 1.0
C      1  0.5463160000000  0.5711820000000  0.5100710000000 1.0
C      1  0.5385130000000  0.4465510000000  0.5417970000000 1.0
C      1  0.4789490000000  0.4608720000000  0.5624300000000 1.0
C      1  0.5024780000000  0.4989770000000  0.4050360000000 1.0
C      1  0.4936530000000  0.5204280000000  0.5869950000000 1.0
C      1  0.5538730000000  0.5438590000000  0.4319580000000 1.0
C      1  0.4411970000000  0.4464390000000  0.4439410000000 1.0
C      1  0.4945660000000  0.4573640000000  0.5122210000000 1.0
C      1  0.5087010000000  0.5719080000000  0.4495540000000 1.0
C      1  0.4885360000000  0.5420310000000  0.4177930000000 1.0
C      1  0.5229510000000  0.5884720000000  0.5670230000000 1.0
C      1  0.5800350000000  0.5053500000000  0.5371490000000 1.0
C      1  0.5159290000000  0.5026750000000  0.5756230000000 1.0
C      1  0.5130010000000  0.4256450000000  0.4423360000000 1.0
C      1  0.5727810000000  0.4662770000000  0.5108110000000 1.0
C      1  0.4268860000000  0.5145360000000  0.4616050000000 1.0
C      1  0.5714970000000  0.4395520000000  0.4988440000000 1.0
C      1  0.4691580000000  0.5648550000000  0.5375690000000 1.0
C      1  0.5212610000000  0.4145460000000  0.4952010000000 1.0
C      1  0.5745750000000  0.5378160000000  0.4512670000000 1.0
C      1  0.5206160000000  0.5594960000000  0.5671970000000 1.0
C      1  0.5157240000000  0.5957890000000  0.5465840000000 1.0
C      1  0.5037500000000  0.5636310000000  0.4805450000000 1.0
C      1  0.4681350000000  0.5078160000000  0.5847660000000 1.0
C      1  0.5154820000000  0.4277690000000  0.5452510000000 1.0
C      1  0.4266190000000  0.5004840000000  0.4360070000000 1.0
C      1  0.4376160000000  0.5396560000000  0.4495760000000 1.0
C      1  0.5377430000000  0.4411750000000  0.4328520000000 1.0
C      1  0.4430780000000  0.4710910000000  0.5277230000000 1.0
C      1  0.5194820000000  0.5795280000000  0.5034120000000 1.0
C      1  0.4843380000000  0.4799640000000  0.4118290000000 1.0
C      1  0.5479220000000  0.5095910000000  0.5767070000000 1.0
C      1  0.4775660000000  0.4224960000000  0.4788640000000 1.0
C      1  0.4632490000000  0.4789650000000  0.5801940000000 1.0
C      1  0.4726000000000  0.4691170000000  0.5337660000000 1.0
C      1  0.5825330000000  0.5416880000000  0.4985880000000 1.0
C      1  0.5585520000000  0.5542160000000  0.5323330000000 1.0
C      1  0.5406300000000  0.4824400000000  0.4745110000000 1.0
C      1  0.5714220000000  0.4348460000000  0.4711800000000 1.0
C      1  0.5918580000000  0.5302220000000  0.4714560000000 1.0
C      1  0.4514440000000  0.4197190000000  0.5181390000000 1.0
C      1  0.4735760000000  0.5007090000000  0.4594410000000 1.0
C      1  0.4830320000000  0.5616830000000  0.4389160000000 1.0
C      1  0.4724730000000  0.5482310000000  0.5129450000000 1.0
C      1  0.4621670000000  0.5539080000000  0.4591640000000 1.0
C      1  0.5784110000000  0.5323330000000  0.5260620000000 1.0
C      1  0.4690700000000  0.4840210000000  0.4363210000000 1.0
C      1  0.4638900000000  0.4392620000000  0.4300850000000 1.0
C      1  0.5611780000000  0.4891670000000  0.4561910000000 1.0
C      1  0.5394520000000  0.5189140000000  0.4236250000000 1.0
C      1  0.5619390000000  0.4928090000000  0.5589160000000 1.0
C      1  0.5419310000000  0.4349040000000  0.4993730000000 1.0
C      1  0.4223100000000  0.5521900000000  0.5166650000000 1.0
C      1  0.4251810000000  0.4810210000000  0.5480060000000 1.0
C      1  0.4499770000000  0.5043910000000  0.4771010000000 1.0
C      1  0.5931500000000  0.4858410000000  0.5189280000000 1.0
C      1  0.5065330000000  0.4145670000000  0.5203680000000 1.0
C      1  0.5477080000000  0.4651550000000  0.5614000000000 1.0
C      1  0.4368540000000  0.4692390000000  0.5724830000000 1.0
C      1  0.4349930000000  0.4384030000000  0.5683240000000 1.0
C      1  0.5258190000000  0.4571840000000  0.5807620000000 1.0
C      1  0.5279840000000  0.4566520000000  0.5152790000000 1.0
C      1  0.4198830000000  0.5233790000000  0.5162600000000 1.0
C      1  0.4890040000000  0.4975750000000  0.5257250000000 1.0
C      1  0.4428900000000  0.4264410000000  0.5436100000000 1.0
C      1  0.5360970000000  0.5438920000000  0.5476720000000 1.0
C      1  0.4961020000000  0.4812560000000  0.4969440000000 1.0
C      1  0.5497640000000  0.4921570000000  0.4290500000000 1.0
C      1  0.5352840000000  0.4678570000000  0.4208480000000 1.0
C      1  0.4409580000000  0.4746860000000  0.4342840000000 1.0
C      1  0.4756050000000  0.6052180000000  0.5157270000000 1.0
C      1  0.5460940000000  0.4814070000000  0.5049150000000 1.0
C      1  0.5121890000000  0.5341420000000  0.4772690000000 1.0
C      1  0.5376050000000  0.5292320000000  0.4892360000000 1.0
C      1  0.4547930000000  0.5899830000000  0.5292110000000 1.0
C      1  0.5096080000000  0.5191120000000  0.4245030000000 1.0
C      1  0.5570100000000  0.5528730000000  0.4900860000000 1.0
C      1  0.5316280000000  0.5607870000000  0.4400720000000 1.0
C      1  0.5115920000000  0.4730190000000  0.4051530000000 1.0
C      1  0.5151720000000  0.4780030000000  0.5970200000000 1.0
C      1  0.4737240000000  0.5587540000000  0.4852310000000 1.0
C      1  0.4452820000000  0.5119860000000  0.5045440000000 1.0
C      1  0.5283050000000  0.5190190000000  0.5349800000000 1.0
C      1  0.5021090000000  0.4436570000000  0.5657240000000 1.0
C      1  0.4039830000000  0.4686310000000  0.4945830000000 1.0
C      1  0.4511060000000  0.4317670000000  0.4690500000000 1.0
C      1  0.5101420000000  0.5025300000000  0.5456800000000 1.0
C      1  0.4622010000000  0.5339530000000  0.4151820000000 1.0
C      1  0.4315370000000  0.5728440000000  0.5198000000000 1.0
C      1  0.4694450000000  0.5535090000000  0.5647800000000 1.0
C      1  0.4311210000000  0.5230470000000  0.5568620000000 1.0
C      1  0.5014920000000  0.5129620000000  0.4586590000000 1.0
C      1  0.5581560000000  0.4370670000000  0.4508790000000 1.0
C      1  0.4136640000000  0.5090440000000  0.5418860000000 1.0
C      1  0.5882540000000  0.4997250000000  0.4659360000000 1.0
END
