TITL C-4164245-3996-391 43.1779949752505 125000 -20334.8699510012 0 0 137 (C1) n - 1
REM
REM in /home/nfs/bkarasulu/CARBON/AIRSS/Generating-Clusters/ReaxFF-fromJPCA2015/Units_Real/with-SteepDescent/Only-C1/SD-CG/Try1-3A/FIRE-CG
REM
REM
REM
REM
REM
REM ./C.cell (11c1c37f851c82e70ff6c80c92926a4b)
REM
REM compiler GCC version 9.2.1 20190827 (Red Hat 9.2.1-1)
REM options -cpp -mtune=generic -march=x86-64 -g -O0 -fpre-include=/usr/include/finclude/math-vector-fortran.h
REM seed -1282457254 1735343479 -460920975 -997252208 -1360025308 -1149652832 -1463619018 -1290495198 496734293 -393516998 1416116071 433929198 -1929290563 -1015588062 -1071330902 497442327 -1259539602 1652058364 363887943 1536395829 -421672733 -50671004 -41199556 -1972320515 -1511832193 89294414 -1563057947 -788188671 -754136297 1355225338 -864418227 -130840080 -1787134359
REM
CELL 1.54180   50.00000   50.00000   50.00000   90.00000   90.00000   90.00000
LATT -1
SFAC C  
C      1  0.4659240000000  0.4406690000000  0.5717910000000 1.0
C      1  0.4831550000000  0.5663850000000  0.4756700000000 1.0
C      1  0.5342620000000  0.5125070000000  0.5074130000000 1.0
C      1  0.5104060000000  0.4467630000000  0.4250530000000 1.0
C      1  0.5352380000000  0.5954600000000  0.5023470000000 1.0
C      1  0.5475200000000  0.4680470000000  0.5149760000000 1.0
C      1  0.4120750000000  0.5470340000000  0.5173000000000 1.0
C      1  0.5815930000000  0.4830740000000  0.5512620000000 1.0
C      1  0.5283210000000  0.5424620000000  0.5647370000000 1.0
C      1  0.5401360000000  0.5501220000000  0.4866260000000 1.0
C      1  0.4962020000000  0.5189490000000  0.5273670000000 1.0
C      1  0.4318380000000  0.5145790000000  0.5802320000000 1.0
C      1  0.4661030000000  0.5313460000000  0.4638370000000 1.0
C      1  0.5284730000000  0.4309620000000  0.5577500000000 1.0
C      1  0.5275350000000  0.5923160000000  0.5435990000000 1.0
C      1  0.5346240000000  0.4734950000000  0.4655010000000 1.0
C      1  0.5852880000000  0.4396930000000  0.5108930000000 1.0
C      1  0.4422780000000  0.4179960000000  0.5305090000000 1.0
C      1  0.4448360000000  0.4613400000000  0.5741250000000 1.0
C      1  0.4054910000000  0.5308040000000  0.4925260000000 1.0
C      1  0.4230880000000  0.4650180000000  0.4364190000000 1.0
C      1  0.4047910000000  0.4599800000000  0.4570720000000 1.0
C      1  0.5532420000000  0.4646160000000  0.4857570000000 1.0
C      1  0.4684690000000  0.5915080000000  0.4808110000000 1.0
C      1  0.5590720000000  0.4194350000000  0.4719260000000 1.0
C      1  0.5229200000000  0.4212360000000  0.4366880000000 1.0
C      1  0.5651210000000  0.4593180000000  0.5571450000000 1.0
C      1  0.4857230000000  0.4706380000000  0.5495560000000 1.0
C      1  0.5082660000000  0.6013140000000  0.5050220000000 1.0
C      1  0.5350270000000  0.5407250000000  0.5130870000000 1.0
C      1  0.4972670000000  0.5893800000000  0.5487160000000 1.0
C      1  0.5081920000000  0.4451490000000  0.5396430000000 1.0
C      1  0.4587610000000  0.5466600000000  0.5092330000000 1.0
C      1  0.5825460000000  0.4820770000000  0.4364240000000 1.0
C      1  0.5066460000000  0.3998420000000  0.5095800000000 1.0
C      1  0.5026050000000  0.4692870000000  0.4656000000000 1.0
C      1  0.5485800000000  0.5249430000000  0.4280270000000 1.0
C      1  0.5566930000000  0.5442870000000  0.5610860000000 1.0
C      1  0.4570600000000  0.4872240000000  0.5119220000000 1.0
C      1  0.5670670000000  0.4702710000000  0.4156330000000 1.0
C      1  0.5471540000000  0.5824630000000  0.4516810000000 1.0
C      1  0.4222380000000  0.5073570000000  0.5387830000000 1.0
C      1  0.5512570000000  0.4961450000000  0.5222490000000 1.0
C      1  0.5737150000000  0.4429930000000  0.4840910000000 1.0
C      1  0.4665310000000  0.4244480000000  0.5468250000000 1.0
C      1  0.4577130000000  0.4103310000000  0.4783740000000 1.0
C      1  0.4192780000000  0.4317280000000  0.5415580000000 1.0
C      1  0.4037530000000  0.4900540000000  0.4643370000000 1.0
C      1  0.4313210000000  0.4999980000000  0.4656900000000 1.0
C      1  0.5360860000000  0.4935320000000  0.4442110000000 1.0
C      1  0.4864820000000  0.4338190000000  0.4991880000000 1.0
C      1  0.5347540000000  0.4011370000000  0.5162860000000 1.0
C      1  0.4720910000000  0.5458860000000  0.5588720000000 1.0
C      1  0.5984690000000  0.4883780000000  0.5256880000000 1.0
C      1  0.5676330000000  0.5047150000000  0.5442960000000 1.0
C      1  0.4736300000000  0.5445500000000  0.4868370000000 1.0
C      1  0.5262140000000  0.4952390000000  0.5615070000000 1.0
C      1  0.5213920000000  0.5008220000000  0.3936070000000 1.0
C      1  0.4912510000000  0.4078050000000  0.4831260000000 1.0
C      1  0.4024040000000  0.4787980000000  0.5085120000000 1.0
C      1  0.5807080000000  0.5403800000000  0.5165990000000 1.0
C      1  0.4985100000000  0.4996160000000  0.4683340000000 1.0
C      1  0.4888540000000  0.4524450000000  0.4430210000000 1.0
C      1  0.4236880000000  0.4619390000000  0.4951940000000 1.0
C      1  0.5862390000000  0.5364370000000  0.4692930000000 1.0
C      1  0.4448830000000  0.4891450000000  0.5875650000000 1.0
C      1  0.4465780000000  0.5602940000000  0.5621210000000 1.0
C      1  0.5465710000000  0.5659330000000  0.4300740000000 1.0
C      1  0.4863050000000  0.5218350000000  0.5769730000000 1.0
C      1  0.5666640000000  0.4385450000000  0.5365630000000 1.0
C      1  0.5665780000000  0.5172580000000  0.5683250000000 1.0
C      1  0.4570170000000  0.5344500000000  0.4221140000000 1.0
C      1  0.5986240000000  0.5134070000000  0.4819620000000 1.0
C      1  0.4362200000000  0.5637470000000  0.5164460000000 1.0
C      1  0.4489330000000  0.5073390000000  0.5292190000000 1.0
C      1  0.4428440000000  0.4830530000000  0.4866570000000 1.0
C      1  0.5420840000000  0.4079230000000  0.4907330000000 1.0
C      1  0.4165770000000  0.5419740000000  0.4677640000000 1.0
C      1  0.5130220000000  0.5332610000000  0.5873890000000 1.0
C      1  0.4433680000000  0.4161800000000  0.5004010000000 1.0
C      1  0.5039180000000  0.5849530000000  0.4331650000000 1.0
C      1  0.4937000000000  0.5614760000000  0.5461140000000 1.0
C      1  0.5626690000000  0.4468490000000  0.4296250000000 1.0
C      1  0.5945360000000  0.5146330000000  0.5106140000000 1.0
C      1  0.4722220000000  0.5948420000000  0.5337410000000 1.0
C      1  0.4603880000000  0.4688810000000  0.5337450000000 1.0
C      1  0.5324490000000  0.5462440000000  0.4157410000000 1.0
C      1  0.5033680000000  0.5437520000000  0.4084890000000 1.0
C      1  0.5496810000000  0.5812330000000  0.5283340000000 1.0
C      1  0.4698560000000  0.5130940000000  0.4080490000000 1.0
C      1  0.5406570000000  0.4520920000000  0.5732750000000 1.0
C      1  0.4384830000000  0.5282490000000  0.4514410000000 1.0
C      1  0.4888930000000  0.4595140000000  0.5769650000000 1.0
C      1  0.5296610000000  0.4873840000000  0.6020780000000 1.0
C      1  0.5247930000000  0.4722260000000  0.4220640000000 1.0
C      1  0.4756490000000  0.5843970000000  0.4301360000000 1.0
C      1  0.4745050000000  0.5057230000000  0.4557700000000 1.0
C      1  0.4655710000000  0.4944390000000  0.4301140000000 1.0
C      1  0.4309230000000  0.4611340000000  0.5471490000000 1.0
C      1  0.5527920000000  0.4245720000000  0.4424730000000 1.0
C      1  0.5029110000000  0.4755970000000  0.5079120000000 1.0
C      1  0.4992510000000  0.5002340000000  0.5527360000000 1.0
C      1  0.4988040000000  0.5182910000000  0.3967730000000 1.0
C      1  0.5061150000000  0.5029550000000  0.5023270000000 1.0
C      1  0.5205400000000  0.5146210000000  0.6098020000000 1.0
C      1  0.4616210000000  0.5987170000000  0.4534910000000 1.0
C      1  0.5477480000000  0.4962880000000  0.5787700000000 1.0
C      1  0.5242100000000  0.5423530000000  0.4635350000000 1.0
C      1  0.4489850000000  0.4686110000000  0.4263530000000 1.0
C      1  0.5143770000000  0.5427150000000  0.5358670000000 1.0
C      1  0.3963590000000  0.5013770000000  0.4904260000000 1.0
C      1  0.5096850000000  0.5687230000000  0.4618310000000 1.0
C      1  0.5333450000000  0.5896740000000  0.4733790000000 1.0
C      1  0.5466330000000  0.4178640000000  0.5399560000000 1.0
C      1  0.4101190000000  0.4814090000000  0.5360590000000 1.0
C      1  0.4905660000000  0.4599020000000  0.4902210000000 1.0
C      1  0.5661760000000  0.5572860000000  0.5362570000000 1.0
C      1  0.5401440000000  0.4809040000000  0.3990830000000 1.0
C      1  0.4775140000000  0.5543480000000  0.4194980000000 1.0
C      1  0.4204210000000  0.4411090000000  0.4749340000000 1.0
C      1  0.5693120000000  0.5479010000000  0.4907010000000 1.0
C      1  0.4805200000000  0.6037410000000  0.5066060000000 1.0
C      1  0.4901370000000  0.4237110000000  0.5270770000000 1.0
C      1  0.4253690000000  0.5401350000000  0.5672810000000 1.0
C      1  0.5717020000000  0.5337900000000  0.4428000000000 1.0
C      1  0.5168960000000  0.4635320000000  0.5876970000000 1.0
C      1  0.4677140000000  0.5284120000000  0.5296260000000 1.0
C      1  0.5206340000000  0.4622020000000  0.5214420000000 1.0
C      1  0.4697560000000  0.5041340000000  0.5951380000000 1.0
C      1  0.5182150000000  0.5151580000000  0.4545980000000 1.0
C      1  0.5076330000000  0.4106980000000  0.4575320000000 1.0
C      1  0.4605060000000  0.4457410000000  0.4409910000000 1.0
C      1  0.5951480000000  0.4646620000000  0.5118460000000 1.0
C      1  0.5943730000000  0.4936040000000  0.4594330000000 1.0
C      1  0.4477230000000  0.5785030000000  0.5392960000000 1.0
C      1  0.4097070000000  0.5336540000000  0.5428560000000 1.0
C      1  0.4443450000000  0.4294840000000  0.4614690000000 1.0
END
