TITL C-4164243-3780-634 -5.42370108539379 125000 -21321.3519723166 0 0 143 (C1) n - 1
REM
REM in /home/nfs/bkarasulu/CARBON/AIRSS/Generating-Clusters/ReaxFF-fromJPCA2015/Units_Real/with-SteepDescent/Only-C1/SD-CG/Try1-3A/FIRE-CG
REM
REM
REM
REM
REM
REM ./C.cell (11c1c37f851c82e70ff6c80c92926a4b)
REM
REM compiler GCC version 9.2.1 20190827 (Red Hat 9.2.1-1)
REM options -cpp -mtune=generic -march=x86-64 -g -O0 -fpre-include=/usr/include/finclude/math-vector-fortran.h
REM seed 1881806324 -406307808 -9757496 -157368191 -2058364149 -1004286788 -1536988620 -1118491917 2098930915 1295830668 42456625 -1080348220 -1873266013 254790213 -539648750 753090153 -1023709955 -1792101618 -1491157637 248641124 -1112332869 220387329 1813390102 1905305531 53298234 -1067555919 1485887227 -454086349 -1817001088 1185781441 2008386714 2137315836 173861066
REM
CELL 1.54180   50.00000   50.00000   50.00000   90.00000   90.00000   90.00000
LATT -1
SFAC C  
C      1  0.5690920000000  0.4954040000000  0.5712970000000 1.0
C      1  0.5156120000000  0.4078550000000  0.4751250000000 1.0
C      1  0.4302020000000  0.5662680000000  0.4577350000000 1.0
C      1  0.4983440000000  0.4518720000000  0.5486290000000 1.0
C      1  0.5130770000000  0.5920430000000  0.5138300000000 1.0
C      1  0.5070350000000  0.5967600000000  0.4612630000000 1.0
C      1  0.5461810000000  0.6134360000000  0.4892020000000 1.0
C      1  0.4713850000000  0.4784140000000  0.5187010000000 1.0
C      1  0.5593440000000  0.5210890000000  0.5225130000000 1.0
C      1  0.4608820000000  0.3915250000000  0.5104640000000 1.0
C      1  0.5452220000000  0.5674640000000  0.4329570000000 1.0
C      1  0.4713630000000  0.4945210000000  0.5904640000000 1.0
C      1  0.5485740000000  0.5417880000000  0.5732990000000 1.0
C      1  0.5832700000000  0.4847840000000  0.4682520000000 1.0
C      1  0.4178030000000  0.5056150000000  0.5573860000000 1.0
C      1  0.4657120000000  0.5219530000000  0.6001730000000 1.0
C      1  0.5503620000000  0.4618880000000  0.5018180000000 1.0
C      1  0.5573270000000  0.4151690000000  0.5134070000000 1.0
C      1  0.6030700000000  0.5194160000000  0.5361280000000 1.0
C      1  0.5494280000000  0.5279640000000  0.4969550000000 1.0
C      1  0.4941080000000  0.5243550000000  0.6103140000000 1.0
C      1  0.4846670000000  0.5592570000000  0.4970670000000 1.0
C      1  0.4805180000000  0.5097780000000  0.4107990000000 1.0
C      1  0.4619190000000  0.5244910000000  0.5329660000000 1.0
C      1  0.4034280000000  0.4903240000000  0.4917010000000 1.0
C      1  0.5421920000000  0.4471000000000  0.4375370000000 1.0
C      1  0.5192370000000  0.5861700000000  0.5625100000000 1.0
C      1  0.4846210000000  0.4365050000000  0.5855390000000 1.0
C      1  0.5000010000000  0.5096810000000  0.3864610000000 1.0
C      1  0.5348130000000  0.5507640000000  0.4904060000000 1.0
C      1  0.4688820000000  0.4159760000000  0.4524310000000 1.0
C      1  0.4456380000000  0.4628500000000  0.4767490000000 1.0
C      1  0.4671480000000  0.5623430000000  0.5694200000000 1.0
C      1  0.4801710000000  0.5857480000000  0.4606820000000 1.0
C      1  0.4201110000000  0.4535180000000  0.4689020000000 1.0
C      1  0.5143860000000  0.5618450000000  0.5097440000000 1.0
C      1  0.5357370000000  0.4720850000000  0.4527070000000 1.0
C      1  0.4564790000000  0.5703220000000  0.4178240000000 1.0
C      1  0.5179530000000  0.6064900000000  0.4879580000000 1.0
C      1  0.4918600000000  0.5153960000000  0.4768080000000 1.0
C      1  0.4228610000000  0.5609570000000  0.4858380000000 1.0
C      1  0.5578450000000  0.4444420000000  0.5585090000000 1.0
C      1  0.5347100000000  0.4380230000000  0.5727890000000 1.0
C      1  0.5309110000000  0.4065840000000  0.5011010000000 1.0
C      1  0.4763520000000  0.4924420000000  0.5612860000000 1.0
C      1  0.5854320000000  0.4565280000000  0.4674680000000 1.0
C      1  0.4099050000000  0.4821640000000  0.5432210000000 1.0
C      1  0.4121380000000  0.5191310000000  0.4483730000000 1.0
C      1  0.5544900000000  0.5428460000000  0.4281780000000 1.0
C      1  0.6027640000000  0.4972870000000  0.5185210000000 1.0
C      1  0.5257170000000  0.5494730000000  0.4628760000000 1.0
C      1  0.4945900000000  0.3929750000000  0.4865140000000 1.0
C      1  0.4561110000000  0.5878710000000  0.5558180000000 1.0
C      1  0.4536700000000  0.5809310000000  0.4454930000000 1.0
C      1  0.5720600000000  0.4744930000000  0.5511110000000 1.0
C      1  0.5918420000000  0.5606220000000  0.5132060000000 1.0
C      1  0.5015590000000  0.5649170000000  0.5768210000000 1.0
C      1  0.5116010000000  0.5042300000000  0.4943100000000 1.0
C      1  0.4505270000000  0.5405310000000  0.5831510000000 1.0
C      1  0.4472890000000  0.5886840000000  0.5255170000000 1.0
C      1  0.5799610000000  0.5416420000000  0.5329600000000 1.0
C      1  0.5794540000000  0.4279520000000  0.4976070000000 1.0
C      1  0.5585370000000  0.5905630000000  0.5302210000000 1.0
C      1  0.5255120000000  0.4943170000000  0.3924710000000 1.0
C      1  0.4308020000000  0.5000770000000  0.4331750000000 1.0
C      1  0.5106790000000  0.4067300000000  0.5225880000000 1.0
C      1  0.4773610000000  0.6068070000000  0.5506510000000 1.0
C      1  0.4213210000000  0.5448830000000  0.4404070000000 1.0
C      1  0.4582550000000  0.4594970000000  0.5025440000000 1.0
C      1  0.4745710000000  0.4684140000000  0.5455490000000 1.0
C      1  0.5426740000000  0.5081480000000  0.4111870000000 1.0
C      1  0.5393900000000  0.5073030000000  0.4827720000000 1.0
C      1  0.5069470000000  0.4819250000000  0.4452880000000 1.0
C      1  0.5132730000000  0.4439260000000  0.5909820000000 1.0
C      1  0.4501040000000  0.5173740000000  0.4143810000000 1.0
C      1  0.5157010000000  0.4740880000000  0.5614130000000 1.0
C      1  0.4686770000000  0.5487240000000  0.5418330000000 1.0
C      1  0.5525520000000  0.4960910000000  0.5340090000000 1.0
C      1  0.5149680000000  0.4742580000000  0.5908940000000 1.0
C      1  0.4051920000000  0.5146840000000  0.4768250000000 1.0
C      1  0.5349720000000  0.4781410000000  0.5192020000000 1.0
C      1  0.4270690000000  0.4304880000000  0.5374120000000 1.0
C      1  0.4544630000000  0.5033960000000  0.5187980000000 1.0
C      1  0.4409210000000  0.5441980000000  0.4167750000000 1.0
C      1  0.4206650000000  0.4259640000000  0.5114620000000 1.0
C      1  0.4223710000000  0.5326580000000  0.4925070000000 1.0
C      1  0.4749050000000  0.4791080000000  0.3997770000000 1.0
C      1  0.5245120000000  0.4416500000000  0.4138390000000 1.0
C      1  0.5063920000000  0.6009720000000  0.5411630000000 1.0
C      1  0.5194240000000  0.5442530000000  0.5633700000000 1.0
C      1  0.4083720000000  0.4491470000000  0.4957910000000 1.0
C      1  0.6045100000000  0.5575540000000  0.4893030000000 1.0
C      1  0.5789340000000  0.4556590000000  0.5085390000000 1.0
C      1  0.4724270000000  0.4293440000000  0.4122680000000 1.0
C      1  0.5036170000000  0.4996310000000  0.5518230000000 1.0
C      1  0.4994580000000  0.5344110000000  0.4574270000000 1.0
C      1  0.5548990000000  0.4961730000000  0.4602040000000 1.0
C      1  0.4796780000000  0.5579160000000  0.4689130000000 1.0
C      1  0.6053150000000  0.5288780000000  0.4794820000000 1.0
C      1  0.4561050000000  0.4976380000000  0.4504660000000 1.0
C      1  0.4621340000000  0.4202060000000  0.4808180000000 1.0
C      1  0.5255290000000  0.5764230000000  0.4497410000000 1.0
C      1  0.4684900000000  0.5690480000000  0.5185910000000 1.0
C      1  0.4250120000000  0.5809390000000  0.5085620000000 1.0
C      1  0.4722060000000  0.4568910000000  0.4001770000000 1.0
C      1  0.5051300000000  0.4499830000000  0.4991460000000 1.0
C      1  0.5676970000000  0.5985920000000  0.5051480000000 1.0
C      1  0.5542510000000  0.4263360000000  0.5389040000000 1.0
C      1  0.5244310000000  0.4645100000000  0.3963260000000 1.0
C      1  0.4220490000000  0.4650680000000  0.5595290000000 1.0
C      1  0.5457610000000  0.4298780000000  0.4610020000000 1.0
C      1  0.5823910000000  0.5757040000000  0.4924620000000 1.0
C      1  0.4414570000000  0.4069520000000  0.4980670000000 1.0
C      1  0.4885740000000  0.3868690000000  0.5136790000000 1.0
C      1  0.4326550000000  0.4388890000000  0.5638270000000 1.0
C      1  0.4971540000000  0.4934480000000  0.6039000000000 1.0
C      1  0.4511670000000  0.4258540000000  0.4320960000000 1.0
C      1  0.4972460000000  0.4276440000000  0.4514820000000 1.0
C      1  0.5921280000000  0.4718880000000  0.5290340000000 1.0
C      1  0.4907650000000  0.4593320000000  0.4523340000000 1.0
C      1  0.4975590000000  0.5086180000000  0.4373550000000 1.0
C      1  0.5492700000000  0.5826730000000  0.5548920000000 1.0
C      1  0.5093470000000  0.5150260000000  0.5271690000000 1.0
C      1  0.5061330000000  0.4785670000000  0.5082270000000 1.0
C      1  0.5568270000000  0.5151810000000  0.4324980000000 1.0
C      1  0.4772530000000  0.4416040000000  0.4935750000000 1.0
C      1  0.6003850000000  0.5016390000000  0.4863060000000 1.0
C      1  0.5610640000000  0.5163290000000  0.5767450000000 1.0
C      1  0.4228330000000  0.4686450000000  0.4295000000000 1.0
C      1  0.5341300000000  0.4509780000000  0.4792570000000 1.0
C      1  0.5649890000000  0.5580790000000  0.5564560000000 1.0
C      1  0.4467970000000  0.5185290000000  0.4957330000000 1.0
C      1  0.5751630000000  0.4300670000000  0.4687690000000 1.0
C      1  0.5060030000000  0.4352680000000  0.5259610000000 1.0
C      1  0.4318290000000  0.5239810000000  0.5699320000000 1.0
C      1  0.4266460000000  0.4433610000000  0.4398480000000 1.0
C      1  0.4034340000000  0.4735290000000  0.5114750000000 1.0
C      1  0.4641510000000  0.4695800000000  0.4542930000000 1.0
C      1  0.4638010000000  0.5121510000000  0.4744920000000 1.0
C      1  0.5070740000000  0.5495050000000  0.6037220000000 1.0
C      1  0.5000320000000  0.4261270000000  0.4222900000000 1.0
C      1  0.5142560000000  0.5407090000000  0.5346860000000 1.0
C      1  0.4603360000000  0.4354660000000  0.5774890000000 1.0
END
