TITL C-4164236-1577-203 -8.56818283461628 125000 -21791.7749710844 0 0 147 (C1) n - 1
REM
REM in /home/nfs/bkarasulu/CARBON/AIRSS/Generating-Clusters/ReaxFF-fromJPCA2015/Units_Real/with-SteepDescent/Only-C1/SD-CG/Try1-3A/FIRE-CG
REM
REM
REM
REM
REM
REM ./C.cell (11c1c37f851c82e70ff6c80c92926a4b)
REM
REM compiler GCC version 9.2.1 20190827 (Red Hat 9.2.1-1)
REM options -cpp -mtune=generic -march=x86-64 -g -O0 -fpre-include=/usr/include/finclude/math-vector-fortran.h
REM seed 584919246 -947285915 838183418 -1484206753 1541296080 -1109617588 -2041150805 -541161646 1648334280 402674141 -1750351295 -151221117 -2048158594 697574246 1545701194 1262862687 -1060946648 -292753457 -518320543 2030105057 -452726429 1774750004 -988232610 -813255273 609019925 -1562903763 -1167577755 444265979 -1521572604 -1959124240 -1765811088 1279526605 -417572046
REM
CELL 1.54180   50.00000   50.00000   50.00000   90.00000   90.00000   90.00000
LATT -1
SFAC C  
C      1  0.5484660000000  0.5085860000000  0.5287940000000 1.0
C      1  0.5136780000000  0.5878010000000  0.4638450000000 1.0
C      1  0.4550970000000  0.4993960000000  0.4105520000000 1.0
C      1  0.5704840000000  0.5569230000000  0.5459360000000 1.0
C      1  0.4561860000000  0.4870660000000  0.5876270000000 1.0
C      1  0.4317070000000  0.4398100000000  0.5420790000000 1.0
C      1  0.5850410000000  0.5602570000000  0.5009680000000 1.0
C      1  0.5182810000000  0.4032840000000  0.4928080000000 1.0
C      1  0.5180920000000  0.4071980000000  0.5716260000000 1.0
C      1  0.5196080000000  0.5910060000000  0.5270010000000 1.0
C      1  0.4201770000000  0.5187320000000  0.5501240000000 1.0
C      1  0.3995800000000  0.5133090000000  0.5032270000000 1.0
C      1  0.4423790000000  0.5373690000000  0.5538990000000 1.0
C      1  0.4699380000000  0.4625480000000  0.4379340000000 1.0
C      1  0.5977520000000  0.4701540000000  0.5133230000000 1.0
C      1  0.5349080000000  0.4938110000000  0.4252830000000 1.0
C      1  0.5203210000000  0.4087930000000  0.5217470000000 1.0
C      1  0.5391580000000  0.5432130000000  0.4730970000000 1.0
C      1  0.5013850000000  0.4264070000000  0.4405580000000 1.0
C      1  0.5822780000000  0.5642880000000  0.4721750000000 1.0
C      1  0.4321970000000  0.4436710000000  0.4477820000000 1.0
C      1  0.4121710000000  0.4930880000000  0.4478450000000 1.0
C      1  0.5674210000000  0.5311780000000  0.4361840000000 1.0
C      1  0.5876270000000  0.4602610000000  0.4541480000000 1.0
C      1  0.4817940000000  0.5138760000000  0.5296900000000 1.0
C      1  0.4685650000000  0.5694730000000  0.4390440000000 1.0
C      1  0.4310450000000  0.4913320000000  0.4254400000000 1.0
C      1  0.4056960000000  0.4661600000000  0.5208160000000 1.0
C      1  0.4677990000000  0.4899570000000  0.5348750000000 1.0
C      1  0.4757810000000  0.4554020000000  0.5053140000000 1.0
C      1  0.5491020000000  0.5957820000000  0.5215620000000 1.0
C      1  0.5491160000000  0.5985230000000  0.4932180000000 1.0
C      1  0.4008050000000  0.5321050000000  0.4813270000000 1.0
C      1  0.5342510000000  0.4346730000000  0.5218710000000 1.0
C      1  0.5685250000000  0.4647600000000  0.5132200000000 1.0
C      1  0.5467280000000  0.4711630000000  0.4945320000000 1.0
C      1  0.5004020000000  0.4936450000000  0.4254140000000 1.0
C      1  0.4422450000000  0.5333730000000  0.5825090000000 1.0
C      1  0.4712750000000  0.4230920000000  0.4815750000000 1.0
C      1  0.4384400000000  0.5323910000000  0.4549320000000 1.0
C      1  0.4650370000000  0.5495010000000  0.5907350000000 1.0
C      1  0.4126480000000  0.4454510000000  0.4691690000000 1.0
C      1  0.5438020000000  0.4906920000000  0.4549370000000 1.0
C      1  0.4999960000000  0.5015460000000  0.5936680000000 1.0
C      1  0.5305810000000  0.5687230000000  0.4860460000000 1.0
C      1  0.4910440000000  0.5796600000000  0.4515880000000 1.0
C      1  0.4511730000000  0.5864450000000  0.5523750000000 1.0
C      1  0.5310190000000  0.5263030000000  0.5429540000000 1.0
C      1  0.4507510000000  0.4856520000000  0.4738090000000 1.0
C      1  0.6010400000000  0.5227380000000  0.4767050000000 1.0
C      1  0.4500360000000  0.4641200000000  0.4549930000000 1.0
C      1  0.4924170000000  0.4193780000000  0.5812070000000 1.0
C      1  0.4903710000000  0.3996650000000  0.4871740000000 1.0
C      1  0.5546840000000  0.4440660000000  0.4328530000000 1.0
C      1  0.4806630000000  0.5156620000000  0.4428830000000 1.0
C      1  0.5876940000000  0.4236840000000  0.5193450000000 1.0
C      1  0.4353420000000  0.5044270000000  0.5872340000000 1.0
C      1  0.5863840000000  0.5399390000000  0.4560280000000 1.0
C      1  0.4799300000000  0.5983680000000  0.5537900000000 1.0
C      1  0.4782810000000  0.4087770000000  0.5575550000000 1.0
C      1  0.4636200000000  0.5257360000000  0.4214840000000 1.0
C      1  0.5327580000000  0.4307260000000  0.5772310000000 1.0
C      1  0.4452560000000  0.5610930000000  0.4564090000000 1.0
C      1  0.5220050000000  0.5689020000000  0.5694630000000 1.0
C      1  0.4561800000000  0.5716300000000  0.5751070000000 1.0
C      1  0.5485750000000  0.5220320000000  0.4179590000000 1.0
C      1  0.5497100000000  0.4681110000000  0.4176700000000 1.0
C      1  0.5187700000000  0.5653580000000  0.5133170000000 1.0
C      1  0.5774370000000  0.4349900000000  0.4497800000000 1.0
C      1  0.5654570000000  0.5414800000000  0.5678900000000 1.0
C      1  0.5489130000000  0.4996980000000  0.5020920000000 1.0
C      1  0.4327180000000  0.5737850000000  0.4792080000000 1.0
C      1  0.4641590000000  0.5391030000000  0.5348170000000 1.0
C      1  0.5041480000000  0.4010080000000  0.5451760000000 1.0
C      1  0.4693410000000  0.5559940000000  0.5115750000000 1.0
C      1  0.5124830000000  0.5438730000000  0.5313200000000 1.0
C      1  0.4651540000000  0.3989270000000  0.4975390000000 1.0
C      1  0.4749460000000  0.4202750000000  0.4489480000000 1.0
C      1  0.5660720000000  0.4152040000000  0.4716560000000 1.0
C      1  0.5626720000000  0.4397110000000  0.5251680000000 1.0
C      1  0.5235980000000  0.4549820000000  0.5038050000000 1.0
C      1  0.5964320000000  0.4976460000000  0.4665450000000 1.0
C      1  0.4550960000000  0.4745880000000  0.4994740000000 1.0
C      1  0.4572350000000  0.5106150000000  0.4596540000000 1.0
C      1  0.5262110000000  0.4530400000000  0.5850400000000 1.0
C      1  0.5769110000000  0.4850990000000  0.4533350000000 1.0
C      1  0.5973360000000  0.5344610000000  0.5050420000000 1.0
C      1  0.4948030000000  0.4728770000000  0.4445450000000 1.0
C      1  0.5027190000000  0.5528840000000  0.4047650000000 1.0
C      1  0.5302510000000  0.5406860000000  0.4040920000000 1.0
C      1  0.5225840000000  0.5584080000000  0.4255540000000 1.0
C      1  0.5142160000000  0.5256400000000  0.5916210000000 1.0
C      1  0.5391770000000  0.4648290000000  0.4669020000000 1.0
C      1  0.4838540000000  0.4667120000000  0.5340460000000 1.0
C      1  0.6007630000000  0.5213450000000  0.5314440000000 1.0
C      1  0.4818410000000  0.4791070000000  0.5934590000000 1.0
C      1  0.5372870000000  0.5137400000000  0.4791240000000 1.0
C      1  0.5059380000000  0.5078610000000  0.4797630000000 1.0
C      1  0.5147030000000  0.4785250000000  0.5425440000000 1.0
C      1  0.4430880000000  0.4112880000000  0.4876810000000 1.0
C      1  0.4982500000000  0.4798780000000  0.4721040000000 1.0
C      1  0.4913200000000  0.5394750000000  0.5796870000000 1.0
C      1  0.4580530000000  0.4299410000000  0.5491410000000 1.0
C      1  0.5498710000000  0.4681290000000  0.5791920000000 1.0
C      1  0.5300940000000  0.4383170000000  0.4539700000000 1.0
C      1  0.5371860000000  0.4154570000000  0.4731260000000 1.0
C      1  0.4775130000000  0.4502540000000  0.5558050000000 1.0
C      1  0.4924750000000  0.4501250000000  0.5811210000000 1.0
C      1  0.5676810000000  0.4993320000000  0.5470190000000 1.0
C      1  0.4011670000000  0.4841450000000  0.4976970000000 1.0
C      1  0.5676370000000  0.5867650000000  0.4567740000000 1.0
C      1  0.4881640000000  0.4560240000000  0.4012270000000 1.0
C      1  0.5006130000000  0.5539260000000  0.5553960000000 1.0
C      1  0.4820730000000  0.5401260000000  0.4910250000000 1.0
C      1  0.4149110000000  0.5579560000000  0.5201240000000 1.0
C      1  0.5714850000000  0.5734730000000  0.5244860000000 1.0
C      1  0.4086010000000  0.5294040000000  0.5261060000000 1.0
C      1  0.5066230000000  0.4438700000000  0.4196980000000 1.0
C      1  0.4756330000000  0.5513560000000  0.4155850000000 1.0
C      1  0.6036980000000  0.4966240000000  0.5207010000000 1.0
C      1  0.5355780000000  0.5412580000000  0.5743480000000 1.0
C      1  0.4898340000000  0.5178270000000  0.5013660000000 1.0
C      1  0.4914950000000  0.6000560000000  0.5269310000000 1.0
C      1  0.6101150000000  0.4429480000000  0.5208000000000 1.0
C      1  0.4524320000000  0.4276910000000  0.4325660000000 1.0
C      1  0.4443610000000  0.5892730000000  0.5024410000000 1.0
C      1  0.4994980000000  0.4593460000000  0.4913840000000 1.0
C      1  0.4113820000000  0.5213970000000  0.4563620000000 1.0
C      1  0.4055480000000  0.4737920000000  0.4708740000000 1.0
C      1  0.5200200000000  0.5456620000000  0.4520650000000 1.0
C      1  0.5097470000000  0.5050020000000  0.5431220000000 1.0
C      1  0.4257560000000  0.4717080000000  0.5435780000000 1.0
C      1  0.4200640000000  0.4276680000000  0.4916080000000 1.0
C      1  0.4813080000000  0.4847990000000  0.4046580000000 1.0
C      1  0.4231420000000  0.4935160000000  0.5638470000000 1.0
C      1  0.4625140000000  0.4483810000000  0.4133900000000 1.0
C      1  0.5826070000000  0.5190720000000  0.5574600000000 1.0
C      1  0.4149960000000  0.4382880000000  0.5186500000000 1.0
C      1  0.4961060000000  0.5315170000000  0.4623460000000 1.0
C      1  0.5020700000000  0.5907080000000  0.5734970000000 1.0
C      1  0.4727010000000  0.5862430000000  0.5088830000000 1.0
C      1  0.5395730000000  0.5934520000000  0.4538220000000 1.0
C      1  0.4339330000000  0.5792360000000  0.5279930000000 1.0
C      1  0.5829270000000  0.4073100000000  0.4943160000000 1.0
C      1  0.4114230000000  0.5579030000000  0.4913220000000 1.0
C      1  0.5626330000000  0.4849480000000  0.5691690000000 1.0
C      1  0.4423790000000  0.4857960000000  0.5220250000000 1.0
END
