TITL C-4164235-1454-376 83.3964929921848 125000 -22863.2442393106 0 0 158 (C1) n - 1
REM
REM in /home/nfs/bkarasulu/CARBON/AIRSS/Generating-Clusters/ReaxFF-fromJPCA2015/Units_Real/with-SteepDescent/Only-C1/SD-CG/Try1-3A/FIRE-CG
REM
REM
REM
REM
REM
REM ./C.cell (11c1c37f851c82e70ff6c80c92926a4b)
REM
REM compiler GCC version 9.2.1 20190827 (Red Hat 9.2.1-1)
REM options -cpp -mtune=generic -march=x86-64 -g -O0 -fpre-include=/usr/include/finclude/math-vector-fortran.h
REM seed -2011867615 119564063 -70288749 1442068596 521680940 737286441 1000682479 -1661560775 1510876223 -178060053 -862483074 813619951 -1330375976 -263955429 453606467 -591537294 -970069685 -1480448838 1139088270 -1987247238 1886194684 -1200119657 1123699547 -1926602880 1886532002 11589647 -87632423 1654742874 1292992212 -740042953 950663963 -419256355 -1882185144
REM
CELL 1.54180   50.00000   50.00000   50.00000   90.00000   90.00000   90.00000
LATT -1
SFAC C  
C      1  0.5042640000000  0.4910780000000  0.5601280000000 1.0
C      1  0.5247160000000  0.4364790000000  0.5068380000000 1.0
C      1  0.5806280000000  0.4621330000000  0.5621300000000 1.0
C      1  0.5133100000000  0.4897680000000  0.4582540000000 1.0
C      1  0.4231780000000  0.5519940000000  0.5472650000000 1.0
C      1  0.5334290000000  0.4160640000000  0.4673940000000 1.0
C      1  0.4379500000000  0.5317060000000  0.5609990000000 1.0
C      1  0.5763330000000  0.4353910000000  0.4732990000000 1.0
C      1  0.5819700000000  0.5557160000000  0.5151390000000 1.0
C      1  0.4710250000000  0.3969960000000  0.4653880000000 1.0
C      1  0.4513350000000  0.4186910000000  0.5424190000000 1.0
C      1  0.4759660000000  0.4651040000000  0.4048290000000 1.0
C      1  0.4438920000000  0.4666190000000  0.5336490000000 1.0
C      1  0.4319870000000  0.4536840000000  0.5703640000000 1.0
C      1  0.4662880000000  0.4712430000000  0.5993110000000 1.0
C      1  0.4877510000000  0.5397280000000  0.5175320000000 1.0
C      1  0.4667860000000  0.5122330000000  0.4710250000000 1.0
C      1  0.4721120000000  0.4302190000000  0.5173540000000 1.0
C      1  0.4969140000000  0.4412300000000  0.5074990000000 1.0
C      1  0.4582960000000  0.4495070000000  0.5818290000000 1.0
C      1  0.4445900000000  0.5185350000000  0.4483040000000 1.0
C      1  0.5351550000000  0.4571580000000  0.5842510000000 1.0
C      1  0.5483820000000  0.5720360000000  0.5613790000000 1.0
C      1  0.5144990000000  0.5417560000000  0.5072230000000 1.0
C      1  0.5831270000000  0.4458460000000  0.4350100000000 1.0
C      1  0.3967170000000  0.5107500000000  0.5280200000000 1.0
C      1  0.5796830000000  0.4911140000000  0.5645080000000 1.0
C      1  0.4900350000000  0.5595850000000  0.4032640000000 1.0
C      1  0.5033600000000  0.4190350000000  0.5553380000000 1.0
C      1  0.4388430000000  0.4018650000000  0.4902990000000 1.0
C      1  0.5728650000000  0.5332510000000  0.5373300000000 1.0
C      1  0.5279660000000  0.4764470000000  0.5235260000000 1.0
C      1  0.4826700000000  0.4033780000000  0.5125640000000 1.0
C      1  0.4006840000000  0.5385740000000  0.5320000000000 1.0
C      1  0.4226310000000  0.5555010000000  0.4731860000000 1.0
C      1  0.4243940000000  0.5076570000000  0.5661340000000 1.0
C      1  0.5608270000000  0.5515550000000  0.4531550000000 1.0
C      1  0.4881570000000  0.4696300000000  0.5504720000000 1.0
C      1  0.5683660000000  0.5817620000000  0.5162990000000 1.0
C      1  0.4028900000000  0.4661280000000  0.5131590000000 1.0
C      1  0.5430990000000  0.4907670000000  0.5428170000000 1.0
C      1  0.4666660000000  0.4786290000000  0.4496460000000 1.0
C      1  0.5222280000000  0.5985930000000  0.5292970000000 1.0
C      1  0.5477900000000  0.5877210000000  0.5369550000000 1.0
C      1  0.4996430000000  0.4240180000000  0.4275010000000 1.0
C      1  0.4597540000000  0.3947230000000  0.5555530000000 1.0
C      1  0.4290180000000  0.4390240000000  0.5421570000000 1.0
C      1  0.4990720000000  0.5941830000000  0.5462730000000 1.0
C      1  0.5971910000000  0.5371100000000  0.4665620000000 1.0
C      1  0.5011220000000  0.4499760000000  0.4120680000000 1.0
C      1  0.4305880000000  0.4449240000000  0.4350870000000 1.0
C      1  0.4606920000000  0.5801720000000  0.4408120000000 1.0
C      1  0.5016540000000  0.5711320000000  0.4504680000000 1.0
C      1  0.5338080000000  0.4634590000000  0.4465730000000 1.0
C      1  0.5517640000000  0.5973710000000  0.4689010000000 1.0
C      1  0.4951950000000  0.5750700000000  0.4941550000000 1.0
C      1  0.5892160000000  0.4890090000000  0.4873880000000 1.0
C      1  0.5079540000000  0.4904070000000  0.5086250000000 1.0
C      1  0.5927690000000  0.5081160000000  0.4642980000000 1.0
C      1  0.5870650000000  0.4581690000000  0.4605260000000 1.0
C      1  0.5151700000000  0.5962800000000  0.5002360000000 1.0
C      1  0.5203790000000  0.4422440000000  0.4638890000000 1.0
C      1  0.5570470000000  0.4428240000000  0.5705970000000 1.0
C      1  0.5875740000000  0.5574740000000  0.4872880000000 1.0
C      1  0.4236200000000  0.4712600000000  0.4722450000000 1.0
C      1  0.5873050000000  0.4308580000000  0.5188690000000 1.0
C      1  0.5490270000000  0.5154830000000  0.5302220000000 1.0
C      1  0.5443390000000  0.4606000000000  0.5057340000000 1.0
C      1  0.4691020000000  0.5218080000000  0.5810780000000 1.0
C      1  0.4496180000000  0.5585570000000  0.4803580000000 1.0
C      1  0.5077340000000  0.5116930000000  0.3986920000000 1.0
C      1  0.5243690000000  0.4665290000000  0.4174290000000 1.0
C      1  0.5257190000000  0.5685480000000  0.5791220000000 1.0
C      1  0.5297320000000  0.5524180000000  0.4864360000000 1.0
C      1  0.4023790000000  0.4818020000000  0.4879100000000 1.0
C      1  0.5079590000000  0.5728740000000  0.4222240000000 1.0
C      1  0.4209270000000  0.4237720000000  0.4893750000000 1.0
C      1  0.4785250000000  0.5062560000000  0.4050590000000 1.0
C      1  0.4881900000000  0.3987380000000  0.5412950000000 1.0
C      1  0.4555790000000  0.4543960000000  0.5109720000000 1.0
C      1  0.4672550000000  0.5546540000000  0.4214350000000 1.0
C      1  0.5589560000000  0.4835790000000  0.4847370000000 1.0
C      1  0.4616500000000  0.5270870000000  0.4223250000000 1.0
C      1  0.5226430000000  0.5718030000000  0.4671810000000 1.0
C      1  0.4764840000000  0.6024860000000  0.4461980000000 1.0
C      1  0.4812150000000  0.4930730000000  0.5185850000000 1.0
C      1  0.5510520000000  0.5084540000000  0.4259390000000 1.0
C      1  0.5005260000000  0.5761140000000  0.5708480000000 1.0
C      1  0.4042290000000  0.4838930000000  0.5374880000000 1.0
C      1  0.4596130000000  0.4933200000000  0.5802210000000 1.0
C      1  0.4446540000000  0.5712670000000  0.5043490000000 1.0
C      1  0.5200170000000  0.5427020000000  0.5868880000000 1.0
C      1  0.4171990000000  0.4799500000000  0.5636140000000 1.0
C      1  0.5519780000000  0.4090440000000  0.4940650000000 1.0
C      1  0.5049530000000  0.4790970000000  0.4829290000000 1.0
C      1  0.4332910000000  0.4300310000000  0.4607480000000 1.0
C      1  0.4738480000000  0.6050980000000  0.4714410000000 1.0
C      1  0.4221140000000  0.4718740000000  0.4427900000000 1.0
C      1  0.5767190000000  0.4212350000000  0.4948070000000 1.0
C      1  0.4574680000000  0.5748710000000  0.5486380000000 1.0
C      1  0.5470540000000  0.5309720000000  0.5807100000000 1.0
C      1  0.4649710000000  0.3901080000000  0.4923240000000 1.0
C      1  0.5507310000000  0.5366520000000  0.4759530000000 1.0
C      1  0.5638280000000  0.4478920000000  0.5264450000000 1.0
C      1  0.4950070000000  0.4725350000000  0.6081340000000 1.0
C      1  0.4988840000000  0.6134880000000  0.4624310000000 1.0
C      1  0.5291890000000  0.5164690000000  0.5093900000000 1.0
C      1  0.4497930000000  0.4632310000000  0.4847530000000 1.0
C      1  0.4598740000000  0.4394350000000  0.4692070000000 1.0
C      1  0.4612040000000  0.5007920000000  0.4974670000000 1.0
C      1  0.4880020000000  0.5150480000000  0.5592560000000 1.0
C      1  0.5956560000000  0.4970260000000  0.5151250000000 1.0
C      1  0.5290970000000  0.5528470000000  0.4176930000000 1.0
C      1  0.5145990000000  0.5189550000000  0.4559720000000 1.0
C      1  0.5914820000000  0.4529650000000  0.5373870000000 1.0
C      1  0.4387600000000  0.5752490000000  0.4582150000000 1.0
C      1  0.4032200000000  0.5112400000000  0.4819640000000 1.0
C      1  0.4891660000000  0.4425710000000  0.5695480000000 1.0
C      1  0.5450940000000  0.4418760000000  0.5491690000000 1.0
C      1  0.4968850000000  0.5267690000000  0.5976580000000 1.0
C      1  0.5784710000000  0.5119990000000  0.4379690000000 1.0
C      1  0.5845880000000  0.5408860000000  0.4398270000000 1.0
C      1  0.4187690000000  0.5278640000000  0.4643550000000 1.0
C      1  0.5898760000000  0.5074600000000  0.5415330000000 1.0
C      1  0.5621360000000  0.5471070000000  0.5625940000000 1.0
C      1  0.4144230000000  0.4401300000000  0.5138830000000 1.0
C      1  0.4718850000000  0.4487300000000  0.4437850000000 1.0
C      1  0.5119760000000  0.5403260000000  0.3963140000000 1.0
C      1  0.5257510000000  0.4081340000000  0.4405860000000 1.0
C      1  0.5314740000000  0.5284070000000  0.4350950000000 1.0
C      1  0.4558090000000  0.4473580000000  0.4194760000000 1.0
C      1  0.4769090000000  0.5595860000000  0.5648710000000 1.0
C      1  0.4971200000000  0.4517960000000  0.4803360000000 1.0
C      1  0.4862400000000  0.5587580000000  0.4708590000000 1.0
C      1  0.5491190000000  0.5113410000000  0.4891220000000 1.0
C      1  0.5251290000000  0.6095240000000  0.4763180000000 1.0
C      1  0.4608540000000  0.4801310000000  0.5528700000000 1.0
C      1  0.4903400000000  0.5291490000000  0.4675080000000 1.0
C      1  0.5323520000000  0.4191650000000  0.5478030000000 1.0
C      1  0.4441420000000  0.5577830000000  0.5304640000000 1.0
C      1  0.4904680000000  0.4885530000000  0.4429520000000 1.0
C      1  0.5569630000000  0.5035120000000  0.5796170000000 1.0
C      1  0.5460950000000  0.5763270000000  0.4487530000000 1.0
C      1  0.4980470000000  0.5003870000000  0.6051440000000 1.0
C      1  0.4431010000000  0.4912260000000  0.4362180000000 1.0
C      1  0.5298620000000  0.4943110000000  0.4096790000000 1.0
C      1  0.4691170000000  0.5893020000000  0.5031410000000 1.0
C      1  0.4738170000000  0.5933960000000  0.5329890000000 1.0
C      1  0.5326720000000  0.4864030000000  0.5730180000000 1.0
C      1  0.4889320000000  0.5401510000000  0.5459940000000 1.0
C      1  0.4706740000000  0.5180370000000  0.5178820000000 1.0
C      1  0.4861520000000  0.4864690000000  0.4175440000000 1.0
C      1  0.5353190000000  0.4122030000000  0.5179850000000 1.0
C      1  0.5606630000000  0.4707310000000  0.4587430000000 1.0
C      1  0.5711640000000  0.5848470000000  0.4871270000000 1.0
C      1  0.4835740000000  0.4082210000000  0.4449190000000 1.0
C      1  0.5078720000000  0.4515940000000  0.5913030000000 1.0
C      1  0.4052330000000  0.5288110000000  0.5046370000000 1.0
END
