TITL C-4164243-3780-517 17.5137945429296 125000 -8933.87737824042 0 0 62 (C1) n - 1
REM
REM in /home/nfs/bkarasulu/CARBON/AIRSS/Generating-Clusters/ReaxFF-fromJPCA2015/Units_Real/with-SteepDescent/Only-C1/SD-CG/Try1-3A/FIRE-CG
REM
REM
REM
REM
REM
REM ./C.cell (11c1c37f851c82e70ff6c80c92926a4b)
REM
REM compiler GCC version 9.2.1 20190827 (Red Hat 9.2.1-1)
REM options -cpp -mtune=generic -march=x86-64 -g -O0 -fpre-include=/usr/include/finclude/math-vector-fortran.h
REM seed 216298920 1512873189 164058723 -427825073 -209874014 -2045619263 -433118154 131503973 -578913451 199145808 1935948071 -1801714462 1085930182 907543780 994818641 -117883714 1802601188 86551499 -280201682 1365952084 310225978 -964185612 1485212669 1349782536 -1443342335 341743583 815454169 77264861 1952857683 283614925 1621431498 875497532 -717918461
REM
CELL 1.54180   50.00000   50.00000   50.00000   90.00000   90.00000   90.00000
LATT -1
SFAC C  
C      1  0.4610070000000  0.5409960000000  0.5497560000000 1.0
C      1  0.5800200000000  0.5109750000000  0.5180090000000 1.0
C      1  0.5092300000000  0.5365660000000  0.5613710000000 1.0
C      1  0.5106090000000  0.5216190000000  0.4922510000000 1.0
C      1  0.4902000000000  0.4898150000000  0.5643780000000 1.0
C      1  0.4415810000000  0.5360150000000  0.4577420000000 1.0
C      1  0.5295890000000  0.5002270000000  0.4503410000000 1.0
C      1  0.5034340000000  0.4061070000000  0.4923670000000 1.0
C      1  0.5285010000000  0.4569780000000  0.5132190000000 1.0
C      1  0.4179720000000  0.4880910000000  0.4534320000000 1.0
C      1  0.5354920000000  0.5283490000000  0.5747000000000 1.0
C      1  0.4200160000000  0.5186190000000  0.4539700000000 1.0
C      1  0.5765160000000  0.4617440000000  0.5008970000000 1.0
C      1  0.5460070000000  0.4391680000000  0.4697550000000 1.0
C      1  0.5278440000000  0.5626380000000  0.4737700000000 1.0
C      1  0.5411930000000  0.4515640000000  0.4452320000000 1.0
C      1  0.5217040000000  0.5383190000000  0.4319330000000 1.0
C      1  0.5120450000000  0.4091110000000  0.5211960000000 1.0
C      1  0.4816060000000  0.4485590000000  0.5311760000000 1.0
C      1  0.4820890000000  0.5467620000000  0.4591780000000 1.0
C      1  0.5106480000000  0.5109420000000  0.4310080000000 1.0
C      1  0.5387830000000  0.5159190000000  0.4960630000000 1.0
C      1  0.4399650000000  0.4717340000000  0.4551050000000 1.0
C      1  0.4746320000000  0.5097940000000  0.5256750000000 1.0
C      1  0.4948350000000  0.4993480000000  0.5060260000000 1.0
C      1  0.5093780000000  0.4384100000000  0.5270740000000 1.0
C      1  0.4978550000000  0.4289010000000  0.4746620000000 1.0
C      1  0.5262160000000  0.4747980000000  0.4440460000000 1.0
C      1  0.5200220000000  0.4867870000000  0.5593970000000 1.0
C      1  0.4558740000000  0.5536150000000  0.4729290000000 1.0
C      1  0.4335240000000  0.5253070000000  0.5036470000000 1.0
C      1  0.5830470000000  0.4811440000000  0.5190440000000 1.0
C      1  0.4930600000000  0.5350270000000  0.4346270000000 1.0
C      1  0.5951370000000  0.4826020000000  0.4913450000000 1.0
C      1  0.5519980000000  0.4508960000000  0.4944820000000 1.0
C      1  0.5934710000000  0.5108470000000  0.4936420000000 1.0
C      1  0.5118260000000  0.4778250000000  0.5097460000000 1.0
C      1  0.5120200000000  0.5806480000000  0.5077380000000 1.0
C      1  0.4469660000000  0.5043290000000  0.5184520000000 1.0
C      1  0.5407880000000  0.5112470000000  0.5509370000000 1.0
C      1  0.4392590000000  0.4726320000000  0.5149520000000 1.0
C      1  0.4735680000000  0.4453990000000  0.4819690000000 1.0
C      1  0.4095640000000  0.4698410000000  0.5025330000000 1.0
C      1  0.5224080000000  0.4667930000000  0.5751410000000 1.0
C      1  0.4496960000000  0.5495760000000  0.5021430000000 1.0
C      1  0.4478550000000  0.4701250000000  0.5426620000000 1.0
C      1  0.5397600000000  0.5534970000000  0.5243570000000 1.0
C      1  0.5159830000000  0.5569270000000  0.5415640000000 1.0
C      1  0.4939590000000  0.5710330000000  0.5268790000000 1.0
C      1  0.5464760000000  0.5190390000000  0.4684040000000 1.0
C      1  0.4649650000000  0.4522920000000  0.5088240000000 1.0
C      1  0.4842310000000  0.5184170000000  0.5549190000000 1.0
C      1  0.5032940000000  0.5469930000000  0.4794190000000 1.0
C      1  0.4571950000000  0.4585570000000  0.4633880000000 1.0
C      1  0.5400020000000  0.5440070000000  0.4546030000000 1.0
C      1  0.4732190000000  0.4675340000000  0.5549760000000 1.0
C      1  0.4131810000000  0.5174900000000  0.4830240000000 1.0
C      1  0.5378620000000  0.5709890000000  0.5009880000000 1.0
C      1  0.5204880000000  0.4363700000000  0.4572240000000 1.0
C      1  0.4046960000000  0.4884530000000  0.4816510000000 1.0
C      1  0.4655300000000  0.5571610000000  0.5261700000000 1.0
C      1  0.5501130000000  0.5245340000000  0.5238900000000 1.0
END
