TITL C-4164235-1454-197 38.7635093690342 125000 -26788.4746111971 0 0 180 (C1) n - 1
REM
REM in /home/nfs/bkarasulu/CARBON/AIRSS/Generating-Clusters/ReaxFF-fromJPCA2015/Units_Real/with-SteepDescent/Only-C1/SD-CG/Try1-3A/FIRE-CG
REM
REM
REM
REM
REM
REM ./C.cell (11c1c37f851c82e70ff6c80c92926a4b)
REM
REM compiler GCC version 9.2.1 20190827 (Red Hat 9.2.1-1)
REM options -cpp -mtune=generic -march=x86-64 -g -O0 -fpre-include=/usr/include/finclude/math-vector-fortran.h
REM seed 424878983 93098212 1635465428 1887545234 -398619469 -2141790204 -695923310 86304283 1173229083 2128377474 -928798265 -594079261 2016699742 902445253 -123147281 -1047369691 -827569053 5757249 -1851071323 1106655487 1546499134 -589046855 -1126420134 655523403 1210377126 -856777213 -1798319734 -2125907558 735307366 139548419 -985507266 -407540032 -1411949225
REM
CELL 1.54180   50.00000   50.00000   50.00000   90.00000   90.00000   90.00000
LATT -1
SFAC C  
C      1  0.4553530000000  0.5035050000000  0.4847190000000 1.0
C      1  0.5127290000000  0.5591640000000  0.4502810000000 1.0
C      1  0.4433960000000  0.5330070000000  0.3984200000000 1.0
C      1  0.4311880000000  0.5269500000000  0.5956290000000 1.0
C      1  0.5163390000000  0.4071890000000  0.4678750000000 1.0
C      1  0.4235730000000  0.5152930000000  0.4058710000000 1.0
C      1  0.4981610000000  0.6172520000000  0.5014200000000 1.0
C      1  0.6042830000000  0.4890590000000  0.4498100000000 1.0
C      1  0.4858210000000  0.5505090000000  0.5782260000000 1.0
C      1  0.4695050000000  0.5083410000000  0.5545460000000 1.0
C      1  0.5613220000000  0.4341820000000  0.4441120000000 1.0
C      1  0.5697950000000  0.5443090000000  0.4134110000000 1.0
C      1  0.4219010000000  0.5644700000000  0.4835630000000 1.0
C      1  0.4784970000000  0.5153250000000  0.6064440000000 1.0
C      1  0.5871200000000  0.4395410000000  0.4872600000000 1.0
C      1  0.5887790000000  0.4488910000000  0.5363860000000 1.0
C      1  0.4141750000000  0.5665210000000  0.5115990000000 1.0
C      1  0.4573650000000  0.5717540000000  0.4299930000000 1.0
C      1  0.6135290000000  0.4941040000000  0.4774080000000 1.0
C      1  0.5545090000000  0.5789660000000  0.5367690000000 1.0
C      1  0.5346690000000  0.4499890000000  0.4434710000000 1.0
C      1  0.3848820000000  0.5004100000000  0.4935390000000 1.0
C      1  0.4806510000000  0.4138060000000  0.4377160000000 1.0
C      1  0.5189360000000  0.5292420000000  0.4064620000000 1.0
C      1  0.5013390000000  0.5169260000000  0.4275360000000 1.0
C      1  0.4223030000000  0.4279130000000  0.4400570000000 1.0
C      1  0.5009630000000  0.5977650000000  0.5465360000000 1.0
C      1  0.5373790000000  0.5004910000000  0.4460740000000 1.0
C      1  0.5198080000000  0.4861720000000  0.6157420000000 1.0
C      1  0.4609680000000  0.5865680000000  0.4539160000000 1.0
C      1  0.5452610000000  0.4990330000000  0.6105740000000 1.0
C      1  0.4885130000000  0.4480150000000  0.6117120000000 1.0
C      1  0.5431130000000  0.4976630000000  0.5262990000000 1.0
C      1  0.5019030000000  0.4996950000000  0.5970480000000 1.0
C      1  0.4355840000000  0.4171520000000  0.4631590000000 1.0
C      1  0.4911480000000  0.3956700000000  0.5141640000000 1.0
C      1  0.5859110000000  0.4415160000000  0.4575550000000 1.0
C      1  0.3941590000000  0.4672780000000  0.4575900000000 1.0
C      1  0.4762920000000  0.5251020000000  0.5771520000000 1.0
C      1  0.5618260000000  0.4507560000000  0.5210000000000 1.0
C      1  0.4549420000000  0.4838970000000  0.4623290000000 1.0
C      1  0.5087130000000  0.4471250000000  0.5139220000000 1.0
C      1  0.5756040000000  0.5912140000000  0.4910530000000 1.0
C      1  0.5193120000000  0.4442410000000  0.4161410000000 1.0
C      1  0.5933860000000  0.5632680000000  0.4595650000000 1.0
C      1  0.5041680000000  0.5092990000000  0.5234940000000 1.0
C      1  0.5408480000000  0.5447120000000  0.4213700000000 1.0
C      1  0.5539850000000  0.4776160000000  0.5098540000000 1.0
C      1  0.5156140000000  0.5890060000000  0.5715530000000 1.0
C      1  0.5416730000000  0.5393600000000  0.5076840000000 1.0
C      1  0.4887010000000  0.4872420000000  0.5117210000000 1.0
C      1  0.5553900000000  0.4016640000000  0.5012570000000 1.0
C      1  0.5908970000000  0.4655530000000  0.4382940000000 1.0
C      1  0.5300020000000  0.5884580000000  0.4809020000000 1.0
C      1  0.4099830000000  0.4768640000000  0.4343220000000 1.0
C      1  0.5807290000000  0.5661320000000  0.5354490000000 1.0
C      1  0.4064640000000  0.5411390000000  0.5248490000000 1.0
C      1  0.4517640000000  0.5204570000000  0.6103440000000 1.0
C      1  0.5311210000000  0.5030860000000  0.3945770000000 1.0
C      1  0.4864710000000  0.5328190000000  0.5246900000000 1.0
C      1  0.5432200000000  0.6027590000000  0.5230660000000 1.0
C      1  0.5594020000000  0.4956700000000  0.4016030000000 1.0
C      1  0.5908690000000  0.4917700000000  0.5616620000000 1.0
C      1  0.5077040000000  0.4484350000000  0.5441260000000 1.0
C      1  0.4999250000000  0.5885620000000  0.4274370000000 1.0
C      1  0.5179430000000  0.5389280000000  0.4700390000000 1.0
C      1  0.5426030000000  0.4762000000000  0.4573700000000 1.0
C      1  0.4678350000000  0.4583690000000  0.4599190000000 1.0
C      1  0.4575520000000  0.5002790000000  0.4398070000000 1.0
C      1  0.5077520000000  0.5108860000000  0.4755220000000 1.0
C      1  0.4583170000000  0.5305440000000  0.4730340000000 1.0
C      1  0.4132630000000  0.4683450000000  0.5880260000000 1.0
C      1  0.4801440000000  0.4992540000000  0.4213430000000 1.0
C      1  0.4792760000000  0.4954880000000  0.3912650000000 1.0
C      1  0.5743220000000  0.5263160000000  0.4902920000000 1.0
C      1  0.5552440000000  0.5455850000000  0.5775900000000 1.0
C      1  0.4656510000000  0.4779830000000  0.5551250000000 1.0
C      1  0.6087200000000  0.4820400000000  0.5035450000000 1.0
C      1  0.4419440000000  0.4793130000000  0.5295980000000 1.0
C      1  0.5738200000000  0.5858110000000  0.4623290000000 1.0
C      1  0.5000630000000  0.4247020000000  0.4205140000000 1.0
C      1  0.4753450000000  0.3988380000000  0.4891550000000 1.0
C      1  0.5299480000000  0.4455560000000  0.4932920000000 1.0
C      1  0.5200500000000  0.5107980000000  0.5759990000000 1.0
C      1  0.4654800000000  0.4397520000000  0.4371670000000 1.0
C      1  0.4394920000000  0.4266320000000  0.5124670000000 1.0
C      1  0.5686940000000  0.5195450000000  0.4617470000000 1.0
C      1  0.4901540000000  0.5448810000000  0.3991360000000 1.0
C      1  0.4688390000000  0.6217120000000  0.5098570000000 1.0
C      1  0.5832100000000  0.5553620000000  0.4353210000000 1.0
C      1  0.5646290000000  0.4794420000000  0.5988190000000 1.0
C      1  0.5984470000000  0.5093590000000  0.4975350000000 1.0
C      1  0.4260920000000  0.4552950000000  0.4237250000000 1.0
C      1  0.4573260000000  0.4699430000000  0.5797700000000 1.0
C      1  0.5207880000000  0.5573090000000  0.4948420000000 1.0
C      1  0.5996500000000  0.4546260000000  0.5091800000000 1.0
C      1  0.4303370000000  0.5735470000000  0.5352080000000 1.0
C      1  0.5876830000000  0.5112480000000  0.4410580000000 1.0
C      1  0.5435860000000  0.3960290000000  0.5263110000000 1.0
C      1  0.5154440000000  0.4374850000000  0.4689760000000 1.0
C      1  0.4839470000000  0.5030890000000  0.4887220000000 1.0
C      1  0.4853710000000  0.4593290000000  0.5046190000000 1.0
C      1  0.5402360000000  0.5224010000000  0.5931610000000 1.0
C      1  0.4634280000000  0.4595980000000  0.6022200000000 1.0
C      1  0.4468420000000  0.5034270000000  0.5144750000000 1.0
C      1  0.4495820000000  0.5763500000000  0.4807980000000 1.0
C      1  0.5886540000000  0.5702410000000  0.5071930000000 1.0
C      1  0.5115980000000  0.4379660000000  0.5965970000000 1.0
C      1  0.4164910000000  0.4590040000000  0.5021950000000 1.0
C      1  0.4892440000000  0.4512780000000  0.4775670000000 1.0
C      1  0.4188670000000  0.5316430000000  0.5707340000000 1.0
C      1  0.5636560000000  0.4542790000000  0.5842860000000 1.0
C      1  0.5283740000000  0.5139630000000  0.5097220000000 1.0
C      1  0.5187880000000  0.3870970000000  0.5122690000000 1.0
C      1  0.4497280000000  0.5947900000000  0.5334150000000 1.0
C      1  0.4650280000000  0.5910260000000  0.5108490000000 1.0
C      1  0.5360190000000  0.5693780000000  0.5770270000000 1.0
C      1  0.5153000000000  0.6100590000000  0.5246140000000 1.0
C      1  0.5290770000000  0.5748560000000  0.4319940000000 1.0
C      1  0.5898130000000  0.5185380000000  0.5527360000000 1.0
C      1  0.4685140000000  0.5535540000000  0.4869230000000 1.0
C      1  0.5612740000000  0.4289420000000  0.4971990000000 1.0
C      1  0.4399100000000  0.5463900000000  0.4275280000000 1.0
C      1  0.4102180000000  0.4350640000000  0.5179030000000 1.0
C      1  0.4878370000000  0.5985420000000  0.4526390000000 1.0
C      1  0.4537100000000  0.4532690000000  0.4132420000000 1.0
C      1  0.5326140000000  0.3917900000000  0.4864130000000 1.0
C      1  0.4880090000000  0.4050770000000  0.5420070000000 1.0
C      1  0.5505170000000  0.6008430000000  0.4971750000000 1.0
C      1  0.4299670000000  0.5446540000000  0.5440720000000 1.0
C      1  0.4920670000000  0.5526310000000  0.5048730000000 1.0
C      1  0.5404580000000  0.4713850000000  0.4855780000000 1.0
C      1  0.5329130000000  0.4151060000000  0.5712010000000 1.0
C      1  0.4704230000000  0.5268140000000  0.3900260000000 1.0
C      1  0.4051250000000  0.4376130000000  0.5474400000000 1.0
C      1  0.4079080000000  0.5429110000000  0.4683480000000 1.0
C      1  0.4545980000000  0.5278250000000  0.4460920000000 1.0
C      1  0.5393360000000  0.4362840000000  0.5894690000000 1.0
C      1  0.5436980000000  0.5279160000000  0.4490900000000 1.0
C      1  0.5323590000000  0.5450740000000  0.5596970000000 1.0
C      1  0.5042530000000  0.6051320000000  0.4762620000000 1.0
C      1  0.5102600000000  0.4986010000000  0.4483060000000 1.0
C      1  0.5402020000000  0.5538510000000  0.5331510000000 1.0
C      1  0.5317100000000  0.4626250000000  0.5544670000000 1.0
C      1  0.4122150000000  0.5045380000000  0.5677760000000 1.0
C      1  0.5649770000000  0.4952230000000  0.5739390000000 1.0
C      1  0.4568370000000  0.5244080000000  0.5327300000000 1.0
C      1  0.5790280000000  0.5432780000000  0.5541430000000 1.0
C      1  0.5455490000000  0.5851810000000  0.4553410000000 1.0
C      1  0.5378110000000  0.4914910000000  0.5562930000000 1.0
C      1  0.4692880000000  0.4254300000000  0.5520610000000 1.0
C      1  0.5091320000000  0.4187630000000  0.5563190000000 1.0
C      1  0.5727060000000  0.4734680000000  0.4163170000000 1.0
C      1  0.4289800000000  0.4254710000000  0.5538800000000 1.0
C      1  0.4311080000000  0.4637850000000  0.6100090000000 1.0
C      1  0.4006610000000  0.4643610000000  0.5626270000000 1.0
C      1  0.3872330000000  0.5231960000000  0.5127630000000 1.0
C      1  0.5924450000000  0.5496780000000  0.4872970000000 1.0
C      1  0.4134190000000  0.5334820000000  0.4416420000000 1.0
C      1  0.4732640000000  0.4658320000000  0.3955100000000 1.0
C      1  0.5094600000000  0.4863560000000  0.3870460000000 1.0
C      1  0.5839330000000  0.4607710000000  0.5626660000000 1.0
C      1  0.4088240000000  0.5075180000000  0.4279890000000 1.0
C      1  0.3870190000000  0.5279710000000  0.4839880000000 1.0
C      1  0.4889600000000  0.3999430000000  0.4632850000000 1.0
C      1  0.4940890000000  0.5725540000000  0.5791590000000 1.0
C      1  0.5158770000000  0.4567090000000  0.6170360000000 1.0
C      1  0.4479710000000  0.4094940000000  0.4865410000000 1.0
C      1  0.5500690000000  0.4430750000000  0.5443040000000 1.0
C      1  0.5782400000000  0.5155880000000  0.4132010000000 1.0
C      1  0.4147610000000  0.4848270000000  0.5481240000000 1.0
C      1  0.4482710000000  0.4137940000000  0.5380450000000 1.0
C      1  0.4820030000000  0.5695880000000  0.4141790000000 1.0
C      1  0.5023520000000  0.4596090000000  0.3971740000000 1.0
C      1  0.3993640000000  0.4766370000000  0.4856040000000 1.0
C      1  0.4452570000000  0.4572060000000  0.5088050000000 1.0
C      1  0.4027100000000  0.4404770000000  0.4550280000000 1.0
C      1  0.4759240000000  0.5859690000000  0.5380570000000 1.0
C      1  0.5492320000000  0.4139620000000  0.5490790000000 1.0
C      1  0.4796290000000  0.4529160000000  0.5505620000000 1.0
END
