TITL C-4164245-3996-354 21.7600193058398 125000 -22194.2420689867 0 0 149 (C1) n - 1
REM
REM in /home/nfs/bkarasulu/CARBON/AIRSS/Generating-Clusters/ReaxFF-fromJPCA2015/Units_Real/with-SteepDescent/Only-C1/SD-CG/Try1-3A/FIRE-CG
REM
REM
REM
REM
REM
REM ./C.cell (11c1c37f851c82e70ff6c80c92926a4b)
REM
REM compiler GCC version 9.2.1 20190827 (Red Hat 9.2.1-1)
REM options -cpp -mtune=generic -march=x86-64 -g -O0 -fpre-include=/usr/include/finclude/math-vector-fortran.h
REM seed 2041466093 -145953530 -970198262 -942316839 1469871140 -475646639 -574973909 -650774537 -313516509 -131681515 407442174 688998710 2145096929 -1908008519 -1503414635 724816514 42725304 1965885344 1549232980 1891707802 1747238008 -1543991751 50451985 -1839071024 1547771917 333452921 1874891417 1741486362 -1949260716 -510108832 1584561441 178437236 215165439
REM
CELL 1.54180   50.00000   50.00000   50.00000   90.00000   90.00000   90.00000
LATT -1
SFAC C  
C      1  0.4337220000000  0.4653760000000  0.5728920000000 1.0
C      1  0.4988300000000  0.5182010000000  0.3988030000000 1.0
C      1  0.5017860000000  0.4841680000000  0.5518110000000 1.0
C      1  0.5699920000000  0.4187630000000  0.4826850000000 1.0
C      1  0.4487010000000  0.4698510000000  0.4178990000000 1.0
C      1  0.4546230000000  0.5296100000000  0.4718810000000 1.0
C      1  0.5606940000000  0.5595110000000  0.4509880000000 1.0
C      1  0.4091040000000  0.5559260000000  0.4902350000000 1.0
C      1  0.4788140000000  0.4090300000000  0.4638800000000 1.0
C      1  0.4640380000000  0.4497360000000  0.5099740000000 1.0
C      1  0.5193930000000  0.5264020000000  0.5608730000000 1.0
C      1  0.4037000000000  0.5020370000000  0.4884870000000 1.0
C      1  0.4567360000000  0.5718990000000  0.5478160000000 1.0
C      1  0.4892550000000  0.5148480000000  0.4958570000000 1.0
C      1  0.4829120000000  0.5359570000000  0.4763060000000 1.0
C      1  0.5213650000000  0.4134220000000  0.5478240000000 1.0
C      1  0.4893320000000  0.4285760000000  0.5853650000000 1.0
C      1  0.5611540000000  0.5880530000000  0.5285130000000 1.0
C      1  0.4496910000000  0.5548490000000  0.5686100000000 1.0
C      1  0.4379430000000  0.5331230000000  0.4007710000000 1.0
C      1  0.4436200000000  0.5880130000000  0.4756070000000 1.0
C      1  0.5120110000000  0.4390520000000  0.5349140000000 1.0
C      1  0.4283130000000  0.5019460000000  0.5045460000000 1.0
C      1  0.4640560000000  0.4176480000000  0.5712330000000 1.0
C      1  0.5019710000000  0.4146030000000  0.4288940000000 1.0
C      1  0.4611930000000  0.4577250000000  0.4601290000000 1.0
C      1  0.4349380000000  0.4374450000000  0.5014640000000 1.0
C      1  0.4542790000000  0.5925870000000  0.5022680000000 1.0
C      1  0.5683360000000  0.4329880000000  0.4578350000000 1.0
C      1  0.5079270000000  0.6036060000000  0.5116520000000 1.0
C      1  0.4587970000000  0.4953770000000  0.5342710000000 1.0
C      1  0.3977150000000  0.5291950000000  0.4986070000000 1.0
C      1  0.5838200000000  0.5582740000000  0.4842380000000 1.0
C      1  0.4057330000000  0.4996510000000  0.5781350000000 1.0
C      1  0.3966940000000  0.4608200000000  0.5360260000000 1.0
C      1  0.5459490000000  0.4998290000000  0.4039850000000 1.0
C      1  0.5365130000000  0.4407540000000  0.5132700000000 1.0
C      1  0.4222200000000  0.4733970000000  0.4310150000000 1.0
C      1  0.4742960000000  0.4208380000000  0.4357310000000 1.0
C      1  0.5416280000000  0.5889060000000  0.5478520000000 1.0
C      1  0.4590030000000  0.5201980000000  0.4214100000000 1.0
C      1  0.5595400000000  0.4754380000000  0.4691010000000 1.0
C      1  0.4230960000000  0.5692060000000  0.4676050000000 1.0
C      1  0.5238240000000  0.4199880000000  0.4717520000000 1.0
C      1  0.4697250000000  0.5271320000000  0.5926430000000 1.0
C      1  0.5021900000000  0.5445800000000  0.4064180000000 1.0
C      1  0.5707940000000  0.4763290000000  0.4954020000000 1.0
C      1  0.5876010000000  0.4427650000000  0.5221860000000 1.0
C      1  0.4184380000000  0.5603520000000  0.5177530000000 1.0
C      1  0.4657360000000  0.4070800000000  0.5446530000000 1.0
C      1  0.5486960000000  0.5278800000000  0.4135510000000 1.0
C      1  0.4793270000000  0.4820790000000  0.5942120000000 1.0
C      1  0.4143480000000  0.4824650000000  0.5542150000000 1.0
C      1  0.5462030000000  0.5631910000000  0.5642140000000 1.0
C      1  0.4617070000000  0.4473360000000  0.4329280000000 1.0
C      1  0.4192630000000  0.5444240000000  0.4195200000000 1.0
C      1  0.5912390000000  0.5145500000000  0.5442100000000 1.0
C      1  0.5890910000000  0.5297950000000  0.4774140000000 1.0
C      1  0.5224970000000  0.4634950000000  0.5560210000000 1.0
C      1  0.4493070000000  0.4825860000000  0.5899150000000 1.0
C      1  0.5933660000000  0.4852790000000  0.5482510000000 1.0
C      1  0.4883840000000  0.4698550000000  0.4702990000000 1.0
C      1  0.4734760000000  0.4795990000000  0.5544650000000 1.0
C      1  0.5353030000000  0.5725450000000  0.4552950000000 1.0
C      1  0.4999110000000  0.5395210000000  0.4544440000000 1.0
C      1  0.4250870000000  0.5068280000000  0.5333070000000 1.0
C      1  0.5329000000000  0.6005490000000  0.4949460000000 1.0
C      1  0.5670790000000  0.4903220000000  0.4187540000000 1.0
C      1  0.5304850000000  0.5557450000000  0.5863490000000 1.0
C      1  0.5254370000000  0.5403610000000  0.5178680000000 1.0
C      1  0.5721960000000  0.4722780000000  0.5669740000000 1.0
C      1  0.4396820000000  0.5801110000000  0.5246920000000 1.0
C      1  0.4901760000000  0.5100430000000  0.5968480000000 1.0
C      1  0.4906860000000  0.5864970000000  0.4706410000000 1.0
C      1  0.5375530000000  0.4024720000000  0.5262810000000 1.0
C      1  0.5947990000000  0.4623340000000  0.4858310000000 1.0
C      1  0.5228540000000  0.4580460000000  0.4116110000000 1.0
C      1  0.4610500000000  0.5666560000000  0.4352490000000 1.0
C      1  0.4323970000000  0.5624520000000  0.4400670000000 1.0
C      1  0.5411020000000  0.4299610000000  0.4496570000000 1.0
C      1  0.5543270000000  0.5809970000000  0.4990080000000 1.0
C      1  0.4668800000000  0.4062250000000  0.5144120000000 1.0
C      1  0.4404560000000  0.4049340000000  0.5039610000000 1.0
C      1  0.5249250000000  0.4337210000000  0.4240670000000 1.0
C      1  0.4832880000000  0.4210650000000  0.4902830000000 1.0
C      1  0.5974470000000  0.4693240000000  0.5253430000000 1.0
C      1  0.5659730000000  0.5093010000000  0.5851310000000 1.0
C      1  0.4319990000000  0.5067330000000  0.5902190000000 1.0
C      1  0.5426580000000  0.5693960000000  0.4299060000000 1.0
C      1  0.4787280000000  0.4891120000000  0.4901710000000 1.0
C      1  0.5920450000000  0.4337010000000  0.4941880000000 1.0
C      1  0.4632300000000  0.4784780000000  0.5097340000000 1.0
C      1  0.5528330000000  0.4811320000000  0.5870750000000 1.0
C      1  0.6031190000000  0.5303910000000  0.5212830000000 1.0
C      1  0.5147150000000  0.5879380000000  0.5356260000000 1.0
C      1  0.5022240000000  0.5113780000000  0.5455460000000 1.0
C      1  0.4659620000000  0.5862030000000  0.4558470000000 1.0
C      1  0.5464860000000  0.5491300000000  0.4998570000000 1.0
C      1  0.4681620000000  0.4519650000000  0.5504540000000 1.0
C      1  0.5208450000000  0.4816530000000  0.3995220000000 1.0
C      1  0.4781580000000  0.5156280000000  0.5311440000000 1.0
C      1  0.6122610000000  0.5184130000000  0.4970320000000 1.0
C      1  0.5845580000000  0.5159340000000  0.4478860000000 1.0
C      1  0.5514830000000  0.4620230000000  0.5502250000000 1.0
C      1  0.5743510000000  0.5694240000000  0.5336890000000 1.0
C      1  0.4811570000000  0.5449530000000  0.4289820000000 1.0
C      1  0.4453710000000  0.5252020000000  0.4990280000000 1.0
C      1  0.4831690000000  0.5971360000000  0.4966220000000 1.0
C      1  0.5310240000000  0.5505510000000  0.4109920000000 1.0
C      1  0.5614370000000  0.5252920000000  0.4950730000000 1.0
C      1  0.5167780000000  0.4248510000000  0.5764840000000 1.0
C      1  0.4954000000000  0.4565220000000  0.5938290000000 1.0
C      1  0.5890980000000  0.5570660000000  0.5131030000000 1.0
C      1  0.5666160000000  0.5341330000000  0.4365460000000 1.0
C      1  0.5085310000000  0.4871340000000  0.4548970000000 1.0
C      1  0.4769130000000  0.5602340000000  0.5271490000000 1.0
C      1  0.4099140000000  0.5324630000000  0.5253040000000 1.0
C      1  0.5370860000000  0.4892850000000  0.4557600000000 1.0
C      1  0.4137450000000  0.4482730000000  0.5187520000000 1.0
C      1  0.4435940000000  0.5188030000000  0.4474610000000 1.0
C      1  0.5433880000000  0.4117560000000  0.4979640000000 1.0
C      1  0.5100560000000  0.5643510000000  0.4646320000000 1.0
C      1  0.4665750000000  0.4919510000000  0.4111090000000 1.0
C      1  0.5164950000000  0.5137670000000  0.4981070000000 1.0
C      1  0.5674770000000  0.5217890000000  0.5583570000000 1.0
C      1  0.4831250000000  0.4408110000000  0.5292440000000 1.0
C      1  0.5834200000000  0.4617750000000  0.4577990000000 1.0
C      1  0.5427310000000  0.5356670000000  0.5477580000000 1.0
C      1  0.4450210000000  0.4397190000000  0.5635380000000 1.0
C      1  0.4439970000000  0.5366500000000  0.5890790000000 1.0
C      1  0.4365880000000  0.4513230000000  0.4733360000000 1.0
C      1  0.5283810000000  0.4885290000000  0.5055030000000 1.0
C      1  0.5410020000000  0.5053930000000  0.5985330000000 1.0
C      1  0.4144610000000  0.4613550000000  0.4572700000000 1.0
C      1  0.5187640000000  0.5236640000000  0.5893560000000 1.0
C      1  0.5591940000000  0.4460630000000  0.5297640000000 1.0
C      1  0.5855190000000  0.4885110000000  0.4387790000000 1.0
C      1  0.4641830000000  0.5355850000000  0.5189600000000 1.0
C      1  0.4041070000000  0.4963430000000  0.4368080000000 1.0
C      1  0.5197310000000  0.5124470000000  0.4649100000000 1.0
C      1  0.5225240000000  0.4609470000000  0.4995810000000 1.0
C      1  0.5057180000000  0.5612730000000  0.5280450000000 1.0
C      1  0.4154320000000  0.5232570000000  0.4407190000000 1.0
C      1  0.3989390000000  0.4861170000000  0.4641840000000 1.0
C      1  0.5228930000000  0.4531410000000  0.5836350000000 1.0
C      1  0.4915420000000  0.4924760000000  0.3952620000000 1.0
C      1  0.5060620000000  0.4021120000000  0.4552950000000 1.0
C      1  0.5550790000000  0.4990120000000  0.5053330000000 1.0
C      1  0.5033100000000  0.4438010000000  0.4854540000000 1.0
END
