TITL C-4164239-2837-665 3.24630638023107 125000 -6686.06774034701 0 0 46 (C1) n - 1
REM
REM in /home/nfs/bkarasulu/CARBON/AIRSS/Generating-Clusters/ReaxFF-fromJPCA2015/Units_Real/with-SteepDescent/Only-C1/SD-CG/Try1-3A/FIRE-CG
REM
REM
REM
REM
REM
REM ./C.cell (11c1c37f851c82e70ff6c80c92926a4b)
REM
REM compiler GCC version 9.2.1 20190827 (Red Hat 9.2.1-1)
REM options -cpp -mtune=generic -march=x86-64 -g -O0 -fpre-include=/usr/include/finclude/math-vector-fortran.h
REM seed 1218003326 -170277741 480207879 65841927 1803145415 142751562 -865802397 1070809691 782608970 1213652626 -72989642 -120959152 -375082504 -707192308 128547775 -226219466 -1849064404 -1586238576 54614412 -1706306479 -894537449 1051580722 -59479790 -707845597 -872932634 1644336460 -204974881 208492760 -2105533726 2127406339 764258423 987810860 873221225
REM
CELL 1.54180   50.00000   50.00000   50.00000   90.00000   90.00000   90.00000
LATT -1
SFAC C  
C      1  0.5035890000000  0.5059520000000  0.4951660000000 1.0
C      1  0.5010940000000  0.4478890000000  0.5104560000000 1.0
C      1  0.5439560000000  0.5382940000000  0.4674330000000 1.0
C      1  0.5306430000000  0.4840160000000  0.5612490000000 1.0
C      1  0.4535680000000  0.4936030000000  0.5639440000000 1.0
C      1  0.5381940000000  0.4529580000000  0.4703580000000 1.0
C      1  0.5601510000000  0.5231230000000  0.4868600000000 1.0
C      1  0.4858150000000  0.5410700000000  0.4671920000000 1.0
C      1  0.4627850000000  0.5292800000000  0.5054940000000 1.0
C      1  0.4797630000000  0.4663280000000  0.5031760000000 1.0
C      1  0.5122170000000  0.5308700000000  0.5492600000000 1.0
C      1  0.4582220000000  0.5080250000000  0.4856400000000 1.0
C      1  0.5408780000000  0.4558900000000  0.5194320000000 1.0
C      1  0.4823900000000  0.4898290000000  0.4859820000000 1.0
C      1  0.5579270000000  0.4938840000000  0.4901550000000 1.0
C      1  0.5206390000000  0.5191600000000  0.5031170000000 1.0
C      1  0.5261880000000  0.5240840000000  0.4493930000000 1.0
C      1  0.5291390000000  0.4951420000000  0.4475390000000 1.0
C      1  0.4963750000000  0.4528980000000  0.4352750000000 1.0
C      1  0.5450820000000  0.5372270000000  0.5093150000000 1.0
C      1  0.4580250000000  0.4954210000000  0.4426680000000 1.0
C      1  0.5465790000000  0.4810940000000  0.4667610000000 1.0
C      1  0.5391510000000  0.5265430000000  0.5397860000000 1.0
C      1  0.4326100000000  0.4864070000000  0.5489250000000 1.0
C      1  0.5045030000000  0.4836930000000  0.4365680000000 1.0
C      1  0.4800940000000  0.4981270000000  0.5718460000000 1.0
C      1  0.4871130000000  0.5805470000000  0.4991420000000 1.0
C      1  0.5090540000000  0.4805290000000  0.5434970000000 1.0
C      1  0.4837380000000  0.5036520000000  0.4343560000000 1.0
C      1  0.5127420000000  0.5708470000000  0.4931860000000 1.0
C      1  0.4256340000000  0.4844550000000  0.5092730000000 1.0
C      1  0.5021030000000  0.4778160000000  0.5677060000000 1.0
C      1  0.4643450000000  0.4819370000000  0.5232090000000 1.0
C      1  0.4748300000000  0.5517830000000  0.4889950000000 1.0
C      1  0.4697460000000  0.5121820000000  0.5277050000000 1.0
C      1  0.5150030000000  0.4476410000000  0.4563000000000 1.0
C      1  0.4366910000000  0.4735720000000  0.5270680000000 1.0
C      1  0.4307020000000  0.4955820000000  0.4836360000000 1.0
C      1  0.4969950000000  0.5291220000000  0.4451670000000 1.0
C      1  0.4842630000000  0.5205040000000  0.5522600000000 1.0
C      1  0.5154270000000  0.4553650000000  0.5361970000000 1.0
C      1  0.5374740000000  0.5589300000000  0.4879110000000 1.0
C      1  0.4372640000000  0.4901080000000  0.4564590000000 1.0
C      1  0.5471840000000  0.4980600000000  0.5414190000000 1.0
C      1  0.5531300000000  0.4824830000000  0.5172820000000 1.0
C      1  0.5269860000000  0.4440750000000  0.4962420000000 1.0
END
