TITL C-4164234-2335-66 26.7731851061229 125000 -27635.1197537913 0 0 183 (C1) n - 1
REM
REM in /home/nfs/bkarasulu/CARBON/AIRSS/Generating-Clusters/ReaxFF-fromJPCA2015/Units_Real/with-SteepDescent/Only-C1/SD-CG/Try1-3A/FIRE-CG
REM
REM
REM
REM
REM
REM ./C.cell (11c1c37f851c82e70ff6c80c92926a4b)
REM
REM compiler GCC version 9.2.1 20190827 (Red Hat 9.2.1-1)
REM options -cpp -mtune=generic -march=x86-64 -g -O0 -fpre-include=/usr/include/finclude/math-vector-fortran.h
REM seed 457141036 1045890842 -493327069 -1690519169 1176201795 772218364 1361558738 -904421372 159569894 -2110546414 418405268 1135850848 -2046645439 900795344 -1532522878 1051810887 -2145288736 1400566182 1099709800 1423349966 -394605704 -1587607583 2119374272 -699738568 1282362148 184586133 -1627592467 -97547643 -1738877155 222086658 904432033 -950052973 1083177019
REM
CELL 1.54180   50.00000   50.00000   50.00000   90.00000   90.00000   90.00000
LATT -1
SFAC C  
C      1  0.5549790000000  0.4128990000000  0.5290010000000 1.0
C      1  0.5502370000000  0.4975860000000  0.5931870000000 1.0
C      1  0.5444700000000  0.4595010000000  0.4575210000000 1.0
C      1  0.5543590000000  0.5746770000000  0.4456280000000 1.0
C      1  0.5631080000000  0.5026640000000  0.4716970000000 1.0
C      1  0.5644350000000  0.4206910000000  0.4497820000000 1.0
C      1  0.6213760000000  0.4845480000000  0.5011190000000 1.0
C      1  0.5002240000000  0.5416230000000  0.5392310000000 1.0
C      1  0.5403510000000  0.5882180000000  0.4903520000000 1.0
C      1  0.4443960000000  0.4269270000000  0.4644390000000 1.0
C      1  0.4859520000000  0.4466540000000  0.5095960000000 1.0
C      1  0.4325040000000  0.4778280000000  0.5029050000000 1.0
C      1  0.4537630000000  0.4459450000000  0.4406930000000 1.0
C      1  0.4523290000000  0.6006010000000  0.4492320000000 1.0
C      1  0.4692140000000  0.5349040000000  0.5747810000000 1.0
C      1  0.4095150000000  0.5534910000000  0.5165990000000 1.0
C      1  0.4918180000000  0.5126570000000  0.5749970000000 1.0
C      1  0.5448150000000  0.4687490000000  0.4856540000000 1.0
C      1  0.5703420000000  0.5600160000000  0.5526250000000 1.0
C      1  0.5723230000000  0.4301880000000  0.5469420000000 1.0
C      1  0.5062260000000  0.4743580000000  0.3909750000000 1.0
C      1  0.5639430000000  0.5957040000000  0.5063260000000 1.0
C      1  0.5666980000000  0.5185230000000  0.5831720000000 1.0
C      1  0.4666760000000  0.5166120000000  0.4638100000000 1.0
C      1  0.3790060000000  0.4581290000000  0.4875190000000 1.0
C      1  0.4846500000000  0.4424960000000  0.4055240000000 1.0
C      1  0.5078340000000  0.5947090000000  0.4550740000000 1.0
C      1  0.4024970000000  0.5471000000000  0.5443460000000 1.0
C      1  0.4904950000000  0.5161200000000  0.4225190000000 1.0
C      1  0.5582410000000  0.5028090000000  0.5207390000000 1.0
C      1  0.4651250000000  0.6136070000000  0.4711610000000 1.0
C      1  0.4945960000000  0.4447930000000  0.4818450000000 1.0
C      1  0.5019550000000  0.5168370000000  0.6013390000000 1.0
C      1  0.4437210000000  0.4835490000000  0.4106390000000 1.0
C      1  0.5239230000000  0.4976010000000  0.6061810000000 1.0
C      1  0.5062190000000  0.3939830000000  0.5135470000000 1.0
C      1  0.5863940000000  0.5549850000000  0.5281850000000 1.0
C      1  0.5171860000000  0.4247010000000  0.4778930000000 1.0
C      1  0.5550430000000  0.5851090000000  0.5540580000000 1.0
C      1  0.6174530000000  0.4783260000000  0.4725380000000 1.0
C      1  0.4946380000000  0.5059770000000  0.4943550000000 1.0
C      1  0.4938720000000  0.4127210000000  0.5737940000000 1.0
C      1  0.4796310000000  0.4795560000000  0.5784780000000 1.0
C      1  0.4311160000000  0.4652650000000  0.4282900000000 1.0
C      1  0.5472380000000  0.4252790000000  0.4254330000000 1.0
C      1  0.4940830000000  0.6039180000000  0.5078130000000 1.0
C      1  0.4719830000000  0.4262530000000  0.4252610000000 1.0
C      1  0.4842040000000  0.5381120000000  0.4050680000000 1.0
C      1  0.5359540000000  0.5918040000000  0.4614010000000 1.0
C      1  0.4385070000000  0.5117090000000  0.4123610000000 1.0
C      1  0.4785430000000  0.5562380000000  0.4844110000000 1.0
C      1  0.5824070000000  0.5218510000000  0.4183250000000 1.0
C      1  0.5684440000000  0.3948710000000  0.5084010000000 1.0
C      1  0.4793900000000  0.5571130000000  0.4560700000000 1.0
C      1  0.5353170000000  0.5152680000000  0.5094450000000 1.0
C      1  0.4809730000000  0.5952810000000  0.5546990000000 1.0
C      1  0.4688240000000  0.4722820000000  0.4445270000000 1.0
C      1  0.4129550000000  0.4733930000000  0.4499110000000 1.0
C      1  0.4206700000000  0.5206600000000  0.4340760000000 1.0
C      1  0.4225180000000  0.5654160000000  0.4633110000000 1.0
C      1  0.4637220000000  0.4555940000000  0.5294030000000 1.0
C      1  0.4904610000000  0.5299070000000  0.4493500000000 1.0
C      1  0.5830450000000  0.5458790000000  0.4335520000000 1.0
C      1  0.4095160000000  0.5206270000000  0.5565470000000 1.0
C      1  0.4791680000000  0.3949580000000  0.5245170000000 1.0
C      1  0.5248260000000  0.4686650000000  0.5052630000000 1.0
C      1  0.3974760000000  0.4939470000000  0.5562140000000 1.0
C      1  0.4201120000000  0.4166850000000  0.5335990000000 1.0
C      1  0.4478070000000  0.5206480000000  0.5936150000000 1.0
C      1  0.5680660000000  0.4838030000000  0.4974990000000 1.0
C      1  0.5523070000000  0.4918130000000  0.4023390000000 1.0
C      1  0.5199690000000  0.4603700000000  0.4416590000000 1.0
C      1  0.5825450000000  0.5673360000000  0.4518290000000 1.0
C      1  0.6052710000000  0.4965740000000  0.4523430000000 1.0
C      1  0.4722600000000  0.5996210000000  0.5260170000000 1.0
C      1  0.5505470000000  0.4518330000000  0.4139170000000 1.0
C      1  0.6082080000000  0.4453290000000  0.5348320000000 1.0
C      1  0.5178200000000  0.4433250000000  0.5474790000000 1.0
C      1  0.5103880000000  0.4940970000000  0.4726330000000 1.0
C      1  0.4342600000000  0.4579250000000  0.5223070000000 1.0
C      1  0.4423350000000  0.5714160000000  0.5694000000000 1.0
C      1  0.5405980000000  0.4319830000000  0.5810870000000 1.0
C      1  0.5249840000000  0.5336000000000  0.4570330000000 1.0
C      1  0.6142500000000  0.4579090000000  0.5097830000000 1.0
C      1  0.4716460000000  0.5393320000000  0.5448720000000 1.0
C      1  0.5171500000000  0.5949920000000  0.5282020000000 1.0
C      1  0.5342790000000  0.4694410000000  0.3940190000000 1.0
C      1  0.5005930000000  0.5630020000000  0.4108900000000 1.0
C      1  0.5310840000000  0.5833300000000  0.5714780000000 1.0
C      1  0.4299930000000  0.4273130000000  0.5582530000000 1.0
C      1  0.4641490000000  0.4887630000000  0.4662700000000 1.0
C      1  0.4643070000000  0.4984420000000  0.6005910000000 1.0
C      1  0.4779800000000  0.4713530000000  0.3968440000000 1.0
C      1  0.4352490000000  0.5663020000000  0.5122060000000 1.0
C      1  0.5390910000000  0.5508060000000  0.4375030000000 1.0
C      1  0.4212630000000  0.5603100000000  0.5599300000000 1.0
C      1  0.5044060000000  0.4671740000000  0.4649380000000 1.0
C      1  0.4925920000000  0.4093170000000  0.4373210000000 1.0
C      1  0.4653590000000  0.5786440000000  0.4357980000000 1.0
C      1  0.5483990000000  0.6001460000000  0.5300420000000 1.0
C      1  0.4291750000000  0.5947090000000  0.4641400000000 1.0
C      1  0.5882570000000  0.5165020000000  0.4665590000000 1.0
C      1  0.5617340000000  0.5186310000000  0.3959950000000 1.0
C      1  0.4949640000000  0.5847000000000  0.4298040000000 1.0
C      1  0.5816450000000  0.4517120000000  0.5323900000000 1.0
C      1  0.5923710000000  0.5635720000000  0.4803760000000 1.0
C      1  0.4961320000000  0.5349760000000  0.4943750000000 1.0
C      1  0.5111530000000  0.4427850000000  0.4200580000000 1.0
C      1  0.5288340000000  0.5550820000000  0.4096790000000 1.0
C      1  0.3740500000000  0.4761430000000  0.5098570000000 1.0
C      1  0.3962140000000  0.5402260000000  0.4921590000000 1.0
C      1  0.4555250000000  0.5176200000000  0.5366410000000 1.0
C      1  0.4715020000000  0.4673420000000  0.5534440000000 1.0
C      1  0.3892610000000  0.4392470000000  0.5059270000000 1.0
C      1  0.4922460000000  0.6051840000000  0.4787550000000 1.0
C      1  0.5873240000000  0.4944620000000  0.4293420000000 1.0
C      1  0.5426590000000  0.5397760000000  0.3877270000000 1.0
C      1  0.4030240000000  0.5125210000000  0.4811760000000 1.0
C      1  0.4323200000000  0.4500800000000  0.5732520000000 1.0
C      1  0.5143820000000  0.4698550000000  0.6101550000000 1.0
C      1  0.5198980000000  0.4931220000000  0.5464800000000 1.0
C      1  0.6127180000000  0.5057190000000  0.5211500000000 1.0
C      1  0.5433590000000  0.4315410000000  0.4670820000000 1.0
C      1  0.5629250000000  0.4453690000000  0.5697100000000 1.0
C      1  0.5357150000000  0.5067810000000  0.4622530000000 1.0
C      1  0.5075490000000  0.5460600000000  0.5968420000000 1.0
C      1  0.4242570000000  0.4832540000000  0.5683460000000 1.0
C      1  0.5570530000000  0.5446200000000  0.5739230000000 1.0
C      1  0.5215430000000  0.4174310000000  0.5628690000000 1.0
C      1  0.5152920000000  0.5633740000000  0.5261590000000 1.0
C      1  0.4079570000000  0.4432940000000  0.5273340000000 1.0
C      1  0.4415020000000  0.6069320000000  0.4882230000000 1.0
C      1  0.4251260000000  0.5494220000000  0.4370410000000 1.0
C      1  0.5191480000000  0.4153030000000  0.4247700000000 1.0
C      1  0.6001680000000  0.5323400000000  0.5149570000000 1.0
C      1  0.5093490000000  0.5188460000000  0.5548510000000 1.0
C      1  0.4469980000000  0.5551680000000  0.4870640000000 1.0
C      1  0.5130930000000  0.4460430000000  0.5190360000000 1.0
C      1  0.3892690000000  0.4923140000000  0.5276760000000 1.0
C      1  0.4816430000000  0.4875920000000  0.4231210000000 1.0
C      1  0.5998080000000  0.5024350000000  0.5455250000000 1.0
C      1  0.5288940000000  0.5635230000000  0.5028400000000 1.0
C      1  0.6037510000000  0.4558360000000  0.4620810000000 1.0
C      1  0.4600090000000  0.4856520000000  0.4953240000000 1.0
C      1  0.5268860000000  0.5371960000000  0.4913880000000 1.0
C      1  0.4871210000000  0.3972970000000  0.4637580000000 1.0
C      1  0.5474150000000  0.3741340000000  0.5148110000000 1.0
C      1  0.5082690000000  0.3973900000000  0.4842720000000 1.0
C      1  0.3925570000000  0.5607670000000  0.4720840000000 1.0
C      1  0.4455140000000  0.5939360000000  0.5140300000000 1.0
C      1  0.4094360000000  0.4963980000000  0.5044660000000 1.0
C      1  0.4050280000000  0.4540070000000  0.4707850000000 1.0
C      1  0.5157460000000  0.4948980000000  0.5135750000000 1.0
C      1  0.5320320000000  0.5571990000000  0.5841740000000 1.0
C      1  0.4510690000000  0.5259030000000  0.4853610000000 1.0
C      1  0.4226060000000  0.4319220000000  0.4805500000000 1.0
C      1  0.4098770000000  0.5026180000000  0.4545050000000 1.0
C      1  0.5505430000000  0.4915270000000  0.5455930000000 1.0
C      1  0.4357860000000  0.4946140000000  0.5947550000000 1.0
C      1  0.5870180000000  0.4369680000000  0.4551570000000 1.0
C      1  0.4608590000000  0.4051240000000  0.4756630000000 1.0
C      1  0.4680350000000  0.5806000000000  0.5770310000000 1.0
C      1  0.4548040000000  0.5362800000000  0.4048270000000 1.0
C      1  0.5631340000000  0.4786450000000  0.5699070000000 1.0
C      1  0.5175920000000  0.4667260000000  0.5610630000000 1.0
C      1  0.4558790000000  0.4004690000000  0.5041280000000 1.0
C      1  0.5845890000000  0.5744100000000  0.5062470000000 1.0
C      1  0.5310790000000  0.3954490000000  0.5312230000000 1.0
C      1  0.4837570000000  0.4037610000000  0.5502650000000 1.0
C      1  0.4889650000000  0.4594160000000  0.6006650000000 1.0
C      1  0.5995560000000  0.5365490000000  0.4859240000000 1.0
C      1  0.4824040000000  0.5581490000000  0.5896380000000 1.0
C      1  0.4800400000000  0.4323390000000  0.5939730000000 1.0
C      1  0.4536830000000  0.4402020000000  0.5885700000000 1.0
C      1  0.4313840000000  0.4136170000000  0.5059620000000 1.0
C      1  0.5091610000000  0.5971620000000  0.5573650000000 1.0
C      1  0.4457890000000  0.5584730000000  0.4201570000000 1.0
C      1  0.4564110000000  0.5108400000000  0.5083590000000 1.0
C      1  0.5281580000000  0.4582350000000  0.5868830000000 1.0
C      1  0.5850130000000  0.4604560000000  0.5055890000000 1.0
C      1  0.4358150000000  0.5082350000000  0.5555380000000 1.0
C      1  0.5634310000000  0.4761310000000  0.4252800000000 1.0
C      1  0.5866240000000  0.4989680000000  0.5698390000000 1.0
END
