TITL C-4164234-2335-195 -11.579683165163 125000 -19487.3474979996 0 0 129 (C1) n - 1
REM
REM in /home/nfs/bkarasulu/CARBON/AIRSS/Generating-Clusters/ReaxFF-fromJPCA2015/Units_Real/with-SteepDescent/Only-C1/SD-CG/Try1-3A/FIRE-CG
REM
REM
REM
REM
REM
REM ./C.cell (11c1c37f851c82e70ff6c80c92926a4b)
REM
REM compiler GCC version 9.2.1 20190827 (Red Hat 9.2.1-1)
REM options -cpp -mtune=generic -march=x86-64 -g -O0 -fpre-include=/usr/include/finclude/math-vector-fortran.h
REM seed -899881997 -840406042 -2106604788 2033781603 -2095519311 -1739091642 -91820090 -1040118064 1270116989 959258917 -2118374708 38524971 -1653640032 1601961903 701411768 -2035625191 1815972496 -1396587540 1242069643 -1052651409 1611225562 -1513491379 -1305498244 -1150778148 874802818 -2051096450 -545432129 -794173108 885978908 183096453 1304028084 1648146021 -383699938
REM
CELL 1.54180   50.00000   50.00000   50.00000   90.00000   90.00000   90.00000
LATT -1
SFAC C  
C      1  0.4267170000000  0.5713950000000  0.5129450000000 1.0
C      1  0.5710360000000  0.4656330000000  0.5599880000000 1.0
C      1  0.4764490000000  0.5290800000000  0.5773990000000 1.0
C      1  0.4857360000000  0.5433450000000  0.4106710000000 1.0
C      1  0.5880010000000  0.4581500000000  0.4724800000000 1.0
C      1  0.5294200000000  0.3978720000000  0.5143820000000 1.0
C      1  0.4823540000000  0.4910740000000  0.4477760000000 1.0
C      1  0.4791640000000  0.4672520000000  0.4089790000000 1.0
C      1  0.5942210000000  0.5314080000000  0.5056500000000 1.0
C      1  0.5234790000000  0.4493930000000  0.5800130000000 1.0
C      1  0.5578990000000  0.5659120000000  0.5228480000000 1.0
C      1  0.4535880000000  0.4798990000000  0.5780530000000 1.0
C      1  0.5460740000000  0.5553650000000  0.5487260000000 1.0
C      1  0.5667290000000  0.5123690000000  0.5417470000000 1.0
C      1  0.5451930000000  0.4948120000000  0.4232920000000 1.0
C      1  0.4372430000000  0.5731780000000  0.5399250000000 1.0
C      1  0.5799890000000  0.5566610000000  0.5050530000000 1.0
C      1  0.4245680000000  0.5158680000000  0.4883360000000 1.0
C      1  0.5355750000000  0.5215730000000  0.4166670000000 1.0
C      1  0.4718610000000  0.4383120000000  0.5501530000000 1.0
C      1  0.5897220000000  0.4804400000000  0.4912890000000 1.0
C      1  0.4779940000000  0.5418280000000  0.4583420000000 1.0
C      1  0.5297750000000  0.5870040000000  0.4340590000000 1.0
C      1  0.4684380000000  0.5855890000000  0.5399860000000 1.0
C      1  0.4074280000000  0.5030600000000  0.5358760000000 1.0
C      1  0.4536730000000  0.5099970000000  0.5318550000000 1.0
C      1  0.5773620000000  0.5197040000000  0.5665460000000 1.0
C      1  0.5511220000000  0.4438350000000  0.4458480000000 1.0
C      1  0.4716500000000  0.5945430000000  0.4865670000000 1.0
C      1  0.5521220000000  0.4903530000000  0.4986750000000 1.0
C      1  0.5058440000000  0.5172870000000  0.4108650000000 1.0
C      1  0.5018320000000  0.5091870000000  0.4385440000000 1.0
C      1  0.5395840000000  0.5606360000000  0.4282820000000 1.0
C      1  0.5011260000000  0.4237060000000  0.4722940000000 1.0
C      1  0.4555030000000  0.4437160000000  0.4833470000000 1.0
C      1  0.4317150000000  0.4886620000000  0.4474960000000 1.0
C      1  0.5716040000000  0.4650190000000  0.4490900000000 1.0
C      1  0.4727790000000  0.5377910000000  0.4998110000000 1.0
C      1  0.4666230000000  0.4846130000000  0.5234630000000 1.0
C      1  0.5050440000000  0.5044300000000  0.4837130000000 1.0
C      1  0.4948410000000  0.5782830000000  0.5473570000000 1.0
C      1  0.4542280000000  0.5092860000000  0.5852350000000 1.0
C      1  0.4774480000000  0.4432880000000  0.4290730000000 1.0
C      1  0.4706820000000  0.5311010000000  0.5270930000000 1.0
C      1  0.4269540000000  0.5150890000000  0.5188320000000 1.0
C      1  0.4325590000000  0.5307110000000  0.4185280000000 1.0
C      1  0.5595490000000  0.5426340000000  0.5726520000000 1.0
C      1  0.4925550000000  0.4689250000000  0.4614520000000 1.0
C      1  0.4427280000000  0.4406460000000  0.5473130000000 1.0
C      1  0.4377680000000  0.5013150000000  0.4166170000000 1.0
C      1  0.4276300000000  0.5687920000000  0.4832530000000 1.0
C      1  0.5016710000000  0.4850160000000  0.4055010000000 1.0
C      1  0.5171350000000  0.4991510000000  0.5808900000000 1.0
C      1  0.4347410000000  0.4664400000000  0.5591710000000 1.0
C      1  0.5065490000000  0.4727740000000  0.5867120000000 1.0
C      1  0.5773860000000  0.5167290000000  0.4576480000000 1.0
C      1  0.5135260000000  0.5124330000000  0.5530150000000 1.0
C      1  0.5014960000000  0.5815990000000  0.4463150000000 1.0
C      1  0.4127990000000  0.4655950000000  0.4853860000000 1.0
C      1  0.4829330000000  0.5685950000000  0.4268840000000 1.0
C      1  0.4580590000000  0.5150980000000  0.4843450000000 1.0
C      1  0.5161210000000  0.5601490000000  0.5870070000000 1.0
C      1  0.5758740000000  0.4359530000000  0.4872420000000 1.0
C      1  0.4285120000000  0.4588120000000  0.4398270000000 1.0
C      1  0.5730610000000  0.4454250000000  0.5150440000000 1.0
C      1  0.4163050000000  0.4752280000000  0.5381120000000 1.0
C      1  0.4783920000000  0.4374940000000  0.5786540000000 1.0
C      1  0.5393790000000  0.5428410000000  0.5933440000000 1.0
C      1  0.4102070000000  0.5259300000000  0.5567250000000 1.0
C      1  0.4859880000000  0.5281510000000  0.5504420000000 1.0
C      1  0.4723690000000  0.4659070000000  0.4806710000000 1.0
C      1  0.4415060000000  0.4291540000000  0.4643880000000 1.0
C      1  0.4244770000000  0.5509540000000  0.5501990000000 1.0
C      1  0.5251350000000  0.4732930000000  0.4175480000000 1.0
C      1  0.5876490000000  0.4615610000000  0.5344870000000 1.0
C      1  0.5255370000000  0.4371850000000  0.4840640000000 1.0
C      1  0.4507840000000  0.5803050000000  0.4703980000000 1.0
C      1  0.4195670000000  0.4582560000000  0.5136170000000 1.0
C      1  0.5051970000000  0.4267890000000  0.5737300000000 1.0
C      1  0.5422370000000  0.5390240000000  0.4370040000000 1.0
C      1  0.5191320000000  0.4642910000000  0.4708820000000 1.0
C      1  0.5170600000000  0.5472990000000  0.5041200000000 1.0
C      1  0.4306290000000  0.5168080000000  0.5737590000000 1.0
C      1  0.4774650000000  0.4654920000000  0.5869870000000 1.0
C      1  0.5670720000000  0.4927020000000  0.4421220000000 1.0
C      1  0.4815610000000  0.4625410000000  0.5350960000000 1.0
C      1  0.4501320000000  0.4390820000000  0.4381490000000 1.0
C      1  0.4241580000000  0.5383250000000  0.4450750000000 1.0
C      1  0.4971020000000  0.5388810000000  0.5955380000000 1.0
C      1  0.4939160000000  0.5572550000000  0.4936900000000 1.0
C      1  0.4605300000000  0.4875830000000  0.4094680000000 1.0
C      1  0.5085340000000  0.4682290000000  0.5271230000000 1.0
C      1  0.5250920000000  0.4476300000000  0.4327610000000 1.0
C      1  0.5913280000000  0.5124040000000  0.5279160000000 1.0
C      1  0.4374090000000  0.4362950000000  0.5191480000000 1.0
C      1  0.5201910000000  0.5204910000000  0.6001840000000 1.0
C      1  0.5745880000000  0.4904960000000  0.5743850000000 1.0
C      1  0.5371030000000  0.4300080000000  0.5406300000000 1.0
C      1  0.5985090000000  0.5214390000000  0.4780330000000 1.0
C      1  0.4569670000000  0.4209060000000  0.5009240000000 1.0
C      1  0.4161590000000  0.4913710000000  0.4736990000000 1.0
C      1  0.5177320000000  0.5695170000000  0.5592420000000 1.0
C      1  0.4574870000000  0.5015700000000  0.4582920000000 1.0
C      1  0.5974020000000  0.4844490000000  0.5190890000000 1.0
C      1  0.5037030000000  0.4050420000000  0.5191220000000 1.0
C      1  0.5006010000000  0.4336200000000  0.4431020000000 1.0
C      1  0.5115910000000  0.4964520000000  0.5290860000000 1.0
C      1  0.5148430000000  0.5174110000000  0.5071220000000 1.0
C      1  0.5436980000000  0.5171490000000  0.5098460000000 1.0
C      1  0.5425240000000  0.5247580000000  0.5375410000000 1.0
C      1  0.5294070000000  0.4880330000000  0.4801120000000 1.0
C      1  0.4174780000000  0.4461250000000  0.4631730000000 1.0
C      1  0.4859280000000  0.4153650000000  0.4956650000000 1.0
C      1  0.5514620000000  0.4651840000000  0.5145910000000 1.0
C      1  0.4595340000000  0.5366360000000  0.4113000000000 1.0
C      1  0.5614700000000  0.5409240000000  0.4575580000000 1.0
C      1  0.5001230000000  0.5247790000000  0.4621540000000 1.0
C      1  0.6049040000000  0.4941940000000  0.4792850000000 1.0
C      1  0.5138590000000  0.4147790000000  0.5480420000000 1.0
C      1  0.5283480000000  0.4492400000000  0.5172460000000 1.0
C      1  0.4624170000000  0.5630410000000  0.4487310000000 1.0
C      1  0.5524240000000  0.4302080000000  0.4714580000000 1.0
C      1  0.4741810000000  0.5911700000000  0.5145280000000 1.0
C      1  0.4956190000000  0.5811560000000  0.4756840000000 1.0
C      1  0.5612430000000  0.5584330000000  0.4820200000000 1.0
C      1  0.5394400000000  0.5650290000000  0.5003400000000 1.0
C      1  0.5465460000000  0.4471470000000  0.5625420000000 1.0
C      1  0.4184970000000  0.5428110000000  0.4708590000000 1.0
C      1  0.4751280000000  0.4903930000000  0.4957730000000 1.0
END
