TITL C-4164247-2821-610 -8.98839176136303 125000 -19103.5665088645 0 0 128 (C1) n - 1
REM
REM in /home/nfs/bkarasulu/CARBON/AIRSS/Generating-Clusters/ReaxFF-fromJPCA2015/Units_Real/with-SteepDescent/Only-C1/SD-CG/Try1-3A/FIRE-CG
REM
REM
REM
REM
REM
REM ./C.cell (11c1c37f851c82e70ff6c80c92926a4b)
REM
REM compiler GCC version 9.2.1 20190827 (Red Hat 9.2.1-1)
REM options -cpp -mtune=generic -march=x86-64 -g -O0 -fpre-include=/usr/include/finclude/math-vector-fortran.h
REM seed 1953912472 1957988740 838988490 380865372 1032896116 1439272571 547317821 -718413080 -223267914 429569962 1269417800 -709188194 -19819029 -59736129 1964873685 -2072519233 1565701964 -2119067887 -2137872767 -1456337183 -1323700977 1203371531 -800604762 1097042090 -525833864 -1856794042 -1540515558 116717971 1540009030 1402733892 -1178936426 -1760586865 -720288215
REM
CELL 1.54180   50.00000   50.00000   50.00000   90.00000   90.00000   90.00000
LATT -1
SFAC C  
C      1  0.4520930000000  0.4284130000000  0.5470400000000 1.0
C      1  0.5521510000000  0.5848880000000  0.4956390000000 1.0
C      1  0.5374260000000  0.4707500000000  0.4172070000000 1.0
C      1  0.5690560000000  0.5490450000000  0.5237350000000 1.0
C      1  0.5438020000000  0.4964560000000  0.4692020000000 1.0
C      1  0.4781450000000  0.4309570000000  0.4391150000000 1.0
C      1  0.5178870000000  0.4530680000000  0.5799850000000 1.0
C      1  0.4258580000000  0.4983000000000  0.5526790000000 1.0
C      1  0.5201960000000  0.4941650000000  0.6084710000000 1.0
C      1  0.4955320000000  0.5962090000000  0.5297110000000 1.0
C      1  0.5187470000000  0.5071030000000  0.4590580000000 1.0
C      1  0.5475440000000  0.4511320000000  0.5793950000000 1.0
C      1  0.4780360000000  0.4164040000000  0.5375670000000 1.0
C      1  0.4774480000000  0.5473560000000  0.5547510000000 1.0
C      1  0.5767560000000  0.4579910000000  0.4664530000000 1.0
C      1  0.4935030000000  0.4628180000000  0.4087860000000 1.0
C      1  0.5856910000000  0.4568980000000  0.4948190000000 1.0
C      1  0.5520890000000  0.4339590000000  0.5288760000000 1.0
C      1  0.4501300000000  0.5180160000000  0.4972220000000 1.0
C      1  0.5114950000000  0.5794870000000  0.5493560000000 1.0
C      1  0.4874430000000  0.4110330000000  0.4580650000000 1.0
C      1  0.5155020000000  0.4492820000000  0.4822230000000 1.0
C      1  0.4781750000000  0.5167870000000  0.4012320000000 1.0
C      1  0.5014360000000  0.4311160000000  0.5482640000000 1.0
C      1  0.5257970000000  0.4219010000000  0.5333020000000 1.0
C      1  0.4337460000000  0.5656340000000  0.5185440000000 1.0
C      1  0.5220450000000  0.5352340000000  0.5760800000000 1.0
C      1  0.4298220000000  0.4308610000000  0.4854480000000 1.0
C      1  0.5130670000000  0.5300390000000  0.4438130000000 1.0
C      1  0.4078200000000  0.4741370000000  0.5140270000000 1.0
C      1  0.4536690000000  0.5338510000000  0.5669380000000 1.0
C      1  0.4480040000000  0.5547350000000  0.4564670000000 1.0
C      1  0.4130940000000  0.5080320000000  0.4406930000000 1.0
C      1  0.4637040000000  0.4646140000000  0.5116120000000 1.0
C      1  0.5986390000000  0.5104910000000  0.5518180000000 1.0
C      1  0.5255960000000  0.5512100000000  0.5035790000000 1.0
C      1  0.5294500000000  0.4460420000000  0.4302410000000 1.0
C      1  0.4671530000000  0.4687250000000  0.5568820000000 1.0
C      1  0.4458190000000  0.5892030000000  0.5096700000000 1.0
C      1  0.5532260000000  0.5180150000000  0.4267700000000 1.0
C      1  0.5203130000000  0.4712300000000  0.5001630000000 1.0
C      1  0.4252500000000  0.5057340000000  0.4896630000000 1.0
C      1  0.5257070000000  0.5277560000000  0.4193710000000 1.0
C      1  0.5533280000000  0.5030750000000  0.5361280000000 1.0
C      1  0.5855080000000  0.5283640000000  0.4703560000000 1.0
C      1  0.4532670000000  0.4450910000000  0.5712910000000 1.0
C      1  0.4096980000000  0.5296600000000  0.4972700000000 1.0
C      1  0.5005970000000  0.4461060000000  0.4299780000000 1.0
C      1  0.4375440000000  0.5976240000000  0.4824040000000 1.0
C      1  0.4624990000000  0.5144660000000  0.5877690000000 1.0
C      1  0.4346000000000  0.4344470000000  0.5102980000000 1.0
C      1  0.5644870000000  0.4827500000000  0.4547180000000 1.0
C      1  0.5466770000000  0.5586090000000  0.4844120000000 1.0
C      1  0.5596530000000  0.5777660000000  0.5230940000000 1.0
C      1  0.5469830000000  0.5551250000000  0.4553010000000 1.0
C      1  0.5205020000000  0.6036880000000  0.5161940000000 1.0
C      1  0.5909180000000  0.4836060000000  0.5097970000000 1.0
C      1  0.5252300000000  0.5935570000000  0.4892140000000 1.0
C      1  0.5956920000000  0.5117110000000  0.4921570000000 1.0
C      1  0.5591620000000  0.4793130000000  0.5783370000000 1.0
C      1  0.5558000000000  0.5311420000000  0.5737400000000 1.0
C      1  0.4667860000000  0.4669560000000  0.4129120000000 1.0
C      1  0.4116350000000  0.4782450000000  0.4870690000000 1.0
C      1  0.5969880000000  0.4834530000000  0.5417910000000 1.0
C      1  0.5650590000000  0.4375840000000  0.5016310000000 1.0
C      1  0.4575880000000  0.5100630000000  0.4350680000000 1.0
C      1  0.4651620000000  0.5340190000000  0.4753660000000 1.0
C      1  0.5188240000000  0.5567110000000  0.4483290000000 1.0
C      1  0.4307920000000  0.4575440000000  0.4438160000000 1.0
C      1  0.4214380000000  0.4549280000000  0.4711410000000 1.0
C      1  0.5301090000000  0.5203480000000  0.6041980000000 1.0
C      1  0.5731310000000  0.5281400000000  0.5500490000000 1.0
C      1  0.5198140000000  0.4680670000000  0.5547170000000 1.0
C      1  0.5426840000000  0.4881130000000  0.4961220000000 1.0
C      1  0.5033940000000  0.5569430000000  0.5656200000000 1.0
C      1  0.5398170000000  0.4875280000000  0.5565710000000 1.0
C      1  0.5169580000000  0.4107250000000  0.4606300000000 1.0
C      1  0.5039640000000  0.4745460000000  0.5970270000000 1.0
C      1  0.4884080000000  0.5508700000000  0.4826600000000 1.0
C      1  0.5134240000000  0.4063390000000  0.5119110000000 1.0
C      1  0.4845990000000  0.5951910000000  0.4802930000000 1.0
C      1  0.5302450000000  0.5137570000000  0.5239670000000 1.0
C      1  0.4414280000000  0.4520980000000  0.5279440000000 1.0
C      1  0.5369020000000  0.5895250000000  0.5369220000000 1.0
C      1  0.4846780000000  0.4038110000000  0.5123810000000 1.0
C      1  0.4925790000000  0.4592640000000  0.4668470000000 1.0
C      1  0.4739280000000  0.4587980000000  0.4882980000000 1.0
C      1  0.4989550000000  0.4899340000000  0.4956380000000 1.0
C      1  0.4173230000000  0.4730430000000  0.5391690000000 1.0
C      1  0.5393450000000  0.4271880000000  0.4500050000000 1.0
C      1  0.5049590000000  0.5726320000000  0.4713870000000 1.0
C      1  0.5590160000000  0.4352220000000  0.4711120000000 1.0
C      1  0.4640630000000  0.5135340000000  0.5224580000000 1.0
C      1  0.4563360000000  0.4483680000000  0.4316710000000 1.0
C      1  0.5580490000000  0.4890910000000  0.4270250000000 1.0
C      1  0.4605070000000  0.6019290000000  0.4655400000000 1.0
C      1  0.5547950000000  0.5101460000000  0.5929090000000 1.0
C      1  0.4511390000000  0.4175890000000  0.4775590000000 1.0
C      1  0.4535220000000  0.4924370000000  0.5481960000000 1.0
C      1  0.5627560000000  0.4891270000000  0.5142450000000 1.0
C      1  0.4298010000000  0.5274450000000  0.5493500000000 1.0
C      1  0.5069060000000  0.5109160000000  0.4036220000000 1.0
C      1  0.4975880000000  0.5471470000000  0.5079220000000 1.0
C      1  0.4391870000000  0.5817680000000  0.4571310000000 1.0
C      1  0.5216860000000  0.4206030000000  0.4874500000000 1.0
C      1  0.5647960000000  0.5332620000000  0.4484000000000 1.0
C      1  0.5869410000000  0.5372180000000  0.4982410000000 1.0
C      1  0.4867850000000  0.4973160000000  0.5843070000000 1.0
C      1  0.4758250000000  0.5933780000000  0.5082110000000 1.0
C      1  0.5406590000000  0.5396300000000  0.5222340000000 1.0
C      1  0.4733030000000  0.4055250000000  0.4841050000000 1.0
C      1  0.4934850000000  0.4595550000000  0.5466150000000 1.0
C      1  0.4626940000000  0.5342810000000  0.4202370000000 1.0
C      1  0.5068810000000  0.5030810000000  0.5381960000000 1.0
C      1  0.4123660000000  0.5361100000000  0.4416500000000 1.0
C      1  0.5044710000000  0.5127490000000  0.5653050000000 1.0
C      1  0.5810580000000  0.4665600000000  0.5598610000000 1.0
C      1  0.5626350000000  0.4444720000000  0.5547000000000 1.0
C      1  0.4832360000000  0.4916560000000  0.5193160000000 1.0
C      1  0.4801530000000  0.5369300000000  0.5288070000000 1.0
C      1  0.5140770000000  0.4827130000000  0.4042050000000 1.0
C      1  0.4217330000000  0.5427920000000  0.5249190000000 1.0
C      1  0.4194610000000  0.4830370000000  0.4404890000000 1.0
C      1  0.4939030000000  0.4930250000000  0.4665250000000 1.0
C      1  0.4710560000000  0.5098530000000  0.4588240000000 1.0
C      1  0.4622990000000  0.4942400000000  0.4126140000000 1.0
C      1  0.4390350000000  0.5487560000000  0.4301630000000 1.0
C      1  0.4066770000000  0.5369970000000  0.4700140000000 1.0
END
