TITL C-4164239-2837-312 1.05089016986034 125000 -12414.8932536235 0 0 84 (C1) n - 1
REM
REM in /home/nfs/bkarasulu/CARBON/AIRSS/Generating-Clusters/ReaxFF-fromJPCA2015/Units_Real/with-SteepDescent/Only-C1/SD-CG/Try1-3A/FIRE-CG
REM
REM
REM
REM
REM
REM ./C.cell (11c1c37f851c82e70ff6c80c92926a4b)
REM
REM compiler GCC version 9.2.1 20190827 (Red Hat 9.2.1-1)
REM options -cpp -mtune=generic -march=x86-64 -g -O0 -fpre-include=/usr/include/finclude/math-vector-fortran.h
REM seed 537624421 799791679 1835830831 -2046008681 -1981159616 -1723339362 1245097968 171905495 746422038 1084739784 -287264175 -920013351 1051888678 -2032136231 755442306 1465291818 214667421 -1909679526 287288780 -907739094 1443079676 -1644147206 1118374288 2039179406 1654415532 699733600 -1005201621 -916284284 -1950711233 -1371999596 473668706 -215670685 250706477
REM
CELL 1.54180   50.00000   50.00000   50.00000   90.00000   90.00000   90.00000
LATT -1
SFAC C  
C      1  0.4181400000000  0.5358440000000  0.4819100000000 1.0
C      1  0.4841780000000  0.4273520000000  0.5318830000000 1.0
C      1  0.5203080000000  0.5312850000000  0.4194510000000 1.0
C      1  0.4971350000000  0.5557750000000  0.5581720000000 1.0
C      1  0.4271910000000  0.4786850000000  0.4751610000000 1.0
C      1  0.5186290000000  0.5809490000000  0.5159950000000 1.0
C      1  0.4846440000000  0.4555570000000  0.5818350000000 1.0
C      1  0.5525910000000  0.4373820000000  0.5338350000000 1.0
C      1  0.4614540000000  0.4440250000000  0.5369830000000 1.0
C      1  0.4376830000000  0.5462750000000  0.4637920000000 1.0
C      1  0.5439880000000  0.5251950000000  0.4600160000000 1.0
C      1  0.5007360000000  0.5079260000000  0.4166530000000 1.0
C      1  0.5228040000000  0.4893310000000  0.4249530000000 1.0
C      1  0.5780130000000  0.5126860000000  0.5001800000000 1.0
C      1  0.4351900000000  0.5231390000000  0.5570540000000 1.0
C      1  0.5524520000000  0.4580260000000  0.4509260000000 1.0
C      1  0.5812710000000  0.4881370000000  0.5174640000000 1.0
C      1  0.4810560000000  0.4474760000000  0.4429790000000 1.0
C      1  0.4570560000000  0.5076890000000  0.5113720000000 1.0
C      1  0.4483880000000  0.5641140000000  0.4849450000000 1.0
C      1  0.5086870000000  0.4413280000000  0.4430770000000 1.0
C      1  0.5441720000000  0.5725630000000  0.5044660000000 1.0
C      1  0.4949720000000  0.5521040000000  0.4669550000000 1.0
C      1  0.5163990000000  0.4684400000000  0.5396480000000 1.0
C      1  0.5455870000000  0.5554770000000  0.4545590000000 1.0
C      1  0.4979730000000  0.4506160000000  0.4966190000000 1.0
C      1  0.5333470000000  0.5245520000000  0.5742980000000 1.0
C      1  0.5714860000000  0.4857650000000  0.5447770000000 1.0
C      1  0.5320080000000  0.4675950000000  0.5647430000000 1.0
C      1  0.4436220000000  0.5525380000000  0.5100890000000 1.0
C      1  0.4759640000000  0.5395720000000  0.5467350000000 1.0
C      1  0.4784140000000  0.5653700000000  0.4879900000000 1.0
C      1  0.5714550000000  0.5288950000000  0.5233940000000 1.0
C      1  0.4559990000000  0.5280280000000  0.4633050000000 1.0
C      1  0.4735100000000  0.5037010000000  0.4261650000000 1.0
C      1  0.5300930000000  0.4224930000000  0.5204680000000 1.0
C      1  0.4489220000000  0.5446800000000  0.5361030000000 1.0
C      1  0.4803200000000  0.4926510000000  0.5191310000000 1.0
C      1  0.4604140000000  0.4319260000000  0.4894490000000 1.0
C      1  0.4586930000000  0.4406630000000  0.4618290000000 1.0
C      1  0.4850460000000  0.4749550000000  0.4958730000000 1.0
C      1  0.5633950000000  0.5081690000000  0.4758840000000 1.0
C      1  0.5585850000000  0.5550520000000  0.5229130000000 1.0
C      1  0.5174010000000  0.5702080000000  0.5429730000000 1.0
C      1  0.5579270000000  0.4600870000000  0.5522830000000 1.0
C      1  0.4453730000000  0.4658750000000  0.4558170000000 1.0
C      1  0.4702190000000  0.4634680000000  0.5572120000000 1.0
C      1  0.4721670000000  0.4781790000000  0.4462970000000 1.0
C      1  0.5174610000000  0.4518070000000  0.4807520000000 1.0
C      1  0.4885350000000  0.4861560000000  0.4703440000000 1.0
C      1  0.4688430000000  0.5175350000000  0.4886300000000 1.0
C      1  0.5630380000000  0.5135550000000  0.5482680000000 1.0
C      1  0.4985660000000  0.5856140000000  0.4948340000000 1.0
C      1  0.5608580000000  0.4707360000000  0.5055690000000 1.0
C      1  0.5411450000000  0.5534540000000  0.5462010000000 1.0
C      1  0.4140060000000  0.5053500000000  0.4733540000000 1.0
C      1  0.4474600000000  0.4474420000000  0.5101850000000 1.0
C      1  0.5158010000000  0.5887190000000  0.4711300000000 1.0
C      1  0.5065710000000  0.5327730000000  0.5745610000000 1.0
C      1  0.4869980000000  0.4212070000000  0.5013690000000 1.0
C      1  0.4590750000000  0.5222580000000  0.4397880000000 1.0
C      1  0.5106140000000  0.4369070000000  0.5373030000000 1.0
C      1  0.4093650000000  0.5143030000000  0.4992100000000 1.0
C      1  0.5258660000000  0.4772900000000  0.4869120000000 1.0
C      1  0.4195450000000  0.5010460000000  0.5481090000000 1.0
C      1  0.5375750000000  0.5248390000000  0.5512920000000 1.0
C      1  0.4964300000000  0.5112140000000  0.4818530000000 1.0
C      1  0.4875850000000  0.4853600000000  0.5466730000000 1.0
C      1  0.5142160000000  0.5310940000000  0.4719450000000 1.0
C      1  0.5055910000000  0.5728370000000  0.4486840000000 1.0
C      1  0.5337560000000  0.4763900000000  0.5147610000000 1.0
C      1  0.5142170000000  0.4575530000000  0.5863770000000 1.0
C      1  0.4301780000000  0.4695300000000  0.5026400000000 1.0
C      1  0.5252740000000  0.5572980000000  0.4335650000000 1.0
C      1  0.4548050000000  0.5155570000000  0.5781730000000 1.0
C      1  0.5392890000000  0.5126970000000  0.4306430000000 1.0
C      1  0.5274890000000  0.4614970000000  0.4349370000000 1.0
C      1  0.5249540000000  0.4246810000000  0.4671980000000 1.0
C      1  0.5556710000000  0.4308390000000  0.4586370000000 1.0
C      1  0.5419630000000  0.5758240000000  0.4754180000000 1.0
C      1  0.5552280000000  0.4794030000000  0.4757610000000 1.0
C      1  0.4277560000000  0.4964340000000  0.5172250000000 1.0
C      1  0.5170180000000  0.4146030000000  0.4946200000000 1.0
C      1  0.4822010000000  0.5143980000000  0.5644660000000 1.0
END
