TITL C-4164246-3563-320 81.3609576634642 125000 -29003.2661525896 0 0 192 (C1) n - 1
REM
REM in /home/nfs/bkarasulu/CARBON/AIRSS/Generating-Clusters/ReaxFF-fromJPCA2015/Units_Real/with-SteepDescent/Only-C1/SD-CG/Try1-3A/FIRE-CG
REM
REM
REM
REM
REM
REM ./C.cell (11c1c37f851c82e70ff6c80c92926a4b)
REM
REM compiler GCC version 9.2.1 20190827 (Red Hat 9.2.1-1)
REM options -cpp -mtune=generic -march=x86-64 -g -O0 -fpre-include=/usr/include/finclude/math-vector-fortran.h
REM seed 1506005846 -523202360 -924989722 -1367363395 1139525677 1185394901 250042992 230914178 101756149 1356678697 -1811028898 -272527507 -329033063 2133830092 -1234221617 -1966265900 708635124 -1180903106 -1354840960 -1989183505 -123827722 -395291753 -1796726640 1030067083 -1271945683 -1702602679 32298171 -1735731394 1204983889 1989098595 -100390956 -610256966 -1022280732
REM
CELL 1.54180   50.00000   50.00000   50.00000   90.00000   90.00000   90.00000
LATT -1
SFAC C  
C      1  0.3948140000000  0.4636320000000  0.5403620000000 1.0
C      1  0.5754400000000  0.5596530000000  0.4234760000000 1.0
C      1  0.4611530000000  0.5018820000000  0.5407620000000 1.0
C      1  0.4418800000000  0.5946490000000  0.5127460000000 1.0
C      1  0.4955170000000  0.4999910000000  0.3752170000000 1.0
C      1  0.4979550000000  0.5226280000000  0.4765810000000 1.0
C      1  0.4667120000000  0.5274180000000  0.4108680000000 1.0
C      1  0.3960810000000  0.4565960000000  0.4787060000000 1.0
C      1  0.4985350000000  0.6207900000000  0.4514940000000 1.0
C      1  0.4595920000000  0.6119410000000  0.4739690000000 1.0
C      1  0.4510030000000  0.4680320000000  0.5632450000000 1.0
C      1  0.5232820000000  0.5230520000000  0.5997380000000 1.0
C      1  0.5104530000000  0.5061200000000  0.4985080000000 1.0
C      1  0.4563430000000  0.5142210000000  0.5923150000000 1.0
C      1  0.5374960000000  0.5993430000000  0.5522950000000 1.0
C      1  0.4885770000000  0.5413690000000  0.4268070000000 1.0
C      1  0.4056480000000  0.5433300000000  0.4412650000000 1.0
C      1  0.4687170000000  0.6054690000000  0.5195940000000 1.0
C      1  0.4334520000000  0.4415010000000  0.5660510000000 1.0
C      1  0.4525540000000  0.4106700000000  0.4172400000000 1.0
C      1  0.4415920000000  0.5712230000000  0.4236670000000 1.0
C      1  0.4878720000000  0.4991090000000  0.5534290000000 1.0
C      1  0.4184240000000  0.4730350000000  0.4308980000000 1.0
C      1  0.5405060000000  0.5677570000000  0.5165630000000 1.0
C      1  0.4789720000000  0.6181580000000  0.4947760000000 1.0
C      1  0.3842820000000  0.4846430000000  0.5226240000000 1.0
C      1  0.4744470000000  0.4295740000000  0.4154220000000 1.0
C      1  0.4666110000000  0.5817490000000  0.4359210000000 1.0
C      1  0.5540870000000  0.4364860000000  0.4304580000000 1.0
C      1  0.4128310000000  0.4902220000000  0.5771180000000 1.0
C      1  0.4426380000000  0.4889870000000  0.5813980000000 1.0
C      1  0.5481190000000  0.5684500000000  0.4136250000000 1.0
C      1  0.5455240000000  0.5904850000000  0.5776900000000 1.0
C      1  0.4244970000000  0.5736100000000  0.5241870000000 1.0
C      1  0.4041220000000  0.4342550000000  0.4949040000000 1.0
C      1  0.5301790000000  0.5054300000000  0.4402560000000 1.0
C      1  0.5157650000000  0.4514500000000  0.4302230000000 1.0
C      1  0.5657180000000  0.5034820000000  0.5902080000000 1.0
C      1  0.5027350000000  0.5001110000000  0.6143560000000 1.0
C      1  0.5255840000000  0.4305700000000  0.4948720000000 1.0
C      1  0.5552060000000  0.6006990000000  0.4816130000000 1.0
C      1  0.5324100000000  0.4424090000000  0.6041730000000 1.0
C      1  0.5551180000000  0.5514330000000  0.4687440000000 1.0
C      1  0.4245570000000  0.4029180000000  0.4587620000000 1.0
C      1  0.5747230000000  0.5660950000000  0.4517280000000 1.0
C      1  0.5262590000000  0.4011520000000  0.4590160000000 1.0
C      1  0.4909860000000  0.4072330000000  0.5766910000000 1.0
C      1  0.5222520000000  0.4506530000000  0.4790250000000 1.0
C      1  0.4852950000000  0.5571080000000  0.5939340000000 1.0
C      1  0.5188590000000  0.4588160000000  0.5296860000000 1.0
C      1  0.5072310000000  0.5747720000000  0.5816960000000 1.0
C      1  0.5742720000000  0.4509730000000  0.5689810000000 1.0
C      1  0.4759730000000  0.5019230000000  0.4758540000000 1.0
C      1  0.5280870000000  0.4624320000000  0.3919540000000 1.0
C      1  0.5325280000000  0.4169020000000  0.5510910000000 1.0
C      1  0.5545380000000  0.4339850000000  0.4992150000000 1.0
C      1  0.4590700000000  0.5284540000000  0.5307000000000 1.0
C      1  0.4359430000000  0.5096650000000  0.4660260000000 1.0
C      1  0.4886890000000  0.5516690000000  0.4816490000000 1.0
C      1  0.5370620000000  0.4792450000000  0.5181680000000 1.0
C      1  0.5738200000000  0.4778830000000  0.5550950000000 1.0
C      1  0.4108710000000  0.4425070000000  0.5239870000000 1.0
C      1  0.4389400000000  0.4013610000000  0.5318020000000 1.0
C      1  0.5337620000000  0.5741380000000  0.5964070000000 1.0
C      1  0.4203300000000  0.5773510000000  0.4692370000000 1.0
C      1  0.5501650000000  0.3937910000000  0.5056580000000 1.0
C      1  0.4149530000000  0.5331150000000  0.4148350000000 1.0
C      1  0.4140250000000  0.4567390000000  0.4549630000000 1.0
C      1  0.5507800000000  0.4124190000000  0.4473740000000 1.0
C      1  0.5585760000000  0.5703860000000  0.4917830000000 1.0
C      1  0.5066880000000  0.5179090000000  0.5482930000000 1.0
C      1  0.5655370000000  0.5186000000000  0.5268500000000 1.0
C      1  0.4086320000000  0.4638480000000  0.5651460000000 1.0
C      1  0.4752400000000  0.3932510000000  0.4583510000000 1.0
C      1  0.5429110000000  0.5396770000000  0.5557550000000 1.0
C      1  0.5312360000000  0.4469970000000  0.5533840000000 1.0
C      1  0.6004490000000  0.5109240000000  0.4952030000000 1.0
C      1  0.4231400000000  0.4144120000000  0.4855510000000 1.0
C      1  0.4850290000000  0.4771560000000  0.4629640000000 1.0
C      1  0.5575120000000  0.5063570000000  0.4297680000000 1.0
C      1  0.5231790000000  0.3984070000000  0.4900210000000 1.0
C      1  0.5986350000000  0.5406350000000  0.4958710000000 1.0
C      1  0.5585590000000  0.5242660000000  0.4060370000000 1.0
C      1  0.4729900000000  0.3888990000000  0.4868650000000 1.0
C      1  0.5991270000000  0.4396070000000  0.5585730000000 1.0
C      1  0.4079560000000  0.5117850000000  0.5596470000000 1.0
C      1  0.4442670000000  0.5313530000000  0.5073830000000 1.0
C      1  0.5139360000000  0.5885670000000  0.4919300000000 1.0
C      1  0.4476570000000  0.4374760000000  0.4056090000000 1.0
C      1  0.5042040000000  0.6253060000000  0.4808410000000 1.0
C      1  0.4964650000000  0.3886930000000  0.5017620000000 1.0
C      1  0.4370860000000  0.5965000000000  0.4841710000000 1.0
C      1  0.5239260000000  0.5260120000000  0.4601340000000 1.0
C      1  0.5039360000000  0.4452650000000  0.6067160000000 1.0
C      1  0.5594580000000  0.4910800000000  0.5325710000000 1.0
C      1  0.4898230000000  0.5595320000000  0.5105380000000 1.0
C      1  0.4722180000000  0.6087790000000  0.4473480000000 1.0
C      1  0.4435780000000  0.5599130000000  0.5664760000000 1.0
C      1  0.4476400000000  0.4874280000000  0.5191500000000 1.0
C      1  0.4391640000000  0.4897350000000  0.4451060000000 1.0
C      1  0.4707410000000  0.4892560000000  0.3810000000000 1.0
C      1  0.4034920000000  0.5314270000000  0.5435100000000 1.0
C      1  0.5828090000000  0.5774130000000  0.5303880000000 1.0
C      1  0.5229470000000  0.5269860000000  0.5692100000000 1.0
C      1  0.5036790000000  0.4720700000000  0.6136840000000 1.0
C      1  0.5658430000000  0.4316780000000  0.5256860000000 1.0
C      1  0.4591180000000  0.5438940000000  0.5846890000000 1.0
C      1  0.5103660000000  0.5687700000000  0.4721950000000 1.0
C      1  0.5934470000000  0.4679540000000  0.5106560000000 1.0
C      1  0.5368020000000  0.5442370000000  0.4025180000000 1.0
C      1  0.5297210000000  0.5869330000000  0.4251560000000 1.0
C      1  0.5325920000000  0.4892610000000  0.4911690000000 1.0
C      1  0.5556130000000  0.5881080000000  0.5321300000000 1.0
C      1  0.5879780000000  0.4462740000000  0.4617560000000 1.0
C      1  0.5111100000000  0.4924780000000  0.4225340000000 1.0
C      1  0.4759910000000  0.5498160000000  0.5337490000000 1.0
C      1  0.4108180000000  0.5261610000000  0.4678080000000 1.0
C      1  0.4708470000000  0.4222490000000  0.5138960000000 1.0
C      1  0.5119000000000  0.5772100000000  0.5171800000000 1.0
C      1  0.4808710000000  0.5957590000000  0.5445990000000 1.0
C      1  0.6025220000000  0.4938490000000  0.5198600000000 1.0
C      1  0.4212100000000  0.5564200000000  0.5471340000000 1.0
C      1  0.5810900000000  0.5075210000000  0.4482020000000 1.0
C      1  0.5726140000000  0.5958730000000  0.4586580000000 1.0
C      1  0.5653740000000  0.5525090000000  0.5679670000000 1.0
C      1  0.4225150000000  0.5500800000000  0.5064600000000 1.0
C      1  0.4606890000000  0.4971550000000  0.4241320000000 1.0
C      1  0.4419760000000  0.5456070000000  0.4098750000000 1.0
C      1  0.4541870000000  0.4257460000000  0.5832600000000 1.0
C      1  0.4184240000000  0.5699990000000  0.4414370000000 1.0
C      1  0.4868850000000  0.4000720000000  0.5289590000000 1.0
C      1  0.5900900000000  0.5302040000000  0.5367740000000 1.0
C      1  0.4936690000000  0.4338720000000  0.4376970000000 1.0
C      1  0.5578760000000  0.4525390000000  0.5961570000000 1.0
C      1  0.4884380000000  0.5259970000000  0.3873070000000 1.0
C      1  0.5399550000000  0.4586420000000  0.4442030000000 1.0
C      1  0.4623750000000  0.3993740000000  0.5734520000000 1.0
C      1  0.5080450000000  0.5897510000000  0.5559590000000 1.0
C      1  0.5074880000000  0.5409100000000  0.4034690000000 1.0
C      1  0.5575330000000  0.5550770000000  0.5963800000000 1.0
C      1  0.5873360000000  0.4949440000000  0.4743690000000 1.0
C      1  0.5879750000000  0.4978550000000  0.5709830000000 1.0
C      1  0.4955460000000  0.4520040000000  0.4755180000000 1.0
C      1  0.4502540000000  0.3977180000000  0.4435460000000 1.0
C      1  0.5070020000000  0.4037750000000  0.5529350000000 1.0
C      1  0.5870700000000  0.5660160000000  0.5031270000000 1.0
C      1  0.5021720000000  0.5430470000000  0.6128880000000 1.0
C      1  0.3864690000000  0.4814530000000  0.4924170000000 1.0
C      1  0.5416030000000  0.5358680000000  0.5266820000000 1.0
C      1  0.4612740000000  0.3912380000000  0.5457310000000 1.0
C      1  0.4900880000000  0.4553110000000  0.5281530000000 1.0
C      1  0.5296460000000  0.5523020000000  0.4604670000000 1.0
C      1  0.5476020000000  0.4796780000000  0.5920720000000 1.0
C      1  0.4777090000000  0.5032540000000  0.6038370000000 1.0
C      1  0.5853980000000  0.5338640000000  0.4126620000000 1.0
C      1  0.4413820000000  0.4607310000000  0.4630250000000 1.0
C      1  0.4807120000000  0.5596830000000  0.4479070000000 1.0
C      1  0.4680800000000  0.5704970000000  0.5530940000000 1.0
C      1  0.4498500000000  0.4842730000000  0.3978800000000 1.0
C      1  0.6036470000000  0.5064830000000  0.5474140000000 1.0
C      1  0.4494510000000  0.4055280000000  0.5022390000000 1.0
C      1  0.4791190000000  0.4465320000000  0.5025190000000 1.0
C      1  0.5127410000000  0.6031890000000  0.4359890000000 1.0
C      1  0.5000780000000  0.4067000000000  0.4486430000000 1.0
C      1  0.4987120000000  0.4778450000000  0.5666320000000 1.0
C      1  0.5170360000000  0.5209360000000  0.5226390000000 1.0
C      1  0.5751010000000  0.4187890000000  0.4626120000000 1.0
C      1  0.6010640000000  0.5133730000000  0.4277850000000 1.0
C      1  0.5174070000000  0.4873340000000  0.3930570000000 1.0
C      1  0.3916850000000  0.5134120000000  0.5194990000000 1.0
C      1  0.6079320000000  0.4843360000000  0.4247850000000 1.0
C      1  0.5797250000000  0.4673880000000  0.4820810000000 1.0
C      1  0.4505600000000  0.4572170000000  0.4899150000000 1.0
C      1  0.4860800000000  0.4845180000000  0.4347570000000 1.0
C      1  0.5442560000000  0.4689510000000  0.4721210000000 1.0
C      1  0.4324060000000  0.4621540000000  0.4076450000000 1.0
C      1  0.5915350000000  0.4449100000000  0.5287100000000 1.0
C      1  0.5688720000000  0.4095490000000  0.4897840000000 1.0
C      1  0.4822680000000  0.4353790000000  0.5839860000000 1.0
C      1  0.6005960000000  0.4591670000000  0.4391440000000 1.0
C      1  0.4790530000000  0.4577960000000  0.5574990000000 1.0
C      1  0.4123860000000  0.5522910000000  0.4804190000000 1.0
C      1  0.3926200000000  0.5099570000000  0.4906660000000 1.0
C      1  0.5533390000000  0.5268120000000  0.6026340000000 1.0
C      1  0.4350260000000  0.4633070000000  0.5136160000000 1.0
C      1  0.5332740000000  0.4402060000000  0.4078420000000 1.0
C      1  0.5881520000000  0.5568810000000  0.5500620000000 1.0
C      1  0.4256400000000  0.4242140000000  0.5426830000000 1.0
C      1  0.5288620000000  0.6114970000000  0.4881330000000 1.0
C      1  0.5527360000000  0.4063100000000  0.5320650000000 1.0
C      1  0.5265830000000  0.4696890000000  0.5719560000000 1.0
C      1  0.4500830000000  0.5070340000000  0.4906210000000 1.0
END
