TITL C-4164239-2837-608 25.3400751956126 125000 -11749.1870374213 0 0 81 (C1) n - 1
REM
REM in /home/nfs/bkarasulu/CARBON/AIRSS/Generating-Clusters/ReaxFF-fromJPCA2015/Units_Real/with-SteepDescent/Only-C1/SD-CG/Try1-3A/FIRE-CG
REM
REM
REM
REM
REM
REM ./C.cell (11c1c37f851c82e70ff6c80c92926a4b)
REM
REM compiler GCC version 9.2.1 20190827 (Red Hat 9.2.1-1)
REM options -cpp -mtune=generic -march=x86-64 -g -O0 -fpre-include=/usr/include/finclude/math-vector-fortran.h
REM seed -100875354 1316618697 2070727251 1931053913 21027284 1779561576 1071465960 411954275 1091125044 740715772 198132429 -854782617 186847646 1456214360 -361105043 1271207978 1638574745 -1525743437 -158242759 -1880747922 472226929 -1359547301 -1026123369 787988688 -2035284674 942279349 -450107380 -2125009258 1689393159 1539958806 126920515 705787748 -1751801216
REM
CELL 1.54180   50.00000   50.00000   50.00000   90.00000   90.00000   90.00000
LATT -1
SFAC C  
C      1  0.5226770000000  0.5045280000000  0.4260000000000 1.0
C      1  0.5774270000000  0.5322750000000  0.4953060000000 1.0
C      1  0.5355590000000  0.4533750000000  0.4533520000000 1.0
C      1  0.5099650000000  0.5881610000000  0.4909580000000 1.0
C      1  0.4290740000000  0.5212240000000  0.4995880000000 1.0
C      1  0.5167620000000  0.5609150000000  0.5042940000000 1.0
C      1  0.4483440000000  0.4892570000000  0.5669010000000 1.0
C      1  0.5749060000000  0.4949690000000  0.5236770000000 1.0
C      1  0.5698610000000  0.4829330000000  0.4664560000000 1.0
C      1  0.5247140000000  0.4601930000000  0.5036250000000 1.0
C      1  0.5161840000000  0.5133710000000  0.5230170000000 1.0
C      1  0.5204970000000  0.5621370000000  0.5339530000000 1.0
C      1  0.4893470000000  0.5243990000000  0.5175090000000 1.0
C      1  0.4802050000000  0.4851060000000  0.4145890000000 1.0
C      1  0.5353960000000  0.4136540000000  0.5350260000000 1.0
C      1  0.4499350000000  0.4308340000000  0.4911860000000 1.0
C      1  0.4697110000000  0.4485180000000  0.5637400000000 1.0
C      1  0.5580930000000  0.4562400000000  0.4701510000000 1.0
C      1  0.5123560000000  0.4545280000000  0.4385380000000 1.0
C      1  0.5517750000000  0.5537870000000  0.4680030000000 1.0
C      1  0.5176050000000  0.5369640000000  0.4875210000000 1.0
C      1  0.4647360000000  0.4612210000000  0.4444400000000 1.0
C      1  0.4843450000000  0.4649140000000  0.5075290000000 1.0
C      1  0.5533770000000  0.4500130000000  0.5017150000000 1.0
C      1  0.5225480000000  0.5508440000000  0.4625390000000 1.0
C      1  0.5574330000000  0.4858930000000  0.4417350000000 1.0
C      1  0.4506550000000  0.5525110000000  0.4653070000000 1.0
C      1  0.4656270000000  0.4255910000000  0.5155490000000 1.0
C      1  0.4920030000000  0.5014500000000  0.5331550000000 1.0
C      1  0.4542460000000  0.5323610000000  0.4459000000000 1.0
C      1  0.5607610000000  0.5286340000000  0.4557790000000 1.0
C      1  0.5657620000000  0.4697910000000  0.5244250000000 1.0
C      1  0.5513840000000  0.4205410000000  0.5125270000000 1.0
C      1  0.5627990000000  0.5107560000000  0.4795330000000 1.0
C      1  0.4778440000000  0.4769390000000  0.5325880000000 1.0
C      1  0.4548500000000  0.4848960000000  0.4325220000000 1.0
C      1  0.5303700000000  0.5114030000000  0.4957650000000 1.0
C      1  0.4864250000000  0.5042090000000  0.5778740000000 1.0
C      1  0.4350420000000  0.4574660000000  0.5278050000000 1.0
C      1  0.5084690000000  0.4784460000000  0.4195440000000 1.0
C      1  0.4460140000000  0.5428080000000  0.4912060000000 1.0
C      1  0.5228650000000  0.5326810000000  0.5504080000000 1.0
C      1  0.5037970000000  0.4912770000000  0.4675300000000 1.0
C      1  0.4383620000000  0.5139730000000  0.5257710000000 1.0
C      1  0.4240420000000  0.5013400000000  0.4740340000000 1.0
C      1  0.5442120000000  0.4745120000000  0.5441390000000 1.0
C      1  0.5507290000000  0.5117100000000  0.4326870000000 1.0
C      1  0.5524860000000  0.5601600000000  0.5244340000000 1.0
C      1  0.4714560000000  0.4750440000000  0.5762840000000 1.0
C      1  0.5106690000000  0.5158260000000  0.5705550000000 1.0
C      1  0.4190350000000  0.4723820000000  0.4834830000000 1.0
C      1  0.5235590000000  0.4842620000000  0.4866380000000 1.0
C      1  0.4405270000000  0.5072210000000  0.4463480000000 1.0
C      1  0.4920350000000  0.5717160000000  0.5387560000000 1.0
C      1  0.4599470000000  0.5157770000000  0.5685730000000 1.0
C      1  0.5170360000000  0.4634230000000  0.5322810000000 1.0
C      1  0.5498880000000  0.5271720000000  0.5625050000000 1.0
C      1  0.4753040000000  0.4335160000000  0.4751470000000 1.0
C      1  0.4531010000000  0.5312190000000  0.5440690000000 1.0
C      1  0.4971960000000  0.5588290000000  0.4494830000000 1.0
C      1  0.5817980000000  0.5221490000000  0.5232650000000 1.0
C      1  0.4539250000000  0.4391220000000  0.5387790000000 1.0
C      1  0.4971670000000  0.4441460000000  0.5627650000000 1.0
C      1  0.5617020000000  0.5568230000000  0.4966440000000 1.0
C      1  0.4292430000000  0.4509400000000  0.4998750000000 1.0
C      1  0.4849090000000  0.4441020000000  0.4489480000000 1.0
C      1  0.4469080000000  0.4844250000000  0.5361370000000 1.0
C      1  0.4741580000000  0.5685230000000  0.4647560000000 1.0
C      1  0.4699510000000  0.5258270000000  0.4965370000000 1.0
C      1  0.4446120000000  0.4838530000000  0.4777340000000 1.0
C      1  0.4660090000000  0.5580410000000  0.5390170000000 1.0
C      1  0.4641970000000  0.4997590000000  0.4879620000000 1.0
C      1  0.5657950000000  0.5404760000000  0.5407100000000 1.0
C      1  0.4836470000000  0.5345850000000  0.4417890000000 1.0
C      1  0.4721860000000  0.5784540000000  0.5188540000000 1.0
C      1  0.5024330000000  0.5116710000000  0.4460180000000 1.0
C      1  0.5469030000000  0.4972920000000  0.5634230000000 1.0
C      1  0.4900390000000  0.4366970000000  0.5011660000000 1.0
C      1  0.4836000000000  0.4818730000000  0.4848540000000 1.0
C      1  0.4809910000000  0.5833600000000  0.4899210000000 1.0
C      1  0.5185000000000  0.4377840000000  0.5468950000000 1.0
END
