TITL C-4164235-1454-176 -26.596403343145 125000 -16146.6055275955 0 0 108 (C1) n - 1
REM
REM in /home/nfs/bkarasulu/CARBON/AIRSS/Generating-Clusters/ReaxFF-fromJPCA2015/Units_Real/with-SteepDescent/Only-C1/SD-CG/Try1-3A/FIRE-CG
REM
REM
REM
REM
REM
REM ./C.cell (11c1c37f851c82e70ff6c80c92926a4b)
REM
REM compiler GCC version 9.2.1 20190827 (Red Hat 9.2.1-1)
REM options -cpp -mtune=generic -march=x86-64 -g -O0 -fpre-include=/usr/include/finclude/math-vector-fortran.h
REM seed 1667822322 940697119 1732085489 -1908260626 1463115920 682069355 1602092160 1883373204 -140078304 -1354702362 -183116877 -2075693330 -2109676277 1728319795 2082320956 -1524244349 622203620 1601209999 -1032532541 1261255585 1926624698 -2079885003 2026719038 1391943259 1420676653 -1761111316 1096738622 -152394397 821850781 -1239483843 251796008 1449273086 -1871642199
REM
CELL 1.54180   50.00000   50.00000   50.00000   90.00000   90.00000   90.00000
LATT -1
SFAC C  
C      1  0.4186330000000  0.5418420000000  0.5422820000000 1.0
C      1  0.4948670000000  0.5150620000000  0.4648330000000 1.0
C      1  0.5382990000000  0.4463800000000  0.4494840000000 1.0
C      1  0.4667390000000  0.4878640000000  0.5792280000000 1.0
C      1  0.4161870000000  0.4698050000000  0.4836780000000 1.0
C      1  0.4727050000000  0.4185590000000  0.5578700000000 1.0
C      1  0.4628020000000  0.5288680000000  0.5253010000000 1.0
C      1  0.4276580000000  0.5154070000000  0.4502360000000 1.0
C      1  0.5944370000000  0.4953890000000  0.5358970000000 1.0
C      1  0.4891640000000  0.5180300000000  0.5216850000000 1.0
C      1  0.4672780000000  0.5138680000000  0.4750140000000 1.0
C      1  0.5021870000000  0.5979390000000  0.4856220000000 1.0
C      1  0.4972380000000  0.4087910000000  0.4631620000000 1.0
C      1  0.5345540000000  0.5858400000000  0.4456490000000 1.0
C      1  0.4372080000000  0.4428090000000  0.4788870000000 1.0
C      1  0.4604740000000  0.4896070000000  0.4181650000000 1.0
C      1  0.4823020000000  0.4453710000000  0.4410340000000 1.0
C      1  0.5332850000000  0.4610560000000  0.4757260000000 1.0
C      1  0.4433750000000  0.5319020000000  0.4699550000000 1.0
C      1  0.4564700000000  0.5129690000000  0.5698330000000 1.0
C      1  0.5156590000000  0.5030150000000  0.5757790000000 1.0
C      1  0.4334560000000  0.5584550000000  0.4914550000000 1.0
C      1  0.4845380000000  0.5585480000000  0.4617980000000 1.0
C      1  0.5112080000000  0.5897850000000  0.5341530000000 1.0
C      1  0.5388610000000  0.4873860000000  0.5124850000000 1.0
C      1  0.4757470000000  0.5342330000000  0.5752260000000 1.0
C      1  0.5340310000000  0.4923080000000  0.4173410000000 1.0
C      1  0.5383130000000  0.5447420000000  0.5035160000000 1.0
C      1  0.5881660000000  0.4823440000000  0.5613680000000 1.0
C      1  0.5522190000000  0.5550340000000  0.5663880000000 1.0
C      1  0.5002230000000  0.4543700000000  0.5763420000000 1.0
C      1  0.5120840000000  0.4815420000000  0.5085180000000 1.0
C      1  0.5416580000000  0.4959550000000  0.5633330000000 1.0
C      1  0.5082910000000  0.5398290000000  0.5101510000000 1.0
C      1  0.4722140000000  0.4180840000000  0.5074060000000 1.0
C      1  0.5971720000000  0.4846020000000  0.4825200000000 1.0
C      1  0.4428820000000  0.5402340000000  0.4437470000000 1.0
C      1  0.5449430000000  0.5677820000000  0.4862690000000 1.0
C      1  0.4735610000000  0.5597150000000  0.5644060000000 1.0
C      1  0.5225380000000  0.5504040000000  0.5596410000000 1.0
C      1  0.4698490000000  0.5483570000000  0.4376010000000 1.0
C      1  0.5783320000000  0.4628910000000  0.4763830000000 1.0
C      1  0.5906040000000  0.5093070000000  0.4674270000000 1.0
C      1  0.4436910000000  0.4289250000000  0.5046250000000 1.0
C      1  0.4741010000000  0.4165510000000  0.4457140000000 1.0
C      1  0.4536360000000  0.5490110000000  0.5092680000000 1.0
C      1  0.5475900000000  0.5036380000000  0.5355860000000 1.0
C      1  0.4894890000000  0.4899970000000  0.5213440000000 1.0
C      1  0.5729130000000  0.5107280000000  0.4458520000000 1.0
C      1  0.5009490000000  0.6069760000000  0.5131300000000 1.0
C      1  0.5668300000000  0.4503440000000  0.4538390000000 1.0
C      1  0.4145610000000  0.4961570000000  0.4758890000000 1.0
C      1  0.5650070000000  0.5417380000000  0.5539410000000 1.0
C      1  0.5240950000000  0.4767850000000  0.4398690000000 1.0
C      1  0.4481200000000  0.4253120000000  0.4562970000000 1.0
C      1  0.4125710000000  0.4905880000000  0.5044810000000 1.0
C      1  0.4231490000000  0.4491930000000  0.5446410000000 1.0
C      1  0.5790440000000  0.5344060000000  0.4806720000000 1.0
C      1  0.5657470000000  0.5573080000000  0.4680910000000 1.0
C      1  0.4441500000000  0.4487490000000  0.5250370000000 1.0
C      1  0.4821960000000  0.5093740000000  0.4075330000000 1.0
C      1  0.4539400000000  0.4620820000000  0.5783300000000 1.0
C      1  0.4273860000000  0.4598000000000  0.5699110000000 1.0
C      1  0.4996390000000  0.5405020000000  0.4780290000000 1.0
C      1  0.5174740000000  0.5748590000000  0.4262680000000 1.0
C      1  0.4748150000000  0.5821530000000  0.5529800000000 1.0
C      1  0.5543820000000  0.5148120000000  0.4256670000000 1.0
C      1  0.4138150000000  0.5553170000000  0.5186240000000 1.0
C      1  0.4741510000000  0.4409750000000  0.5754610000000 1.0
C      1  0.5611510000000  0.4406890000000  0.5315500000000 1.0
C      1  0.4867370000000  0.5368880000000  0.4168040000000 1.0
C      1  0.5519760000000  0.4723810000000  0.4909240000000 1.0
C      1  0.4508600000000  0.5841010000000  0.4870500000000 1.0
C      1  0.5085600000000  0.4701650000000  0.4825160000000 1.0
C      1  0.5108320000000  0.4903820000000  0.4598960000000 1.0
C      1  0.4703960000000  0.4667510000000  0.5165820000000 1.0
C      1  0.4434680000000  0.4926540000000  0.4418630000000 1.0
C      1  0.5626360000000  0.5288960000000  0.5042660000000 1.0
C      1  0.5129040000000  0.5602610000000  0.5336400000000 1.0
C      1  0.4957400000000  0.4824930000000  0.5809500000000 1.0
C      1  0.5421360000000  0.5416240000000  0.4253490000000 1.0
C      1  0.5602930000000  0.4739890000000  0.5698840000000 1.0
C      1  0.5086790000000  0.5006930000000  0.4092630000000 1.0
C      1  0.5731950000000  0.5194860000000  0.5319430000000 1.0
C      1  0.4863850000000  0.4232740000000  0.4830350000000 1.0
C      1  0.4773650000000  0.5850540000000  0.4746090000000 1.0
C      1  0.5540200000000  0.5630340000000  0.4416180000000 1.0
C      1  0.4135490000000  0.4753330000000  0.5510500000000 1.0
C      1  0.4861920000000  0.4420170000000  0.5211610000000 1.0
C      1  0.4227530000000  0.4947580000000  0.5319120000000 1.0
C      1  0.4617560000000  0.4646020000000  0.4840890000000 1.0
C      1  0.4391150000000  0.5167630000000  0.5448200000000 1.0
C      1  0.4838960000000  0.6026260000000  0.5374550000000 1.0
C      1  0.5499640000000  0.4492920000000  0.5578490000000 1.0
C      1  0.5276960000000  0.5884890000000  0.4746500000000 1.0
C      1  0.5131820000000  0.4368480000000  0.5311960000000 1.0
C      1  0.4849330000000  0.4496500000000  0.4731560000000 1.0
C      1  0.4728890000000  0.4009500000000  0.5383470000000 1.0
C      1  0.5056510000000  0.5301860000000  0.5731270000000 1.0
C      1  0.5371180000000  0.4277400000000  0.5161820000000 1.0
C      1  0.5240960000000  0.4188060000000  0.4640330000000 1.0
C      1  0.5801510000000  0.4584040000000  0.5217470000000 1.0
C      1  0.4711550000000  0.4658640000000  0.4267580000000 1.0
C      1  0.5982810000000  0.4776610000000  0.5115860000000 1.0
C      1  0.4561490000000  0.4882200000000  0.4679600000000 1.0
C      1  0.5144090000000  0.5496360000000  0.4154240000000 1.0
C      1  0.5212340000000  0.4445570000000  0.5582210000000 1.0
C      1  0.5326520000000  0.4222260000000  0.4896610000000 1.0
END
