TITL C-4164233-775-488 9.61559249058497 125000 -23080.7646960715 0 0 156 (C1) n - 1
REM
REM in /home/nfs/bkarasulu/CARBON/AIRSS/Generating-Clusters/ReaxFF-fromJPCA2015/Units_Real/with-SteepDescent/Only-C1/SD-CG/Try1-3A/FIRE-CG
REM
REM
REM
REM
REM
REM ./C.cell (11c1c37f851c82e70ff6c80c92926a4b)
REM
REM compiler GCC version 9.2.1 20190827 (Red Hat 9.2.1-1)
REM options -cpp -mtune=generic -march=x86-64 -g -O0 -fpre-include=/usr/include/finclude/math-vector-fortran.h
REM seed -1149552045 1386008677 709794060 -892756119 37920543 1799245965 628718419 1279287137 -982028718 1647357050 191569896 1289599121 963179027 1687970070 968371173 75722525 -978928629 -1216254222 -85096818 1657147876 37814609 -1610956958 620804622 -542596481 -1761142375 950217299 -911181340 -854596128 -1984776712 2010995335 1541585864 1409325971 -882365640
REM
CELL 1.54180   50.00000   50.00000   50.00000   90.00000   90.00000   90.00000
LATT -1
SFAC C  
C      1  0.4384030000000  0.5628630000000  0.5620910000000 1.0
C      1  0.5294670000000  0.5709410000000  0.5471160000000 1.0
C      1  0.5635900000000  0.5306710000000  0.5191880000000 1.0
C      1  0.5734950000000  0.5931990000000  0.5089140000000 1.0
C      1  0.4211490000000  0.5543840000000  0.5365750000000 1.0
C      1  0.5595760000000  0.4737500000000  0.4199740000000 1.0
C      1  0.5418290000000  0.4890270000000  0.4039370000000 1.0
C      1  0.5103170000000  0.5483510000000  0.5379580000000 1.0
C      1  0.5759800000000  0.5129750000000  0.4947060000000 1.0
C      1  0.4828510000000  0.4900820000000  0.5521990000000 1.0
C      1  0.5845220000000  0.4970510000000  0.5537330000000 1.0
C      1  0.5678190000000  0.5429870000000  0.4576550000000 1.0
C      1  0.5463790000000  0.5675550000000  0.4538760000000 1.0
C      1  0.4796010000000  0.5467330000000  0.5386300000000 1.0
C      1  0.5062710000000  0.5989450000000  0.4723100000000 1.0
C      1  0.5920750000000  0.4869110000000  0.4871060000000 1.0
C      1  0.4880020000000  0.4605850000000  0.4451320000000 1.0
C      1  0.4196880000000  0.5672020000000  0.5110330000000 1.0
C      1  0.4663050000000  0.5007460000000  0.5073080000000 1.0
C      1  0.6058940000000  0.4826690000000  0.5453710000000 1.0
C      1  0.5741910000000  0.5694680000000  0.5334470000000 1.0
C      1  0.4901870000000  0.4281210000000  0.5805470000000 1.0
C      1  0.4692730000000  0.5854430000000  0.5038400000000 1.0
C      1  0.4691440000000  0.5344170000000  0.4980260000000 1.0
C      1  0.4519480000000  0.4987080000000  0.5967510000000 1.0
C      1  0.4340540000000  0.4314350000000  0.5639460000000 1.0
C      1  0.6014000000000  0.4586040000000  0.5324490000000 1.0
C      1  0.5556260000000  0.5647550000000  0.5570090000000 1.0
C      1  0.4268560000000  0.5635670000000  0.4848830000000 1.0
C      1  0.4494370000000  0.4127550000000  0.5472830000000 1.0
C      1  0.4180700000000  0.4989740000000  0.5600970000000 1.0
C      1  0.4414310000000  0.5401350000000  0.4925930000000 1.0
C      1  0.4324300000000  0.4825600000000  0.4424890000000 1.0
C      1  0.5235710000000  0.5095320000000  0.5150230000000 1.0
C      1  0.5353070000000  0.4309180000000  0.5258150000000 1.0
C      1  0.4701150000000  0.5502460000000  0.5874240000000 1.0
C      1  0.4643850000000  0.4735700000000  0.5955230000000 1.0
C      1  0.4533390000000  0.4975300000000  0.4611490000000 1.0
C      1  0.4842450000000  0.4796420000000  0.5005050000000 1.0
C      1  0.4780000000000  0.4079110000000  0.4383700000000 1.0
C      1  0.4439840000000  0.4967250000000  0.4903770000000 1.0
C      1  0.4936660000000  0.4757960000000  0.5984730000000 1.0
C      1  0.5103310000000  0.5314130000000  0.5615310000000 1.0
C      1  0.4797780000000  0.4437510000000  0.4662440000000 1.0
C      1  0.5337070000000  0.5867650000000  0.4713630000000 1.0
C      1  0.4547840000000  0.5401900000000  0.4131150000000 1.0
C      1  0.5263860000000  0.5324330000000  0.4809970000000 1.0
C      1  0.5044990000000  0.5031590000000  0.6001590000000 1.0
C      1  0.4624470000000  0.5257740000000  0.5483160000000 1.0
C      1  0.5638220000000  0.4330150000000  0.5257630000000 1.0
C      1  0.4052740000000  0.4786620000000  0.5132420000000 1.0
C      1  0.4119720000000  0.4521240000000  0.5222240000000 1.0
C      1  0.5342620000000  0.5022490000000  0.5987090000000 1.0
C      1  0.5900410000000  0.5406700000000  0.5304370000000 1.0
C      1  0.5034660000000  0.3902630000000  0.4932850000000 1.0
C      1  0.5305860000000  0.5011490000000  0.4338500000000 1.0
C      1  0.4615360000000  0.4659770000000  0.4091130000000 1.0
C      1  0.5043040000000  0.5286880000000  0.3987330000000 1.0
C      1  0.5435280000000  0.5291970000000  0.5915570000000 1.0
C      1  0.5172180000000  0.4260050000000  0.5054280000000 1.0
C      1  0.5068770000000  0.5033820000000  0.5587620000000 1.0
C      1  0.5033610000000  0.5702910000000  0.4406720000000 1.0
C      1  0.5621690000000  0.5403140000000  0.5712580000000 1.0
C      1  0.5057310000000  0.4489020000000  0.5915390000000 1.0
C      1  0.5383430000000  0.4748790000000  0.5375930000000 1.0
C      1  0.5836290000000  0.5271640000000  0.5560800000000 1.0
C      1  0.5227590000000  0.4079740000000  0.4841820000000 1.0
C      1  0.4455890000000  0.5129460000000  0.4089270000000 1.0
C      1  0.4870320000000  0.4205370000000  0.4162890000000 1.0
C      1  0.5320500000000  0.4906520000000  0.5600530000000 1.0
C      1  0.5399270000000  0.4204770000000  0.4640530000000 1.0
C      1  0.5034510000000  0.5114130000000  0.4398600000000 1.0
C      1  0.5987000000000  0.5337740000000  0.4984120000000 1.0
C      1  0.5191030000000  0.5325760000000  0.5098380000000 1.0
C      1  0.4880570000000  0.5633090000000  0.4644220000000 1.0
C      1  0.5009610000000  0.4855790000000  0.4788080000000 1.0
C      1  0.4798660000000  0.6011530000000  0.4551110000000 1.0
C      1  0.5460520000000  0.5942310000000  0.4999930000000 1.0
C      1  0.4413240000000  0.5441540000000  0.5843760000000 1.0
C      1  0.5667540000000  0.4759590000000  0.5419740000000 1.0
C      1  0.4695240000000  0.4015620000000  0.5117410000000 1.0
C      1  0.4872280000000  0.4497390000000  0.4160460000000 1.0
C      1  0.4683510000000  0.5825940000000  0.4737130000000 1.0
C      1  0.5165700000000  0.4562240000000  0.4043110000000 1.0
C      1  0.4127750000000  0.5288470000000  0.5254020000000 1.0
C      1  0.5070680000000  0.4107690000000  0.4316100000000 1.0
C      1  0.4137550000000  0.4482660000000  0.5515840000000 1.0
C      1  0.5883240000000  0.4598050000000  0.4555040000000 1.0
C      1  0.5289880000000  0.4854110000000  0.5091730000000 1.0
C      1  0.5529440000000  0.5196890000000  0.4742570000000 1.0
C      1  0.4805700000000  0.5370790000000  0.4691850000000 1.0
C      1  0.4840750000000  0.5398270000000  0.4164620000000 1.0
C      1  0.4917970000000  0.5316960000000  0.5981170000000 1.0
C      1  0.4386760000000  0.4418440000000  0.4535790000000 1.0
C      1  0.4248340000000  0.5177270000000  0.4959630000000 1.0
C      1  0.4078430000000  0.5052860000000  0.4735030000000 1.0
C      1  0.4222840000000  0.4716800000000  0.5665760000000 1.0
C      1  0.5472730000000  0.4804350000000  0.5823260000000 1.0
C      1  0.5597040000000  0.4381690000000  0.4745310000000 1.0
C      1  0.4666130000000  0.4932050000000  0.4011870000000 1.0
C      1  0.5172150000000  0.5423170000000  0.5885580000000 1.0
C      1  0.5289500000000  0.5418690000000  0.4093350000000 1.0
C      1  0.4652730000000  0.5732340000000  0.5672410000000 1.0
C      1  0.4136510000000  0.5213510000000  0.4496360000000 1.0
C      1  0.4850510000000  0.5702960000000  0.4181140000000 1.0
C      1  0.4612770000000  0.4229760000000  0.4567230000000 1.0
C      1  0.5730010000000  0.5229910000000  0.4344490000000 1.0
C      1  0.4934050000000  0.3879690000000  0.5197720000000 1.0
C      1  0.4233490000000  0.5053770000000  0.4268170000000 1.0
C      1  0.4546590000000  0.5265280000000  0.4559040000000 1.0
C      1  0.5221700000000  0.4503050000000  0.5408320000000 1.0
C      1  0.5614320000000  0.4638840000000  0.4604960000000 1.0
C      1  0.4408430000000  0.4588760000000  0.4284590000000 1.0
C      1  0.5275180000000  0.4784800000000  0.4810320000000 1.0
C      1  0.5305820000000  0.4269160000000  0.4383140000000 1.0
C      1  0.5039560000000  0.5953500000000  0.5264640000000 1.0
C      1  0.5535460000000  0.4529280000000  0.5747680000000 1.0
C      1  0.4415190000000  0.5161200000000  0.5724740000000 1.0
C      1  0.5971110000000  0.4865990000000  0.4576990000000 1.0
C      1  0.5449410000000  0.4903420000000  0.4608120000000 1.0
C      1  0.5733700000000  0.4492080000000  0.5480610000000 1.0
C      1  0.4728000000000  0.4636090000000  0.5510380000000 1.0
C      1  0.5933960000000  0.4623160000000  0.5034650000000 1.0
C      1  0.4864970000000  0.4892940000000  0.4524840000000 1.0
C      1  0.4792570000000  0.5924250000000  0.5466820000000 1.0
C      1  0.5461680000000  0.5248260000000  0.4243210000000 1.0
C      1  0.5745470000000  0.4403710000000  0.5000180000000 1.0
C      1  0.5297640000000  0.5872270000000  0.5253420000000 1.0
C      1  0.5057110000000  0.5276900000000  0.4626130000000 1.0
C      1  0.4071370000000  0.5021910000000  0.5335440000000 1.0
C      1  0.4775250000000  0.4526290000000  0.4940760000000 1.0
C      1  0.4622700000000  0.5006520000000  0.5358710000000 1.0
C      1  0.5389900000000  0.4507330000000  0.4216780000000 1.0
C      1  0.5308420000000  0.4369050000000  0.5804830000000 1.0
C      1  0.4960070000000  0.6001290000000  0.4993320000000 1.0
C      1  0.4645720000000  0.5850030000000  0.4331070000000 1.0
C      1  0.4467210000000  0.4157000000000  0.5168650000000 1.0
C      1  0.4460550000000  0.5618480000000  0.4314260000000 1.0
C      1  0.4323960000000  0.5461440000000  0.4544150000000 1.0
C      1  0.4944340000000  0.5015730000000  0.3934970000000 1.0
C      1  0.5163040000000  0.4819060000000  0.3911800000000 1.0
C      1  0.4936920000000  0.4477960000000  0.5387190000000 1.0
C      1  0.4722170000000  0.5575350000000  0.5140340000000 1.0
C      1  0.4255170000000  0.4509410000000  0.4784880000000 1.0
C      1  0.4509520000000  0.4578590000000  0.5702420000000 1.0
C      1  0.4918110000000  0.4364710000000  0.5123510000000 1.0
C      1  0.4722630000000  0.4168120000000  0.5640500000000 1.0
C      1  0.4088540000000  0.4773190000000  0.4843100000000 1.0
C      1  0.5548490000000  0.5576630000000  0.5142350000000 1.0
C      1  0.5236700000000  0.4094100000000  0.5642460000000 1.0
C      1  0.5783610000000  0.4942700000000  0.4350080000000 1.0
C      1  0.5104490000000  0.3954320000000  0.5450040000000 1.0
C      1  0.4282150000000  0.4368000000000  0.5032350000000 1.0
C      1  0.4590470000000  0.6035710000000  0.5307240000000 1.0
C      1  0.5297360000000  0.5625350000000  0.4309900000000 1.0
C      1  0.5934140000000  0.5490550000000  0.4750900000000 1.0
END
