TITL C-4164232-771-192 28.9172376753233 125000 -27502.4478743841 0 0 185 (C1) n - 1
REM
REM in /home/nfs/bkarasulu/CARBON/AIRSS/Generating-Clusters/ReaxFF-fromJPCA2015/Units_Real/with-SteepDescent/Only-C1/SD-CG/Try1-3A/FIRE-CG
REM
REM
REM
REM
REM
REM ./C.cell (11c1c37f851c82e70ff6c80c92926a4b)
REM
REM compiler GCC version 9.2.1 20190827 (Red Hat 9.2.1-1)
REM options -cpp -mtune=generic -march=x86-64 -g -O0 -fpre-include=/usr/include/finclude/math-vector-fortran.h
REM seed -1861385367 165090540 387637024 316462078 1370261749 -442291648 -40091213 -1392746903 1593097358 -240785562 419185354 1669678032 715837966 -583684483 -124900901 593787352 1770499269 2061742002 -1451069707 602556829 -1792448451 990486030 1224934326 -1047525102 1728166091 -308387127 -1245586602 1269398624 1926643555 1058350864 1629842072 -1782689052 -1865008474
REM
CELL 1.54180   50.00000   50.00000   50.00000   90.00000   90.00000   90.00000
LATT -1
SFAC C  
C      1  0.5334660000000  0.4696780000000  0.5935260000000 1.0
C      1  0.4477830000000  0.4536210000000  0.5521850000000 1.0
C      1  0.5101170000000  0.4433330000000  0.4344510000000 1.0
C      1  0.5033380000000  0.6027190000000  0.4424820000000 1.0
C      1  0.4766370000000  0.3971890000000  0.4116040000000 1.0
C      1  0.5393690000000  0.4835840000000  0.4371660000000 1.0
C      1  0.5753210000000  0.5104030000000  0.4109320000000 1.0
C      1  0.4304990000000  0.5185600000000  0.4635990000000 1.0
C      1  0.4004700000000  0.5073330000000  0.5522350000000 1.0
C      1  0.5360640000000  0.4689000000000  0.5315340000000 1.0
C      1  0.5135400000000  0.3871270000000  0.4939160000000 1.0
C      1  0.5482700000000  0.5429210000000  0.4864710000000 1.0
C      1  0.5612450000000  0.5735040000000  0.4377890000000 1.0
C      1  0.4725860000000  0.5697600000000  0.5933910000000 1.0
C      1  0.4164400000000  0.4961820000000  0.4952880000000 1.0
C      1  0.4616110000000  0.4766410000000  0.5196740000000 1.0
C      1  0.5161310000000  0.4943460000000  0.4937850000000 1.0
C      1  0.5833990000000  0.5299610000000  0.4574920000000 1.0
C      1  0.4222260000000  0.5740600000000  0.4657350000000 1.0
C      1  0.5187410000000  0.5614310000000  0.4499110000000 1.0
C      1  0.4112720000000  0.4330620000000  0.5441820000000 1.0
C      1  0.4405930000000  0.5087620000000  0.5639220000000 1.0
C      1  0.4562020000000  0.4700420000000  0.4114150000000 1.0
C      1  0.5286420000000  0.5086760000000  0.4473100000000 1.0
C      1  0.5703980000000  0.5321840000000  0.5577800000000 1.0
C      1  0.3835450000000  0.5302770000000  0.4599270000000 1.0
C      1  0.5246280000000  0.4466290000000  0.4910130000000 1.0
C      1  0.4190160000000  0.4553680000000  0.4956660000000 1.0
C      1  0.5493160000000  0.5593870000000  0.4161850000000 1.0
C      1  0.5090020000000  0.4199800000000  0.5863950000000 1.0
C      1  0.5540430000000  0.4726140000000  0.4591620000000 1.0
C      1  0.5745280000000  0.5743070000000  0.5705340000000 1.0
C      1  0.4533290000000  0.5277060000000  0.5061370000000 1.0
C      1  0.4117850000000  0.4374430000000  0.5714820000000 1.0
C      1  0.4088250000000  0.4806260000000  0.5393870000000 1.0
C      1  0.5083350000000  0.5082870000000  0.5380260000000 1.0
C      1  0.5930070000000  0.4049720000000  0.5522420000000 1.0
C      1  0.4399690000000  0.4545020000000  0.4267710000000 1.0
C      1  0.4381390000000  0.4280400000000  0.4438920000000 1.0
C      1  0.5682350000000  0.4240830000000  0.4767340000000 1.0
C      1  0.5738600000000  0.5893010000000  0.4924120000000 1.0
C      1  0.5873150000000  0.4334070000000  0.4962370000000 1.0
C      1  0.5283270000000  0.4947790000000  0.5795150000000 1.0
C      1  0.4803790000000  0.5993040000000  0.5049940000000 1.0
C      1  0.4985580000000  0.5318750000000  0.6101960000000 1.0
C      1  0.4184760000000  0.5258030000000  0.4176380000000 1.0
C      1  0.5335670000000  0.4034930000000  0.4556150000000 1.0
C      1  0.5152680000000  0.5399200000000  0.4932970000000 1.0
C      1  0.4106680000000  0.4281260000000  0.4529520000000 1.0
C      1  0.5744830000000  0.3933690000000  0.5394540000000 1.0
C      1  0.4377420000000  0.4340080000000  0.5320780000000 1.0
C      1  0.4646440000000  0.3956910000000  0.5113930000000 1.0
C      1  0.5417920000000  0.3880610000000  0.4987900000000 1.0
C      1  0.5905730000000  0.4298600000000  0.5459930000000 1.0
C      1  0.5694350000000  0.4579040000000  0.4133340000000 1.0
C      1  0.4285760000000  0.5532710000000  0.4172060000000 1.0
C      1  0.5871380000000  0.5798280000000  0.4695510000000 1.0
C      1  0.5884670000000  0.5141630000000  0.5579630000000 1.0
C      1  0.4083190000000  0.5219590000000  0.4464510000000 1.0
C      1  0.4622490000000  0.5816180000000  0.4645050000000 1.0
C      1  0.6126830000000  0.5411090000000  0.5082320000000 1.0
C      1  0.4586950000000  0.4146950000000  0.4636800000000 1.0
C      1  0.4252040000000  0.5212220000000  0.4940640000000 1.0
C      1  0.4151960000000  0.5053290000000  0.5783110000000 1.0
C      1  0.5255330000000  0.5544790000000  0.5386940000000 1.0
C      1  0.5081750000000  0.4503070000000  0.5827780000000 1.0
C      1  0.4719950000000  0.5274930000000  0.5987730000000 1.0
C      1  0.5049410000000  0.4932700000000  0.4669670000000 1.0
C      1  0.5251870000000  0.4901850000000  0.5503740000000 1.0
C      1  0.5950840000000  0.5238340000000  0.4896990000000 1.0
C      1  0.4231890000000  0.5748760000000  0.4375530000000 1.0
C      1  0.4408310000000  0.4394510000000  0.5768350000000 1.0
C      1  0.5195650000000  0.6244160000000  0.5120370000000 1.0
C      1  0.5566260000000  0.4388140000000  0.4249180000000 1.0
C      1  0.5093480000000  0.5499530000000  0.5628950000000 1.0
C      1  0.5653840000000  0.4832210000000  0.4020730000000 1.0
C      1  0.4597150000000  0.5543670000000  0.5038170000000 1.0
C      1  0.5810320000000  0.4485160000000  0.5251750000000 1.0
C      1  0.4594310000000  0.4433790000000  0.5995650000000 1.0
C      1  0.4431020000000  0.4814760000000  0.5439260000000 1.0
C      1  0.4682160000000  0.5386400000000  0.4391110000000 1.0
C      1  0.5234530000000  0.5934490000000  0.5759220000000 1.0
C      1  0.4822710000000  0.4516200000000  0.4682150000000 1.0
C      1  0.4400350000000  0.5585790000000  0.5692750000000 1.0
C      1  0.4590240000000  0.5826350000000  0.5733920000000 1.0
C      1  0.4636060000000  0.6067830000000  0.5278190000000 1.0
C      1  0.4712910000000  0.3971730000000  0.5515120000000 1.0
C      1  0.6088210000000  0.5593780000000  0.5305140000000 1.0
C      1  0.5615460000000  0.4930790000000  0.4795720000000 1.0
C      1  0.4883580000000  0.5065680000000  0.3862560000000 1.0
C      1  0.5991180000000  0.4506600000000  0.4796310000000 1.0
C      1  0.4789630000000  0.5572350000000  0.4595550000000 1.0
C      1  0.4892740000000  0.5343610000000  0.3839550000000 1.0
C      1  0.5711500000000  0.5338540000000  0.5048320000000 1.0
C      1  0.4747040000000  0.4822190000000  0.5790210000000 1.0
C      1  0.5498690000000  0.5732690000000  0.4853060000000 1.0
C      1  0.4846050000000  0.5088210000000  0.5794920000000 1.0
C      1  0.5216420000000  0.5160950000000  0.6009160000000 1.0
C      1  0.4176050000000  0.5573200000000  0.5492270000000 1.0
C      1  0.5487300000000  0.4801660000000  0.6148950000000 1.0
C      1  0.4746250000000  0.6004410000000  0.5542940000000 1.0
C      1  0.5154670000000  0.5669640000000  0.5859050000000 1.0
C      1  0.5832770000000  0.5918410000000  0.5217380000000 1.0
C      1  0.5644280000000  0.5299560000000  0.6005580000000 1.0
C      1  0.5532110000000  0.4461810000000  0.5370610000000 1.0
C      1  0.4996890000000  0.4628950000000  0.4541680000000 1.0
C      1  0.5178110000000  0.5172160000000  0.4201950000000 1.0
C      1  0.3787830000000  0.5346300000000  0.4893490000000 1.0
C      1  0.4496910000000  0.5901990000000  0.4395830000000 1.0
C      1  0.4816990000000  0.4180320000000  0.3946300000000 1.0
C      1  0.4393490000000  0.5946490000000  0.5164270000000 1.0
C      1  0.3948040000000  0.4785410000000  0.4313840000000 1.0
C      1  0.5173410000000  0.4065840000000  0.5625610000000 1.0
C      1  0.5027600000000  0.6066880000000  0.5571100000000 1.0
C      1  0.4601600000000  0.4938360000000  0.3983370000000 1.0
C      1  0.5132850000000  0.6174270000000  0.5333130000000 1.0
C      1  0.4026120000000  0.5328180000000  0.5383490000000 1.0
C      1  0.5921800000000  0.5795760000000  0.5458760000000 1.0
C      1  0.5614580000000  0.5347150000000  0.4118440000000 1.0
C      1  0.5844650000000  0.5604290000000  0.4491910000000 1.0
C      1  0.4063240000000  0.4314470000000  0.4841770000000 1.0
C      1  0.5468800000000  0.4464330000000  0.4735440000000 1.0
C      1  0.5931430000000  0.5110840000000  0.4352910000000 1.0
C      1  0.5924530000000  0.4953770000000  0.5414550000000 1.0
C      1  0.5539000000000  0.5148810000000  0.5184680000000 1.0
C      1  0.5477100000000  0.5128780000000  0.6142840000000 1.0
C      1  0.4178890000000  0.4728100000000  0.4258660000000 1.0
C      1  0.4233510000000  0.4102920000000  0.4894390000000 1.0
C      1  0.5100430000000  0.4510360000000  0.5185570000000 1.0
C      1  0.5931670000000  0.4789690000000  0.5206510000000 1.0
C      1  0.4416540000000  0.5774770000000  0.4872630000000 1.0
C      1  0.5210810000000  0.4520750000000  0.3889800000000 1.0
C      1  0.4475450000000  0.3971230000000  0.4879350000000 1.0
C      1  0.5531220000000  0.4004420000000  0.4756770000000 1.0
C      1  0.5462200000000  0.5335460000000  0.5391860000000 1.0
C      1  0.5795820000000  0.5457130000000  0.5827740000000 1.0
C      1  0.5017900000000  0.4415500000000  0.4056890000000 1.0
C      1  0.5165060000000  0.6071520000000  0.4647720000000 1.0
C      1  0.4507050000000  0.4046110000000  0.5349820000000 1.0
C      1  0.5378080000000  0.5823860000000  0.4597320000000 1.0
C      1  0.5037410000000  0.5492050000000  0.4684160000000 1.0
C      1  0.5353150000000  0.4189410000000  0.5386390000000 1.0
C      1  0.4067040000000  0.4763850000000  0.5096950000000 1.0
C      1  0.5026630000000  0.5116520000000  0.5095390000000 1.0
C      1  0.4886310000000  0.4642980000000  0.5606650000000 1.0
C      1  0.5926500000000  0.4917830000000  0.4934630000000 1.0
C      1  0.4643540000000  0.4399870000000  0.4826440000000 1.0
C      1  0.5083170000000  0.3939180000000  0.4662520000000 1.0
C      1  0.5420340000000  0.4909300000000  0.5041260000000 1.0
C      1  0.6086400000000  0.4758160000000  0.4726390000000 1.0
C      1  0.5500820000000  0.3945770000000  0.5261650000000 1.0
C      1  0.5343670000000  0.4258340000000  0.4364540000000 1.0
C      1  0.4954960000000  0.5615620000000  0.6080460000000 1.0
C      1  0.4576380000000  0.5542350000000  0.4167410000000 1.0
C      1  0.4275560000000  0.5763250000000  0.5324290000000 1.0
C      1  0.4876640000000  0.4358800000000  0.5996110000000 1.0
C      1  0.4966890000000  0.3996330000000  0.5155470000000 1.0
C      1  0.4821700000000  0.3977790000000  0.4527900000000 1.0
C      1  0.4518530000000  0.5330420000000  0.5760020000000 1.0
C      1  0.5349590000000  0.4782520000000  0.4039890000000 1.0
C      1  0.4717250000000  0.5046840000000  0.5018710000000 1.0
C      1  0.5030040000000  0.5401850000000  0.4077060000000 1.0
C      1  0.4007200000000  0.5341150000000  0.5090720000000 1.0
C      1  0.4975150000000  0.5241110000000  0.5594310000000 1.0
C      1  0.5145940000000  0.4996500000000  0.3981840000000 1.0
C      1  0.4468990000000  0.4523910000000  0.5041770000000 1.0
C      1  0.5555650000000  0.5204160000000  0.4652920000000 1.0
C      1  0.5164040000000  0.5650100000000  0.4200710000000 1.0
C      1  0.4736170000000  0.3763550000000  0.4324920000000 1.0
C      1  0.4855840000000  0.4643900000000  0.5328200000000 1.0
C      1  0.4677600000000  0.5821150000000  0.4179140000000 1.0
C      1  0.4367480000000  0.5063670000000  0.4078680000000 1.0
C      1  0.4270500000000  0.4848140000000  0.5967330000000 1.0
C      1  0.4772770000000  0.5032410000000  0.4723810000000 1.0
C      1  0.4542240000000  0.4727630000000  0.5994510000000 1.0
C      1  0.4828750000000  0.5702160000000  0.5107510000000 1.0
C      1  0.4583810000000  0.5152190000000  0.4540620000000 1.0
C      1  0.5127220000000  0.4234730000000  0.5218290000000 1.0
C      1  0.5100340000000  0.5593170000000  0.5148620000000 1.0
C      1  0.4960770000000  0.5891870000000  0.4197480000000 1.0
C      1  0.5499150000000  0.5856730000000  0.5720130000000 1.0
C      1  0.4977450000000  0.3920520000000  0.5477670000000 1.0
C      1  0.3989590000000  0.4556000000000  0.5525710000000 1.0
C      1  0.6079670000000  0.4879430000000  0.4448440000000 1.0
C      1  0.5040530000000  0.6135390000000  0.4919620000000 1.0
END
