TITL C-4164245-3996-323 2.42077956509883 125000 -14938.8205694495 0 0 101 (C1) n - 1
REM
REM in /home/nfs/bkarasulu/CARBON/AIRSS/Generating-Clusters/ReaxFF-fromJPCA2015/Units_Real/with-SteepDescent/Only-C1/SD-CG/Try1-3A/FIRE-CG
REM
REM
REM
REM
REM
REM ./C.cell (11c1c37f851c82e70ff6c80c92926a4b)
REM
REM compiler GCC version 9.2.1 20190827 (Red Hat 9.2.1-1)
REM options -cpp -mtune=generic -march=x86-64 -g -O0 -fpre-include=/usr/include/finclude/math-vector-fortran.h
REM seed 1252368446 -1281919325 -1942963841 832313119 -1145222278 -506370087 999216825 -1001264544 1221985062 -1743362572 -466912621 953465868 -1729573544 560566249 -1049767736 1767296265 -835930699 969096587 -1425922826 45009025 -140107574 -1995252003 -1318046773 1731490705 -912313381 1155597879 -310696005 -1920250828 557554071 -165305846 1866870642 1403021136 1163061842
REM
CELL 1.54180   50.00000   50.00000   50.00000   90.00000   90.00000   90.00000
LATT -1
SFAC C  
C      1  0.4279430000000  0.4927920000000  0.4767320000000 1.0
C      1  0.5600730000000  0.4504090000000  0.5058570000000 1.0
C      1  0.5129320000000  0.5418910000000  0.4370930000000 1.0
C      1  0.5321100000000  0.5808770000000  0.5501910000000 1.0
C      1  0.4763930000000  0.4975040000000  0.5835990000000 1.0
C      1  0.4982110000000  0.5463890000000  0.5720740000000 1.0
C      1  0.4352500000000  0.4862190000000  0.5509670000000 1.0
C      1  0.5227640000000  0.5683010000000  0.4758510000000 1.0
C      1  0.4074160000000  0.5009400000000  0.4962770000000 1.0
C      1  0.4708500000000  0.5249040000000  0.4873170000000 1.0
C      1  0.4981790000000  0.4555600000000  0.5700150000000 1.0
C      1  0.5522260000000  0.4887910000000  0.4165930000000 1.0
C      1  0.4852110000000  0.5458380000000  0.4444710000000 1.0
C      1  0.4912500000000  0.4585530000000  0.4096100000000 1.0
C      1  0.4483920000000  0.5191150000000  0.4677120000000 1.0
C      1  0.4883330000000  0.4294400000000  0.5320810000000 1.0
C      1  0.4961190000000  0.5055750000000  0.4061610000000 1.0
C      1  0.4729040000000  0.5181180000000  0.4453420000000 1.0
C      1  0.4924040000000  0.5685420000000  0.5507720000000 1.0
C      1  0.3998540000000  0.5092260000000  0.5210700000000 1.0
C      1  0.5647920000000  0.4746050000000  0.5552320000000 1.0
C      1  0.5135940000000  0.4464030000000  0.5453030000000 1.0
C      1  0.5793240000000  0.5133350000000  0.5456760000000 1.0
C      1  0.4977220000000  0.4963540000000  0.4531150000000 1.0
C      1  0.5594730000000  0.5674800000000  0.5155330000000 1.0
C      1  0.5466050000000  0.5241940000000  0.5711580000000 1.0
C      1  0.4693560000000  0.4539680000000  0.5671250000000 1.0
C      1  0.4866910000000  0.4660870000000  0.5129600000000 1.0
C      1  0.5680010000000  0.5010000000000  0.5674310000000 1.0
C      1  0.5207170000000  0.4915630000000  0.4698050000000 1.0
C      1  0.5389550000000  0.5163730000000  0.5011640000000 1.0
C      1  0.4276610000000  0.5437640000000  0.5030270000000 1.0
C      1  0.5484870000000  0.4864870000000  0.5343240000000 1.0
C      1  0.4909060000000  0.5080570000000  0.4924870000000 1.0
C      1  0.4424680000000  0.5534130000000  0.5457410000000 1.0
C      1  0.5469870000000  0.5742380000000  0.4571280000000 1.0
C      1  0.5012630000000  0.4835410000000  0.5767320000000 1.0
C      1  0.4562520000000  0.4801840000000  0.5707750000000 1.0
C      1  0.5173880000000  0.5239270000000  0.4145860000000 1.0
C      1  0.4660410000000  0.5693450000000  0.5381860000000 1.0
C      1  0.4628600000000  0.4357040000000  0.5448120000000 1.0
C      1  0.5227970000000  0.4749200000000  0.5316700000000 1.0
C      1  0.5071220000000  0.4914490000000  0.5488140000000 1.0
C      1  0.5127830000000  0.4231270000000  0.4912390000000 1.0
C      1  0.5463690000000  0.5274050000000  0.4766870000000 1.0
C      1  0.5196770000000  0.5308110000000  0.5770750000000 1.0
C      1  0.4423440000000  0.5297360000000  0.5266400000000 1.0
C      1  0.5462620000000  0.5419380000000  0.5478440000000 1.0
C      1  0.5611300000000  0.5230480000000  0.4396260000000 1.0
C      1  0.4430230000000  0.4821610000000  0.5012400000000 1.0
C      1  0.5634890000000  0.4939310000000  0.4431760000000 1.0
C      1  0.5086170000000  0.4527320000000  0.4976580000000 1.0
C      1  0.4916410000000  0.5643390000000  0.4662120000000 1.0
C      1  0.4316470000000  0.4645780000000  0.4606870000000 1.0
C      1  0.4551040000000  0.4533520000000  0.4463080000000 1.0
C      1  0.5446510000000  0.4449750000000  0.4620120000000 1.0
C      1  0.4391330000000  0.5684900000000  0.4932170000000 1.0
C      1  0.5775820000000  0.5469170000000  0.5052090000000 1.0
C      1  0.5180760000000  0.4469880000000  0.4182650000000 1.0
C      1  0.5496510000000  0.4759670000000  0.4654730000000 1.0
C      1  0.4337500000000  0.4693190000000  0.5271080000000 1.0
C      1  0.5725560000000  0.5375650000000  0.4771350000000 1.0
C      1  0.5437820000000  0.4331700000000  0.4883150000000 1.0
C      1  0.4224460000000  0.5124800000000  0.5449760000000 1.0
C      1  0.4397380000000  0.4410140000000  0.5274490000000 1.0
C      1  0.5249420000000  0.5404570000000  0.4649080000000 1.0
C      1  0.4640190000000  0.5726890000000  0.5085930000000 1.0
C      1  0.4983800000000  0.5297420000000  0.5271990000000 1.0
C      1  0.4849890000000  0.4912570000000  0.5298220000000 1.0
C      1  0.4298930000000  0.4433990000000  0.4784170000000 1.0
C      1  0.5417980000000  0.4329100000000  0.5475730000000 1.0
C      1  0.4683370000000  0.4733090000000  0.4919640000000 1.0
C      1  0.4641710000000  0.4204710000000  0.4874770000000 1.0
C      1  0.5659300000000  0.5520080000000  0.4523810000000 1.0
C      1  0.5623370000000  0.4989960000000  0.5103080000000 1.0
C      1  0.5148810000000  0.4963410000000  0.4981920000000 1.0
C      1  0.5465180000000  0.5180420000000  0.4141860000000 1.0
C      1  0.4991700000000  0.4263660000000  0.4601690000000 1.0
C      1  0.5243560000000  0.4343040000000  0.4438180000000 1.0
C      1  0.4343750000000  0.5440910000000  0.4753360000000 1.0
C      1  0.4787610000000  0.5277030000000  0.5868510000000 1.0
C      1  0.4385070000000  0.4281000000000  0.5005890000000 1.0
C      1  0.4518380000000  0.5319050000000  0.5809020000000 1.0
C      1  0.5300470000000  0.5678290000000  0.5093650000000 1.0
C      1  0.4714210000000  0.4995470000000  0.4214630000000 1.0
C      1  0.5059910000000  0.4800420000000  0.3954720000000 1.0
C      1  0.5641680000000  0.4746110000000  0.4918770000000 1.0
C      1  0.4878730000000  0.4169790000000  0.5062380000000 1.0
C      1  0.4688570000000  0.4306640000000  0.4605120000000 1.0
C      1  0.5259840000000  0.5380170000000  0.5232880000000 1.0
C      1  0.4829200000000  0.4753400000000  0.4666770000000 1.0
C      1  0.4790600000000  0.5547700000000  0.4907670000000 1.0
C      1  0.5115060000000  0.5805760000000  0.5317430000000 1.0
C      1  0.5025650000000  0.4555630000000  0.4695960000000 1.0
C      1  0.5634850000000  0.4487860000000  0.5372950000000 1.0
C      1  0.4692790000000  0.4698200000000  0.4251650000000 1.0
C      1  0.4290320000000  0.5365580000000  0.5658130000000 1.0
C      1  0.4740270000000  0.5185100000000  0.5291310000000 1.0
C      1  0.5319780000000  0.4697890000000  0.4059560000000 1.0
C      1  0.5575940000000  0.5692010000000  0.5452330000000 1.0
C      1  0.5832870000000  0.5218920000000  0.5196010000000 1.0
END
