TITL C-4164235-1454-29 -2.15744007794623 125000 -15544.7467002368 0 0 106 (C1) n - 1
REM
REM in /home/nfs/bkarasulu/CARBON/AIRSS/Generating-Clusters/ReaxFF-fromJPCA2015/Units_Real/with-SteepDescent/Only-C1/SD-CG/Try1-3A/FIRE-CG
REM
REM
REM
REM
REM
REM ./C.cell (11c1c37f851c82e70ff6c80c92926a4b)
REM
REM compiler GCC version 9.2.1 20190827 (Red Hat 9.2.1-1)
REM options -cpp -mtune=generic -march=x86-64 -g -O0 -fpre-include=/usr/include/finclude/math-vector-fortran.h
REM seed -2015515956 2037887581 -215915855 1115525348 85860384 154397093 12550984 1337158829 -52685895 -1164290961 -899197653 1264718560 -775879449 973941085 -53440645 820428863 -128239143 -1705140114 -1144001711 -1906099140 -1566484298 -600828411 -1967934581 -998350349 920738359 -1373045034 1625019129 1001320407 -1752945036 -861649566 1082387422 89767014 -862836195
REM
CELL 1.54180   50.00000   50.00000   50.00000   90.00000   90.00000   90.00000
LATT -1
SFAC C  
C      1  0.5039100000000  0.5381480000000  0.4203800000000 1.0
C      1  0.5120040000000  0.5812600000000  0.4862800000000 1.0
C      1  0.4178310000000  0.5237140000000  0.4658280000000 1.0
C      1  0.5311310000000  0.5605830000000  0.5031470000000 1.0
C      1  0.5042600000000  0.4569920000000  0.5242040000000 1.0
C      1  0.4563840000000  0.5002930000000  0.5755180000000 1.0
C      1  0.4587020000000  0.5707980000000  0.4775660000000 1.0
C      1  0.4860840000000  0.4452150000000  0.4200670000000 1.0
C      1  0.4834140000000  0.4900000000000  0.5831100000000 1.0
C      1  0.5143200000000  0.4426210000000  0.4269230000000 1.0
C      1  0.5126540000000  0.4964890000000  0.5851190000000 1.0
C      1  0.5061780000000  0.5093410000000  0.4106460000000 1.0
C      1  0.5217540000000  0.4728000000000  0.5127060000000 1.0
C      1  0.5393810000000  0.5708240000000  0.5313760000000 1.0
C      1  0.5508370000000  0.5556980000000  0.4420420000000 1.0
C      1  0.5130450000000  0.4672320000000  0.4852490000000 1.0
C      1  0.5279950000000  0.4931500000000  0.4279180000000 1.0
C      1  0.5254160000000  0.6010910000000  0.4675060000000 1.0
C      1  0.5246150000000  0.5773410000000  0.5554440000000 1.0
C      1  0.5252540000000  0.5027420000000  0.4570740000000 1.0
C      1  0.4781720000000  0.4917880000000  0.5051960000000 1.0
C      1  0.5350290000000  0.4618960000000  0.4325360000000 1.0
C      1  0.4913010000000  0.4128990000000  0.5429860000000 1.0
C      1  0.4375120000000  0.4860690000000  0.5591520000000 1.0
C      1  0.4715720000000  0.4706270000000  0.4154570000000 1.0
C      1  0.4972210000000  0.5680100000000  0.5607790000000 1.0
C      1  0.4819950000000  0.4696310000000  0.4841360000000 1.0
C      1  0.4351520000000  0.4464160000000  0.4638780000000 1.0
C      1  0.4974440000000  0.5114430000000  0.5458970000000 1.0
C      1  0.5479780000000  0.4988140000000  0.4731210000000 1.0
C      1  0.4801600000000  0.5172790000000  0.4692730000000 1.0
C      1  0.5412720000000  0.4978970000000  0.5243080000000 1.0
C      1  0.5296690000000  0.4226650000000  0.4918780000000 1.0
C      1  0.4802510000000  0.5393500000000  0.5114720000000 1.0
C      1  0.5406870000000  0.5308610000000  0.5635590000000 1.0
C      1  0.4790090000000  0.5581740000000  0.5347240000000 1.0
C      1  0.5394990000000  0.5780730000000  0.4547880000000 1.0
C      1  0.4688490000000  0.5808370000000  0.5165560000000 1.0
C      1  0.4889170000000  0.4497730000000  0.5754790000000 1.0
C      1  0.4169320000000  0.4701550000000  0.4688630000000 1.0
C      1  0.4554560000000  0.4288330000000  0.4755010000000 1.0
C      1  0.5029950000000  0.4110460000000  0.4908280000000 1.0
C      1  0.4835920000000  0.4201990000000  0.4688080000000 1.0
C      1  0.4441680000000  0.5722130000000  0.5044660000000 1.0
C      1  0.4775740000000  0.5325320000000  0.5526170000000 1.0
C      1  0.4022230000000  0.5208520000000  0.5467030000000 1.0
C      1  0.4820410000000  0.5488030000000  0.4362810000000 1.0
C      1  0.4924830000000  0.4272240000000  0.4424270000000 1.0
C      1  0.5511460000000  0.4276230000000  0.5133230000000 1.0
C      1  0.5768790000000  0.4693250000000  0.5205210000000 1.0
C      1  0.5845510000000  0.4753200000000  0.4912050000000 1.0
C      1  0.5722320000000  0.5155900000000  0.4347920000000 1.0
C      1  0.5713580000000  0.4932460000000  0.5359980000000 1.0
C      1  0.5443470000000  0.4551460000000  0.5597820000000 1.0
C      1  0.4352140000000  0.5280460000000  0.4879200000000 1.0
C      1  0.4251190000000  0.5561290000000  0.5237330000000 1.0
C      1  0.5032930000000  0.4252880000000  0.5681460000000 1.0
C      1  0.5334640000000  0.5400520000000  0.4232210000000 1.0
C      1  0.4304030000000  0.4613040000000  0.5433630000000 1.0
C      1  0.4586350000000  0.4849420000000  0.4377200000000 1.0
C      1  0.4068440000000  0.4695550000000  0.5240060000000 1.0
C      1  0.5425560000000  0.5110540000000  0.4987200000000 1.0
C      1  0.4046240000000  0.4992050000000  0.5255180000000 1.0
C      1  0.5581210000000  0.4499480000000  0.5316930000000 1.0
C      1  0.5204210000000  0.5275000000000  0.4967840000000 1.0
C      1  0.4605070000000  0.4474220000000  0.4978550000000 1.0
C      1  0.5852530000000  0.5467980000000  0.5021510000000 1.0
C      1  0.5475730000000  0.5149590000000  0.4191170000000 1.0
C      1  0.5313440000000  0.4775490000000  0.5729730000000 1.0
C      1  0.4837380000000  0.4397030000000  0.5329860000000 1.0
C      1  0.5215700000000  0.5259140000000  0.5856440000000 1.0
C      1  0.5087890000000  0.5215000000000  0.4708030000000 1.0
C      1  0.4848520000000  0.4925390000000  0.3993960000000 1.0
C      1  0.5904560000000  0.5133380000000  0.5427630000000 1.0
C      1  0.5700320000000  0.4353910000000  0.4938360000000 1.0
C      1  0.5593750000000  0.5564980000000  0.4982450000000 1.0
C      1  0.5899120000000  0.5292320000000  0.5263040000000 1.0
C      1  0.5752250000000  0.4536760000000  0.4727510000000 1.0
C      1  0.4514400000000  0.5266010000000  0.5629470000000 1.0
C      1  0.5325990000000  0.4295880000000  0.5703350000000 1.0
C      1  0.4977500000000  0.3990460000000  0.5178760000000 1.0
C      1  0.5912630000000  0.5010910000000  0.4781380000000 1.0
C      1  0.4887700000000  0.4755380000000  0.5606940000000 1.0
C      1  0.4343330000000  0.5005980000000  0.5327430000000 1.0
C      1  0.4175050000000  0.4971310000000  0.4544530000000 1.0
C      1  0.5265840000000  0.5134230000000  0.5449260000000 1.0
C      1  0.5280920000000  0.4450920000000  0.4723970000000 1.0
C      1  0.5507110000000  0.4518090000000  0.4545500000000 1.0
C      1  0.4691980000000  0.4546200000000  0.5540420000000 1.0
C      1  0.5743610000000  0.5394810000000  0.4510600000000 1.0
C      1  0.5449320000000  0.5578410000000  0.5549730000000 1.0
C      1  0.4372010000000  0.5055690000000  0.4352130000000 1.0
C      1  0.4581860000000  0.5532300000000  0.4523810000000 1.0
C      1  0.4646180000000  0.5311750000000  0.4896570000000 1.0
C      1  0.5066340000000  0.5488530000000  0.5792830000000 1.0
C      1  0.4977060000000  0.5166130000000  0.5150590000000 1.0
C      1  0.5731250000000  0.4954240000000  0.4564640000000 1.0
C      1  0.5855980000000  0.5307960000000  0.4768230000000 1.0
C      1  0.4827210000000  0.5830630000000  0.4901800000000 1.0
C      1  0.4565830000000  0.4958450000000  0.5181110000000 1.0
C      1  0.4371370000000  0.5328030000000  0.4465700000000 1.0
C      1  0.4729170000000  0.4893900000000  0.4625230000000 1.0
C      1  0.4104520000000  0.4700990000000  0.4962380000000 1.0
C      1  0.4264930000000  0.5383650000000  0.5485000000000 1.0
C      1  0.4162700000000  0.5418450000000  0.5016320000000 1.0
C      1  0.4446690000000  0.4505890000000  0.5211900000000 1.0
END
