TITL C-4164240-4114-698 10.8777278957929 125000 -12995.6856870944 0 0 87 (C1) n - 1
REM
REM in /home/nfs/bkarasulu/CARBON/AIRSS/Generating-Clusters/ReaxFF-fromJPCA2015/Units_Real/with-SteepDescent/Only-C1/SD-CG/Try1-3A/FIRE-CG
REM
REM
REM
REM
REM
REM ./C.cell (11c1c37f851c82e70ff6c80c92926a4b)
REM
REM compiler GCC version 9.2.1 20190827 (Red Hat 9.2.1-1)
REM options -cpp -mtune=generic -march=x86-64 -g -O0 -fpre-include=/usr/include/finclude/math-vector-fortran.h
REM seed 727761332 32736398 -508771727 -1736873338 1133819446 1304268705 1691851216 2023717364 1450134909 284972797 -655654780 1560084929 -1101013439 1542331937 5414604 434141773 -1630018934 1310958155 -1691411032 1847306586 1845359534 -1850468557 -176889593 -1752637032 85707841 -1137749418 -384719578 -238389058 1527564186 1066734971 -1375614086 -2079170314 -824262442
REM
CELL 1.54180   50.00000   50.00000   50.00000   90.00000   90.00000   90.00000
LATT -1
SFAC C  
C      1  0.5274770000000  0.5131740000000  0.4514000000000 1.0
C      1  0.5714630000000  0.4766210000000  0.4562110000000 1.0
C      1  0.4786530000000  0.4587920000000  0.4266450000000 1.0
C      1  0.4675320000000  0.4351500000000  0.4667170000000 1.0
C      1  0.4900450000000  0.5838170000000  0.4955900000000 1.0
C      1  0.5047670000000  0.4503830000000  0.4366140000000 1.0
C      1  0.4527630000000  0.5681790000000  0.5146340000000 1.0
C      1  0.4365830000000  0.4749310000000  0.4528800000000 1.0
C      1  0.5436990000000  0.4447550000000  0.5581060000000 1.0
C      1  0.4960530000000  0.4505360000000  0.5548890000000 1.0
C      1  0.4663330000000  0.4312250000000  0.4967270000000 1.0
C      1  0.5271210000000  0.4670820000000  0.4251890000000 1.0
C      1  0.5224190000000  0.4375980000000  0.4826820000000 1.0
C      1  0.5035110000000  0.5142540000000  0.5437390000000 1.0
C      1  0.4414070000000  0.5311180000000  0.5552240000000 1.0
C      1  0.4709440000000  0.5731390000000  0.5381640000000 1.0
C      1  0.4680230000000  0.4560080000000  0.5493200000000 1.0
C      1  0.5369510000000  0.5431790000000  0.5620680000000 1.0
C      1  0.4571920000000  0.4559540000000  0.4469450000000 1.0
C      1  0.4830820000000  0.5554730000000  0.5579260000000 1.0
C      1  0.5508980000000  0.4315050000000  0.4774930000000 1.0
C      1  0.4641940000000  0.5335540000000  0.5699240000000 1.0
C      1  0.5082670000000  0.5584180000000  0.4532130000000 1.0
C      1  0.5673310000000  0.4214020000000  0.5021800000000 1.0
C      1  0.5187010000000  0.4976740000000  0.4761550000000 1.0
C      1  0.5348290000000  0.4307160000000  0.5340460000000 1.0
C      1  0.5495910000000  0.4719200000000  0.4409010000000 1.0
C      1  0.5502590000000  0.4914270000000  0.5700100000000 1.0
C      1  0.5166670000000  0.5176610000000  0.4231490000000 1.0
C      1  0.4379350000000  0.5432780000000  0.5121410000000 1.0
C      1  0.5499930000000  0.5267880000000  0.4446540000000 1.0
C      1  0.4315070000000  0.5061830000000  0.4460880000000 1.0
C      1  0.4547160000000  0.4814300000000  0.5551890000000 1.0
C      1  0.5491680000000  0.5194830000000  0.5699480000000 1.0
C      1  0.5309300000000  0.4979690000000  0.5021730000000 1.0
C      1  0.5173530000000  0.5777190000000  0.5363410000000 1.0
C      1  0.4921530000000  0.5874830000000  0.5247070000000 1.0
C      1  0.4339890000000  0.5247990000000  0.4692520000000 1.0
C      1  0.4847020000000  0.4841290000000  0.4135640000000 1.0
C      1  0.4230940000000  0.4770820000000  0.4778130000000 1.0
C      1  0.5318940000000  0.5668910000000  0.4654540000000 1.0
C      1  0.4210870000000  0.5053190000000  0.5190420000000 1.0
C      1  0.4937330000000  0.4809340000000  0.4747820000000 1.0
C      1  0.5265290000000  0.5284320000000  0.5380560000000 1.0
C      1  0.5778890000000  0.4493810000000  0.5049750000000 1.0
C      1  0.5729700000000  0.5319200000000  0.4607420000000 1.0
C      1  0.5116830000000  0.5600440000000  0.5591180000000 1.0
C      1  0.4922550000000  0.5026480000000  0.5208590000000 1.0
C      1  0.5195310000000  0.4858300000000  0.5739820000000 1.0
C      1  0.4909200000000  0.5317640000000  0.4255840000000 1.0
C      1  0.4420320000000  0.5144280000000  0.4208000000000 1.0
C      1  0.4785700000000  0.5019820000000  0.4608850000000 1.0
C      1  0.5812290000000  0.4915960000000  0.5132320000000 1.0
C      1  0.4245720000000  0.4528880000000  0.4946390000000 1.0
C      1  0.5760220000000  0.4699070000000  0.5288940000000 1.0
C      1  0.4582930000000  0.5242600000000  0.5019360000000 1.0
C      1  0.4831240000000  0.5511800000000  0.4458020000000 1.0
C      1  0.5827290000000  0.5042460000000  0.4662610000000 1.0
C      1  0.4321590000000  0.4833410000000  0.5355280000000 1.0
C      1  0.4653380000000  0.5699420000000  0.4886400000000 1.0
C      1  0.5336930000000  0.5719880000000  0.5126270000000 1.0
C      1  0.4652270000000  0.5009170000000  0.5146040000000 1.0
C      1  0.4593360000000  0.5485660000000  0.4677570000000 1.0
C      1  0.5006710000000  0.4483900000000  0.4653970000000 1.0
C      1  0.5125670000000  0.4904510000000  0.4125620000000 1.0
C      1  0.4827340000000  0.4791000000000  0.5061380000000 1.0
C      1  0.4660850000000  0.4523380000000  0.5186000000000 1.0
C      1  0.4729330000000  0.5072460000000  0.4297660000000 1.0
C      1  0.4680250000000  0.5030840000000  0.5709030000000 1.0
C      1  0.4357020000000  0.4584960000000  0.5210460000000 1.0
C      1  0.5186780000000  0.5798030000000  0.4886390000000 1.0
C      1  0.4224820000000  0.5305520000000  0.5346570000000 1.0
C      1  0.5130740000000  0.4724100000000  0.5463150000000 1.0
C      1  0.4742560000000  0.5252780000000  0.4777840000000 1.0
C      1  0.4235940000000  0.5054980000000  0.4887800000000 1.0
C      1  0.5494350000000  0.5483140000000  0.5045370000000 1.0
C      1  0.5835870000000  0.5059490000000  0.4919790000000 1.0
C      1  0.5174880000000  0.4434400000000  0.5760100000000 1.0
C      1  0.5400000000000  0.5227890000000  0.5144760000000 1.0
C      1  0.5695890000000  0.4544150000000  0.4757190000000 1.0
C      1  0.5602720000000  0.4687610000000  0.5537130000000 1.0
C      1  0.5559850000000  0.5516270000000  0.4765420000000 1.0
C      1  0.5160920000000  0.4626760000000  0.5969840000000 1.0
C      1  0.5228990000000  0.4464290000000  0.5106910000000 1.0
C      1  0.4968890000000  0.5063570000000  0.5711260000000 1.0
C      1  0.4415630000000  0.4314910000000  0.4838390000000 1.0
C      1  0.5222890000000  0.4747070000000  0.5189900000000 1.0
END
