TITL C-4164233-775-617 31.2966433521727 125000 -21763.2895197456 0 0 148 (C1) n - 1
REM
REM in /home/nfs/bkarasulu/CARBON/AIRSS/Generating-Clusters/ReaxFF-fromJPCA2015/Units_Real/with-SteepDescent/Only-C1/SD-CG/Try1-3A/FIRE-CG
REM
REM
REM
REM
REM
REM ./C.cell (11c1c37f851c82e70ff6c80c92926a4b)
REM
REM compiler GCC version 9.2.1 20190827 (Red Hat 9.2.1-1)
REM options -cpp -mtune=generic -march=x86-64 -g -O0 -fpre-include=/usr/include/finclude/math-vector-fortran.h
REM seed 1649671464 753031650 1210492652 -1889242520 812606050 1831471871 -913547301 -702965897 -714387273 -846637248 -750245554 1207934193 -1351794589 326552012 673513577 114215805 1827031681 -433071416 276884949 -1859330654 405718158 -2072606549 1752010913 -1028825305 255670440 989545665 -1064785110 -1502031345 2000468267 -863172119 254081454 1562202250 -336850816
REM
CELL 1.54180   50.00000   50.00000   50.00000   90.00000   90.00000   90.00000
LATT -1
SFAC C  
C      1  0.5405180000000  0.4754370000000  0.5844830000000 1.0
C      1  0.4846990000000  0.4636490000000  0.5111800000000 1.0
C      1  0.5767060000000  0.5021660000000  0.4391090000000 1.0
C      1  0.5003840000000  0.5521320000000  0.5354910000000 1.0
C      1  0.4532310000000  0.5696590000000  0.4876210000000 1.0
C      1  0.4968310000000  0.4464870000000  0.4080760000000 1.0
C      1  0.4848820000000  0.5364210000000  0.5940700000000 1.0
C      1  0.5077530000000  0.5504120000000  0.6047630000000 1.0
C      1  0.5408340000000  0.4402210000000  0.4435620000000 1.0
C      1  0.5166810000000  0.4524380000000  0.4553860000000 1.0
C      1  0.4692550000000  0.5926330000000  0.5308660000000 1.0
C      1  0.4707160000000  0.5168360000000  0.4905950000000 1.0
C      1  0.5039920000000  0.5227540000000  0.5756540000000 1.0
C      1  0.4518610000000  0.4984410000000  0.5011030000000 1.0
C      1  0.4034420000000  0.4883640000000  0.4783780000000 1.0
C      1  0.4306890000000  0.5005010000000  0.5876330000000 1.0
C      1  0.5369160000000  0.4261410000000  0.5189030000000 1.0
C      1  0.5139850000000  0.4249560000000  0.4123770000000 1.0
C      1  0.4423750000000  0.4734880000000  0.4909560000000 1.0
C      1  0.4823540000000  0.5305670000000  0.5377090000000 1.0
C      1  0.4367590000000  0.5266750000000  0.5770310000000 1.0
C      1  0.5192330000000  0.4909230000000  0.4051880000000 1.0
C      1  0.5352500000000  0.4890420000000  0.5480120000000 1.0
C      1  0.5574220000000  0.4816910000000  0.4373430000000 1.0
C      1  0.4572640000000  0.5443160000000  0.5010580000000 1.0
C      1  0.5971430000000  0.4612690000000  0.5009880000000 1.0
C      1  0.4679700000000  0.4882190000000  0.5213480000000 1.0
C      1  0.4839320000000  0.5984120000000  0.5080260000000 1.0
C      1  0.5674550000000  0.4226610000000  0.4780570000000 1.0
C      1  0.4207280000000  0.4778210000000  0.5355080000000 1.0
C      1  0.4536960000000  0.4999000000000  0.4196300000000 1.0
C      1  0.5444270000000  0.4349590000000  0.4919580000000 1.0
C      1  0.5407880000000  0.5638200000000  0.4344650000000 1.0
C      1  0.5655720000000  0.5651880000000  0.5064350000000 1.0
C      1  0.6017440000000  0.5169510000000  0.5047110000000 1.0
C      1  0.4548850000000  0.4213760000000  0.5156830000000 1.0
C      1  0.4023980000000  0.5193100000000  0.5148460000000 1.0
C      1  0.5322310000000  0.5598580000000  0.5958360000000 1.0
C      1  0.5138910000000  0.5104120000000  0.4449800000000 1.0
C      1  0.5627010000000  0.4275350000000  0.5333720000000 1.0
C      1  0.5475060000000  0.5787950000000  0.5486460000000 1.0
C      1  0.5645800000000  0.4672660000000  0.5300420000000 1.0
C      1  0.4081330000000  0.5165960000000  0.4730030000000 1.0
C      1  0.5934340000000  0.5322770000000  0.4804550000000 1.0
C      1  0.4318910000000  0.4558050000000  0.5523930000000 1.0
C      1  0.5431750000000  0.5436750000000  0.5066420000000 1.0
C      1  0.5212490000000  0.5823190000000  0.5066990000000 1.0
C      1  0.5097990000000  0.5463140000000  0.4704590000000 1.0
C      1  0.4861820000000  0.5935510000000  0.4399180000000 1.0
C      1  0.4094980000000  0.4406920000000  0.4976330000000 1.0
C      1  0.4422370000000  0.5785610000000  0.5447100000000 1.0
C      1  0.5494090000000  0.5039390000000  0.5844370000000 1.0
C      1  0.4881960000000  0.4763980000000  0.5615290000000 1.0
C      1  0.4952260000000  0.5390760000000  0.4001140000000 1.0
C      1  0.6006750000000  0.4882970000000  0.5130080000000 1.0
C      1  0.5453720000000  0.4451270000000  0.5769140000000 1.0
C      1  0.4844520000000  0.4111900000000  0.5092620000000 1.0
C      1  0.5424370000000  0.5530130000000  0.5659360000000 1.0
C      1  0.5740460000000  0.5717510000000  0.5475010000000 1.0
C      1  0.5620860000000  0.5221510000000  0.5633000000000 1.0
C      1  0.5461690000000  0.5849110000000  0.5200020000000 1.0
C      1  0.4145420000000  0.4704920000000  0.5018310000000 1.0
C      1  0.4281070000000  0.5318910000000  0.5465850000000 1.0
C      1  0.4914290000000  0.4736910000000  0.5907760000000 1.0
C      1  0.5788710000000  0.5580950000000  0.4780140000000 1.0
C      1  0.4605170000000  0.5687900000000  0.5654750000000 1.0
C      1  0.5190620000000  0.5196290000000  0.4126880000000 1.0
C      1  0.5647080000000  0.5636130000000  0.4530770000000 1.0
C      1  0.4640440000000  0.4547740000000  0.4922000000000 1.0
C      1  0.4291170000000  0.5239590000000  0.4531090000000 1.0
C      1  0.4436470000000  0.5252030000000  0.4075400000000 1.0
C      1  0.4926040000000  0.5052480000000  0.5274410000000 1.0
C      1  0.5169480000000  0.4833190000000  0.6009950000000 1.0
C      1  0.4465460000000  0.4545500000000  0.4261280000000 1.0
C      1  0.4675830000000  0.5800950000000  0.4228590000000 1.0
C      1  0.5890210000000  0.5600840000000  0.5272020000000 1.0
C      1  0.5792780000000  0.4686590000000  0.5552510000000 1.0
C      1  0.5092890000000  0.4139540000000  0.5246910000000 1.0
C      1  0.4320300000000  0.5419830000000  0.4302390000000 1.0
C      1  0.5670780000000  0.5267190000000  0.4257470000000 1.0
C      1  0.5690570000000  0.4408410000000  0.5593540000000 1.0
C      1  0.4887290000000  0.4557910000000  0.5410940000000 1.0
C      1  0.4963560000000  0.4354570000000  0.4613810000000 1.0
C      1  0.4109470000000  0.5085670000000  0.5379260000000 1.0
C      1  0.4654070000000  0.4741530000000  0.4121180000000 1.0
C      1  0.5814520000000  0.4490030000000  0.4794320000000 1.0
C      1  0.4404650000000  0.4713470000000  0.5798370000000 1.0
C      1  0.5557630000000  0.4610220000000  0.4855010000000 1.0
C      1  0.4906920000000  0.5262980000000  0.4540960000000 1.0
C      1  0.4655690000000  0.4597170000000  0.5970660000000 1.0
C      1  0.4986940000000  0.4840780000000  0.4879510000000 1.0
C      1  0.5173730000000  0.4898350000000  0.5286290000000 1.0
C      1  0.4608210000000  0.4871500000000  0.5638350000000 1.0
C      1  0.4029430000000  0.4681190000000  0.4570550000000 1.0
C      1  0.5421400000000  0.5392550000000  0.4181370000000 1.0
C      1  0.5834130000000  0.5073810000000  0.4689120000000 1.0
C      1  0.5039740000000  0.4180920000000  0.5534540000000 1.0
C      1  0.4054920000000  0.4397960000000  0.4686390000000 1.0
C      1  0.4979200000000  0.4039320000000  0.4861330000000 1.0
C      1  0.5461720000000  0.4818500000000  0.4676210000000 1.0
C      1  0.4421540000000  0.5682170000000  0.4363600000000 1.0
C      1  0.5178570000000  0.5692650000000  0.4521220000000 1.0
C      1  0.5821630000000  0.4457400000000  0.5208670000000 1.0
C      1  0.5995400000000  0.5328210000000  0.5295650000000 1.0
C      1  0.4302300000000  0.4237050000000  0.4660030000000 1.0
C      1  0.5525700000000  0.5092710000000  0.5383380000000 1.0
C      1  0.4970970000000  0.4069020000000  0.4586590000000 1.0
C      1  0.3994200000000  0.5368570000000  0.4946720000000 1.0
C      1  0.4482860000000  0.4900340000000  0.5396980000000 1.0
C      1  0.4480090000000  0.4341380000000  0.5413080000000 1.0
C      1  0.4975600000000  0.5098120000000  0.5003260000000 1.0
C      1  0.4698120000000  0.4332420000000  0.5888540000000 1.0
C      1  0.5234880000000  0.5124500000000  0.5958780000000 1.0
C      1  0.4510930000000  0.4342050000000  0.4482510000000 1.0
C      1  0.5245110000000  0.4312290000000  0.5662860000000 1.0
C      1  0.5267280000000  0.3980520000000  0.4559350000000 1.0
C      1  0.5056800000000  0.5953480000000  0.4596050000000 1.0
C      1  0.5150560000000  0.4804070000000  0.4637130000000 1.0
C      1  0.5112330000000  0.4031390000000  0.4327790000000 1.0
C      1  0.4256440000000  0.5794020000000  0.4887880000000 1.0
C      1  0.5350210000000  0.4665010000000  0.5297410000000 1.0
C      1  0.4940080000000  0.4731360000000  0.4034300000000 1.0
C      1  0.5905870000000  0.5164250000000  0.5520330000000 1.0
C      1  0.4686050000000  0.5307310000000  0.3958570000000 1.0
C      1  0.4215810000000  0.5606700000000  0.5352270000000 1.0
C      1  0.4588400000000  0.5452430000000  0.5836180000000 1.0
C      1  0.5601260000000  0.5015800000000  0.4848380000000 1.0
C      1  0.4757580000000  0.4333650000000  0.5566200000000 1.0
C      1  0.4330720000000  0.4226640000000  0.4964890000000 1.0
C      1  0.5045530000000  0.5997360000000  0.4906670000000 1.0
C      1  0.4397250000000  0.5795920000000  0.4627880000000 1.0
C      1  0.4235070000000  0.4638930000000  0.4381190000000 1.0
C      1  0.4836310000000  0.5749160000000  0.5484210000000 1.0
C      1  0.4756550000000  0.5065230000000  0.4654280000000 1.0
C      1  0.5593230000000  0.5346560000000  0.4534380000000 1.0
C      1  0.5162840000000  0.5545000000000  0.5039590000000 1.0
C      1  0.5174010000000  0.5407890000000  0.5563220000000 1.0
C      1  0.4115540000000  0.5611950000000  0.5070030000000 1.0
C      1  0.5514440000000  0.5161240000000  0.5091260000000 1.0
C      1  0.5313620000000  0.5279190000000  0.4612890000000 1.0
C      1  0.5376090000000  0.4436220000000  0.4147610000000 1.0
C      1  0.4540050000000  0.5083040000000  0.4485840000000 1.0
C      1  0.5405520000000  0.4737510000000  0.4144730000000 1.0
C      1  0.4874690000000  0.5633570000000  0.4115890000000 1.0
C      1  0.5505910000000  0.4150130000000  0.4551990000000 1.0
C      1  0.4711860000000  0.4439390000000  0.4672720000000 1.0
C      1  0.5959070000000  0.4891330000000  0.5421310000000 1.0
C      1  0.4553680000000  0.5363160000000  0.5285570000000 1.0
END
