TITL C-4164234-2335-233 25.9122646758695 125000 -19440.9115551223 0 0 131 (C1) n - 1
REM
REM in /home/nfs/bkarasulu/CARBON/AIRSS/Generating-Clusters/ReaxFF-fromJPCA2015/Units_Real/with-SteepDescent/Only-C1/SD-CG/Try1-3A/FIRE-CG
REM
REM
REM
REM
REM
REM ./C.cell (11c1c37f851c82e70ff6c80c92926a4b)
REM
REM compiler GCC version 9.2.1 20190827 (Red Hat 9.2.1-1)
REM options -cpp -mtune=generic -march=x86-64 -g -O0 -fpre-include=/usr/include/finclude/math-vector-fortran.h
REM seed 160811670 -1889506007 -1691913768 1257091381 -1856846627 137410636 1177330611 -1366573657 -1995352639 -699379960 -381216278 1313183981 4188072 922908218 -1001500288 -1689005375 56477030 -295031639 1987741881 -485494779 2034326447 462793552 -1146997248 -1032697953 949925678 -152534623 1793949156 -1909688053 -1713258690 883084769 894903744 -1336104418 906438905
REM
CELL 1.54180   50.00000   50.00000   50.00000   90.00000   90.00000   90.00000
LATT -1
SFAC C  
C      1  0.5420270000000  0.4099930000000  0.5141200000000 1.0
C      1  0.4212850000000  0.4963660000000  0.4527040000000 1.0
C      1  0.5403500000000  0.5056280000000  0.4904070000000 1.0
C      1  0.5444260000000  0.4538390000000  0.5415340000000 1.0
C      1  0.5943870000000  0.4805110000000  0.4955590000000 1.0
C      1  0.5767860000000  0.4875760000000  0.5515300000000 1.0
C      1  0.4591350000000  0.4116670000000  0.5202240000000 1.0
C      1  0.4615760000000  0.5961320000000  0.5285960000000 1.0
C      1  0.5437990000000  0.4250200000000  0.4683780000000 1.0
C      1  0.4202160000000  0.5116940000000  0.4938280000000 1.0
C      1  0.5366210000000  0.5662250000000  0.4338420000000 1.0
C      1  0.4454270000000  0.4996580000000  0.4351310000000 1.0
C      1  0.4377270000000  0.4971380000000  0.5816110000000 1.0
C      1  0.4320060000000  0.4497290000000  0.4575410000000 1.0
C      1  0.5834700000000  0.5728660000000  0.5119050000000 1.0
C      1  0.5618460000000  0.5548720000000  0.4355500000000 1.0
C      1  0.4176310000000  0.4711010000000  0.4687670000000 1.0
C      1  0.4052150000000  0.4802460000000  0.5221510000000 1.0
C      1  0.5555680000000  0.4682300000000  0.5198350000000 1.0
C      1  0.5061810000000  0.5314500000000  0.5882980000000 1.0
C      1  0.4774330000000  0.5229730000000  0.4660330000000 1.0
C      1  0.4751350000000  0.4710910000000  0.4565660000000 1.0
C      1  0.5984410000000  0.5090800000000  0.4927010000000 1.0
C      1  0.5430400000000  0.5836830000000  0.4598290000000 1.0
C      1  0.5126900000000  0.4842350000000  0.5954940000000 1.0
C      1  0.5210220000000  0.5684200000000  0.4733900000000 1.0
C      1  0.4367530000000  0.4451400000000  0.5757980000000 1.0
C      1  0.4598290000000  0.4492220000000  0.4400690000000 1.0
C      1  0.4383240000000  0.5472050000000  0.5349230000000 1.0
C      1  0.4547840000000  0.5981760000000  0.4994120000000 1.0
C      1  0.4411500000000  0.5088630000000  0.5549510000000 1.0
C      1  0.5037100000000  0.4046540000000  0.4831580000000 1.0
C      1  0.4729360000000  0.4211040000000  0.4450730000000 1.0
C      1  0.5826650000000  0.4646140000000  0.5173710000000 1.0
C      1  0.4979650000000  0.5548370000000  0.5732600000000 1.0
C      1  0.5758220000000  0.4351430000000  0.4311050000000 1.0
C      1  0.4770410000000  0.4077680000000  0.4695700000000 1.0
C      1  0.4234360000000  0.4727900000000  0.5739490000000 1.0
C      1  0.4637590000000  0.5461120000000  0.4466250000000 1.0
C      1  0.4731250000000  0.4841510000000  0.5660310000000 1.0
C      1  0.4981120000000  0.4798360000000  0.4951120000000 1.0
C      1  0.5539940000000  0.4752060000000  0.5650090000000 1.0
C      1  0.5196690000000  0.5331150000000  0.5228080000000 1.0
C      1  0.4784780000000  0.5175490000000  0.4079230000000 1.0
C      1  0.5271440000000  0.5400780000000  0.4682600000000 1.0
C      1  0.5252070000000  0.5074880000000  0.4070650000000 1.0
C      1  0.5307300000000  0.5207670000000  0.5725700000000 1.0
C      1  0.4890900000000  0.5022610000000  0.5115590000000 1.0
C      1  0.5374970000000  0.4918880000000  0.5824690000000 1.0
C      1  0.5147450000000  0.4982500000000  0.4800830000000 1.0
C      1  0.4748880000000  0.5233290000000  0.4984210000000 1.0
C      1  0.5168710000000  0.4513920000000  0.5023890000000 1.0
C      1  0.5606090000000  0.4183790000000  0.4927780000000 1.0
C      1  0.5440150000000  0.5822790000000  0.5117080000000 1.0
C      1  0.4560270000000  0.5409960000000  0.5081180000000 1.0
C      1  0.5167770000000  0.4456380000000  0.5319980000000 1.0
C      1  0.5455040000000  0.4321030000000  0.4401640000000 1.0
C      1  0.5784490000000  0.5186950000000  0.5575800000000 1.0
C      1  0.5533220000000  0.4723300000000  0.4702900000000 1.0
C      1  0.5121970000000  0.4831290000000  0.4057720000000 1.0
C      1  0.4578600000000  0.4207090000000  0.4915940000000 1.0
C      1  0.5763900000000  0.4345760000000  0.5130510000000 1.0
C      1  0.4506610000000  0.4939010000000  0.5317540000000 1.0
C      1  0.5062260000000  0.5209150000000  0.4658010000000 1.0
C      1  0.4486960000000  0.5360620000000  0.5610300000000 1.0
C      1  0.4937760000000  0.5071230000000  0.5979920000000 1.0
C      1  0.4191980000000  0.5216790000000  0.4663590000000 1.0
C      1  0.4609520000000  0.4522120000000  0.4971480000000 1.0
C      1  0.5408120000000  0.5123980000000  0.5186770000000 1.0
C      1  0.5831970000000  0.5315490000000  0.4763480000000 1.0
C      1  0.4817580000000  0.5921800000000  0.4915100000000 1.0
C      1  0.4638030000000  0.4920310000000  0.4129460000000 1.0
C      1  0.5580790000000  0.4252100000000  0.5332430000000 1.0
C      1  0.5964800000000  0.5524990000000  0.4964890000000 1.0
C      1  0.4671340000000  0.4947150000000  0.5907690000000 1.0
C      1  0.4177280000000  0.4371960000000  0.5031220000000 1.0
C      1  0.4476770000000  0.4698280000000  0.5155630000000 1.0
C      1  0.5571040000000  0.5372800000000  0.5647780000000 1.0
C      1  0.4361000000000  0.5438150000000  0.4020160000000 1.0
C      1  0.5205010000000  0.5696690000000  0.5588120000000 1.0
C      1  0.5128390000000  0.5203870000000  0.5471470000000 1.0
C      1  0.5814200000000  0.5356610000000  0.4438660000000 1.0
C      1  0.5399930000000  0.4745680000000  0.4440560000000 1.0
C      1  0.4974900000000  0.4998440000000  0.5384330000000 1.0
C      1  0.5878440000000  0.4532870000000  0.4494570000000 1.0
C      1  0.5388530000000  0.5527800000000  0.5164870000000 1.0
C      1  0.4118530000000  0.4661410000000  0.5476660000000 1.0
C      1  0.4019050000000  0.5107630000000  0.5182510000000 1.0
C      1  0.4310990000000  0.5839240000000  0.4865490000000 1.0
C      1  0.5830600000000  0.4725000000000  0.4690080000000 1.0
C      1  0.5650470000000  0.5790370000000  0.5333780000000 1.0
C      1  0.4641750000000  0.4408510000000  0.5767990000000 1.0
C      1  0.4411000000000  0.5553520000000  0.4882180000000 1.0
C      1  0.5604560000000  0.5342510000000  0.5196680000000 1.0
C      1  0.5049710000000  0.5283790000000  0.4136700000000 1.0
C      1  0.5505320000000  0.5632310000000  0.5543510000000 1.0
C      1  0.4908270000000  0.5961120000000  0.5214450000000 1.0
C      1  0.4870800000000  0.5640230000000  0.4442400000000 1.0
C      1  0.4101610000000  0.5340640000000  0.5324450000000 1.0
C      1  0.5677540000000  0.5144770000000  0.4323670000000 1.0
C      1  0.4731500000000  0.4644290000000  0.4160220000000 1.0
C      1  0.5524190000000  0.5272120000000  0.4756570000000 1.0
C      1  0.4997240000000  0.4283840000000  0.5470070000000 1.0
C      1  0.5172990000000  0.4300380000000  0.4792400000000 1.0
C      1  0.5558170000000  0.5851950000000  0.4853030000000 1.0
C      1  0.4092800000000  0.4646450000000  0.4980630000000 1.0
C      1  0.5113190000000  0.4031690000000  0.5111570000000 1.0
C      1  0.5255600000000  0.4522670000000  0.4325380000000 1.0
C      1  0.4346040000000  0.5480280000000  0.4597120000000 1.0
C      1  0.4669860000000  0.4982670000000  0.4543910000000 1.0
C      1  0.5085910000000  0.4620440000000  0.5769860000000 1.0
C      1  0.4213890000000  0.5791480000000  0.4598220000000 1.0
C      1  0.4696960000000  0.5572710000000  0.5635270000000 1.0
C      1  0.4959700000000  0.4754980000000  0.5531710000000 1.0
C      1  0.5426970000000  0.4651710000000  0.4963170000000 1.0
C      1  0.6058780000000  0.5293200000000  0.5119960000000 1.0
C      1  0.4541280000000  0.5745260000000  0.5463490000000 1.0
C      1  0.4914450000000  0.4377110000000  0.5754090000000 1.0
C      1  0.5022790000000  0.4584970000000  0.4125420000000 1.0
C      1  0.4430430000000  0.4962500000000  0.5047240000000 1.0
C      1  0.4792730000000  0.4650910000000  0.4819180000000 1.0
C      1  0.4231420000000  0.4387450000000  0.5493700000000 1.0
C      1  0.4875810000000  0.4092140000000  0.5284400000000 1.0
C      1  0.5059230000000  0.5827030000000  0.5403880000000 1.0
C      1  0.4339740000000  0.4255250000000  0.5258740000000 1.0
C      1  0.5865170000000  0.5339200000000  0.5345930000000 1.0
C      1  0.5098210000000  0.5537750000000  0.4284290000000 1.0
C      1  0.4584890000000  0.5393790000000  0.4146970000000 1.0
C      1  0.4940280000000  0.5792230000000  0.4684910000000 1.0
C      1  0.4309500000000  0.4297470000000  0.4784370000000 1.0
C      1  0.5483770000000  0.4965200000000  0.4240310000000 1.0
END
