TITL C-4164234-2335-104 5.73274145214978 125000 -16639.5636973198 0 0 112 (C1) n - 1
REM
REM in /home/nfs/bkarasulu/CARBON/AIRSS/Generating-Clusters/ReaxFF-fromJPCA2015/Units_Real/with-SteepDescent/Only-C1/SD-CG/Try1-3A/FIRE-CG
REM
REM
REM
REM
REM
REM ./C.cell (11c1c37f851c82e70ff6c80c92926a4b)
REM
REM compiler GCC version 9.2.1 20190827 (Red Hat 9.2.1-1)
REM options -cpp -mtune=generic -march=x86-64 -g -O0 -fpre-include=/usr/include/finclude/math-vector-fortran.h
REM seed 572414215 48974840 759296171 987682063 1556784806 981076465 498099539 -1036493989 -1531138554 -1878432657 432628694 -40921169 -1147309575 -881105154 1942563315 -1066855005 -1023072105 -1710148495 1988919607 -2037046821 -1598943215 -1102343685 -2127536373 1244427570 148952362 -3547345 1721642710 -1624277632 1670727254 -1118934009 648662190 1920413971 961446179
REM
CELL 1.54180   50.00000   50.00000   50.00000   90.00000   90.00000   90.00000
LATT -1
SFAC C  
C      1  0.4919960000000  0.5386360000000  0.5818480000000 1.0
C      1  0.5706880000000  0.5226170000000  0.5672430000000 1.0
C      1  0.4909210000000  0.4535590000000  0.4782030000000 1.0
C      1  0.5164960000000  0.6012800000000  0.4551020000000 1.0
C      1  0.5196330000000  0.4873450000000  0.4163430000000 1.0
C      1  0.4730200000000  0.5462040000000  0.5212050000000 1.0
C      1  0.4459240000000  0.5251360000000  0.5603620000000 1.0
C      1  0.4635650000000  0.4579880000000  0.4681320000000 1.0
C      1  0.5027610000000  0.4426020000000  0.5276330000000 1.0
C      1  0.4483220000000  0.5278190000000  0.4236450000000 1.0
C      1  0.4649740000000  0.5102700000000  0.4927350000000 1.0
C      1  0.4866160000000  0.4572690000000  0.5467080000000 1.0
C      1  0.4402860000000  0.5149690000000  0.4503370000000 1.0
C      1  0.4991130000000  0.4087290000000  0.5583170000000 1.0
C      1  0.4149210000000  0.5096720000000  0.4905930000000 1.0
C      1  0.5635190000000  0.4345960000000  0.5466340000000 1.0
C      1  0.5500540000000  0.4264140000000  0.5035690000000 1.0
C      1  0.5133400000000  0.5515180000000  0.4366800000000 1.0
C      1  0.4841980000000  0.5475250000000  0.4345590000000 1.0
C      1  0.4218010000000  0.5558560000000  0.4732360000000 1.0
C      1  0.5213070000000  0.4598980000000  0.4257320000000 1.0
C      1  0.5715700000000  0.4585220000000  0.4486160000000 1.0
C      1  0.5917840000000  0.5236770000000  0.4933800000000 1.0
C      1  0.5482810000000  0.4497350000000  0.4321680000000 1.0
C      1  0.5358090000000  0.4732860000000  0.5610730000000 1.0
C      1  0.5388820000000  0.5335820000000  0.5070220000000 1.0
C      1  0.5431220000000  0.4529710000000  0.5040730000000 1.0
C      1  0.4651230000000  0.5973980000000  0.4822950000000 1.0
C      1  0.5217830000000  0.5796030000000  0.4347980000000 1.0
C      1  0.4822120000000  0.3968430000000  0.5219480000000 1.0
C      1  0.4687730000000  0.4807540000000  0.5369220000000 1.0
C      1  0.5410630000000  0.5055040000000  0.5139300000000 1.0
C      1  0.5131510000000  0.5735910000000  0.5252210000000 1.0
C      1  0.4772240000000  0.4716890000000  0.4262860000000 1.0
C      1  0.5070130000000  0.5683110000000  0.4955330000000 1.0
C      1  0.4311370000000  0.4563250000000  0.5070110000000 1.0
C      1  0.5389730000000  0.5684580000000  0.5362920000000 1.0
C      1  0.5439430000000  0.5163910000000  0.5821600000000 1.0
C      1  0.4719930000000  0.4062000000000  0.5464960000000 1.0
C      1  0.5819390000000  0.5315980000000  0.5202400000000 1.0
C      1  0.5801970000000  0.4830090000000  0.5343720000000 1.0
C      1  0.5191410000000  0.5315830000000  0.5701950000000 1.0
C      1  0.4942230000000  0.4484310000000  0.4309640000000 1.0
C      1  0.5834770000000  0.4777040000000  0.5053870000000 1.0
C      1  0.5601870000000  0.5535870000000  0.5169070000000 1.0
C      1  0.4185690000000  0.5275240000000  0.4670660000000 1.0
C      1  0.4417470000000  0.4483660000000  0.4817630000000 1.0
C      1  0.4160660000000  0.4781170000000  0.4755020000000 1.0
C      1  0.4866500000000  0.3948670000000  0.4938500000000 1.0
C      1  0.4381670000000  0.5567010000000  0.4254140000000 1.0
C      1  0.5925020000000  0.4947490000000  0.4840870000000 1.0
C      1  0.5079120000000  0.4564150000000  0.5675590000000 1.0
C      1  0.5223980000000  0.5428070000000  0.4853490000000 1.0
C      1  0.4705510000000  0.5185160000000  0.5746520000000 1.0
C      1  0.5007990000000  0.4780780000000  0.4943220000000 1.0
C      1  0.4830700000000  0.4256510000000  0.4477430000000 1.0
C      1  0.5051600000000  0.5117170000000  0.5454250000000 1.0
C      1  0.5843120000000  0.4848350000000  0.4575760000000 1.0
C      1  0.4403750000000  0.4297200000000  0.5167280000000 1.0
C      1  0.5570970000000  0.4344180000000  0.4551530000000 1.0
C      1  0.4306290000000  0.4848870000000  0.4520190000000 1.0
C      1  0.4327750000000  0.4738340000000  0.5682760000000 1.0
C      1  0.5653090000000  0.5134170000000  0.4187390000000 1.0
C      1  0.4820580000000  0.4965440000000  0.5102910000000 1.0
C      1  0.5429770000000  0.5031050000000  0.4153160000000 1.0
C      1  0.4703450000000  0.5505760000000  0.4637450000000 1.0
C      1  0.5191490000000  0.5314840000000  0.4589580000000 1.0
C      1  0.4469420000000  0.5405970000000  0.5362970000000 1.0
C      1  0.4899610000000  0.5211910000000  0.5215460000000 1.0
C      1  0.4876440000000  0.5600020000000  0.5648030000000 1.0
C      1  0.5376040000000  0.4241680000000  0.4767520000000 1.0
C      1  0.4768840000000  0.5245120000000  0.4191740000000 1.0
C      1  0.4708000000000  0.5190700000000  0.4659930000000 1.0
C      1  0.4416880000000  0.5100520000000  0.4968330000000 1.0
C      1  0.4449460000000  0.5838060000000  0.4954530000000 1.0
C      1  0.5195080000000  0.4646040000000  0.5154090000000 1.0
C      1  0.4385800000000  0.4766690000000  0.5275550000000 1.0
C      1  0.4781940000000  0.5604470000000  0.4918360000000 1.0
C      1  0.5152850000000  0.4934440000000  0.4748200000000 1.0
C      1  0.4878340000000  0.5687970000000  0.5387090000000 1.0
C      1  0.5161730000000  0.4174610000000  0.5356350000000 1.0
C      1  0.4541300000000  0.4679290000000  0.4431680000000 1.0
C      1  0.5354470000000  0.5569580000000  0.5629500000000 1.0
C      1  0.5420690000000  0.4950180000000  0.4864400000000 1.0
C      1  0.4094270000000  0.5193690000000  0.5189300000000 1.0
C      1  0.4920740000000  0.4980280000000  0.4250350000000 1.0
C      1  0.4883240000000  0.6029630000000  0.4678930000000 1.0
C      1  0.4815340000000  0.4973480000000  0.5586100000000 1.0
C      1  0.5468820000000  0.5851190000000  0.4772260000000 1.0
C      1  0.5618500000000  0.5487770000000  0.5637380000000 1.0
C      1  0.5581330000000  0.4713870000000  0.4918840000000 1.0
C      1  0.5805520000000  0.5115180000000  0.5412770000000 1.0
C      1  0.5112030000000  0.4354170000000  0.4754170000000 1.0
C      1  0.5640750000000  0.4635690000000  0.5502560000000 1.0
C      1  0.5454920000000  0.4167100000000  0.5304430000000 1.0
C      1  0.5777780000000  0.5029190000000  0.4370960000000 1.0
C      1  0.5265590000000  0.4908840000000  0.5354470000000 1.0
C      1  0.4182520000000  0.4964280000000  0.5356800000000 1.0
C      1  0.4988460000000  0.5092250000000  0.4570630000000 1.0
C      1  0.5056780000000  0.4297560000000  0.5796890000000 1.0
C      1  0.5253340000000  0.5927890000000  0.4802730000000 1.0
C      1  0.4734620000000  0.4149230000000  0.4737510000000 1.0
C      1  0.5668200000000  0.5698680000000  0.4880260000000 1.0
C      1  0.5818680000000  0.5473700000000  0.4818530000000 1.0
C      1  0.4407980000000  0.4469010000000  0.5633970000000 1.0
C      1  0.4254680000000  0.5635210000000  0.5014050000000 1.0
C      1  0.4487930000000  0.4233220000000  0.4896670000000 1.0
C      1  0.4430790000000  0.5629940000000  0.4538400000000 1.0
C      1  0.4236840000000  0.5436480000000  0.5221970000000 1.0
C      1  0.4498040000000  0.4255340000000  0.5438900000000 1.0
C      1  0.5401940000000  0.4881440000000  0.5879630000000 1.0
C      1  0.4272810000000  0.5018650000000  0.5630460000000 1.0
END
