TITL C-4164234-2335-291 -2.15031222369704 125000 -6021.88028617028 0 0 41 (C1) n - 1
REM
REM in /home/nfs/bkarasulu/CARBON/AIRSS/Generating-Clusters/ReaxFF-fromJPCA2015/Units_Real/with-SteepDescent/Only-C1/SD-CG/Try1-3A/FIRE-CG
REM
REM
REM
REM
REM
REM ./C.cell (11c1c37f851c82e70ff6c80c92926a4b)
REM
REM compiler GCC version 9.2.1 20190827 (Red Hat 9.2.1-1)
REM options -cpp -mtune=generic -march=x86-64 -g -O0 -fpre-include=/usr/include/finclude/math-vector-fortran.h
REM seed -159645599 -1122351121 -1762948849 1933576537 1831377576 210256438 1741564438 702494545 -1289597292 571540208 -2082416656 -1065736653 -873306076 -112506475 -511825126 -159944018 -4761227 -1125037445 -862603560 -1559521356 1554413843 525280070 2128897181 -445871562 -1462118219 -1507900577 1181843569 1698187885 -1507670010 204454468 -1324246354 -355217121 -1666896799
REM
CELL 1.54180   50.00000   50.00000   50.00000   90.00000   90.00000   90.00000
LATT -1
SFAC C  
C      1  0.4570680000000  0.4736530000000  0.5357070000000 1.0
C      1  0.4818830000000  0.5469870000000  0.5294350000000 1.0
C      1  0.5061770000000  0.5106840000000  0.5404570000000 1.0
C      1  0.5503000000000  0.5255350000000  0.5332550000000 1.0
C      1  0.4977990000000  0.5680600000000  0.4676870000000 1.0
C      1  0.5213860000000  0.5011610000000  0.4657500000000 1.0
C      1  0.5619480000000  0.4743380000000  0.4825430000000 1.0
C      1  0.4727210000000  0.4227070000000  0.5286940000000 1.0
C      1  0.5516810000000  0.5010430000000  0.4708930000000 1.0
C      1  0.4541820000000  0.4829260000000  0.4822040000000 1.0
C      1  0.5340810000000  0.5438150000000  0.4839440000000 1.0
C      1  0.4785340000000  0.5193560000000  0.5393680000000 1.0
C      1  0.4685430000000  0.4633940000000  0.4661940000000 1.0
C      1  0.4523660000000  0.5068190000000  0.4996310000000 1.0
C      1  0.4762770000000  0.4307760000000  0.5548700000000 1.0
C      1  0.4796540000000  0.4820210000000  0.4432580000000 1.0
C      1  0.5118050000000  0.4849380000000  0.4934220000000 1.0
C      1  0.4940250000000  0.5455130000000  0.4515360000000 1.0
C      1  0.4924780000000  0.5733330000000  0.4948350000000 1.0
C      1  0.4744890000000  0.4608670000000  0.5151600000000 1.0
C      1  0.5118790000000  0.4560950000000  0.4852160000000 1.0
C      1  0.4698940000000  0.4329840000000  0.5030010000000 1.0
C      1  0.5144520000000  0.4889320000000  0.5220430000000 1.0
C      1  0.5388300000000  0.4571650000000  0.4819360000000 1.0
C      1  0.5080330000000  0.4858400000000  0.4416520000000 1.0
C      1  0.4574790000000  0.5020410000000  0.5284750000000 1.0
C      1  0.4845210000000  0.4425130000000  0.4789510000000 1.0
C      1  0.4604670000000  0.5324080000000  0.4870290000000 1.0
C      1  0.5697640000000  0.5167420000000  0.5150230000000 1.0
C      1  0.5196400000000  0.5627540000000  0.5026080000000 1.0
C      1  0.4707850000000  0.5537360000000  0.5036930000000 1.0
C      1  0.5015800000000  0.4633880000000  0.5288130000000 1.0
C      1  0.5561330000000  0.5244000000000  0.4872990000000 1.0
C      1  0.4951030000000  0.4543740000000  0.5557780000000 1.0
C      1  0.4635940000000  0.5078040000000  0.4418490000000 1.0
C      1  0.4669050000000  0.4594220000000  0.5592000000000 1.0
C      1  0.4674750000000  0.5316240000000  0.4582110000000 1.0
C      1  0.5178690000000  0.5323410000000  0.4630200000000 1.0
C      1  0.5720650000000  0.4900840000000  0.5044330000000 1.0
C      1  0.5257200000000  0.5329400000000  0.5440060000000 1.0
C      1  0.5104140000000  0.5544860000000  0.5289200000000 1.0
END
