TITL C-4164234-2335-191 10.1699394948742 125000 -13970.5171475213 0 0 94 (C1) n - 1
REM
REM in /home/nfs/bkarasulu/CARBON/AIRSS/Generating-Clusters/ReaxFF-fromJPCA2015/Units_Real/with-SteepDescent/Only-C1/SD-CG/Try1-3A/FIRE-CG
REM
REM
REM
REM
REM
REM ./C.cell (11c1c37f851c82e70ff6c80c92926a4b)
REM
REM compiler GCC version 9.2.1 20190827 (Red Hat 9.2.1-1)
REM options -cpp -mtune=generic -march=x86-64 -g -O0 -fpre-include=/usr/include/finclude/math-vector-fortran.h
REM seed 865218266 -626925320 -62173560 -79266922 -723840322 533349212 -1990311612 1233713490 411664376 -1276975660 1133779369 2083118742 -1601454775 139420513 1933244855 -1525859243 91854873 1729010614 1961145513 1215449377 1733007310 202284034 -190130413 -795184736 -1442621107 -701848491 318203920 -567659336 -1937559136 -1180891170 -1036955603 130787936 454521186
REM
CELL 1.54180   50.00000   50.00000   50.00000   90.00000   90.00000   90.00000
LATT -1
SFAC C  
C      1  0.5711070000000  0.5283720000000  0.4470530000000 1.0
C      1  0.4387090000000  0.4235710000000  0.5007660000000 1.0
C      1  0.5193970000000  0.4258680000000  0.5135760000000 1.0
C      1  0.4721360000000  0.5759760000000  0.5234010000000 1.0
C      1  0.4533740000000  0.4685630000000  0.4414330000000 1.0
C      1  0.5029340000000  0.5124010000000  0.4528190000000 1.0
C      1  0.4938220000000  0.5735430000000  0.5427270000000 1.0
C      1  0.5346180000000  0.4633890000000  0.5559570000000 1.0
C      1  0.4239370000000  0.4783770000000  0.4858160000000 1.0
C      1  0.5534220000000  0.4596820000000  0.4446130000000 1.0
C      1  0.5884230000000  0.4998430000000  0.5010190000000 1.0
C      1  0.4909650000000  0.5535060000000  0.5639890000000 1.0
C      1  0.5075220000000  0.5161910000000  0.4232040000000 1.0
C      1  0.4399910000000  0.4336220000000  0.4724420000000 1.0
C      1  0.4371500000000  0.5205060000000  0.4596950000000 1.0
C      1  0.5084390000000  0.5451180000000  0.4892790000000 1.0
C      1  0.5123260000000  0.4453120000000  0.5629600000000 1.0
C      1  0.5443980000000  0.4249870000000  0.5279830000000 1.0
C      1  0.4437060000000  0.5140570000000  0.5063560000000 1.0
C      1  0.4441240000000  0.5637290000000  0.5240050000000 1.0
C      1  0.4591050000000  0.4136970000000  0.5179470000000 1.0
C      1  0.4664660000000  0.5555370000000  0.4853410000000 1.0
C      1  0.4581780000000  0.5403010000000  0.4546440000000 1.0
C      1  0.5139990000000  0.5063580000000  0.5341980000000 1.0
C      1  0.5213640000000  0.4095340000000  0.5380080000000 1.0
C      1  0.4302010000000  0.4435820000000  0.5209400000000 1.0
C      1  0.5342890000000  0.5039680000000  0.4175240000000 1.0
C      1  0.5623520000000  0.5520060000000  0.5408710000000 1.0
C      1  0.4869250000000  0.4305070000000  0.4722640000000 1.0
C      1  0.4210230000000  0.4709920000000  0.5142940000000 1.0
C      1  0.4815390000000  0.4493920000000  0.4949010000000 1.0
C      1  0.4827700000000  0.5783280000000  0.4963480000000 1.0
C      1  0.5601500000000  0.5408290000000  0.5670510000000 1.0
C      1  0.4374830000000  0.5664730000000  0.4960970000000 1.0
C      1  0.4951960000000  0.4596290000000  0.5438330000000 1.0
C      1  0.5219450000000  0.5264580000000  0.4715240000000 1.0
C      1  0.4681230000000  0.4445980000000  0.4338050000000 1.0
C      1  0.5436800000000  0.5730090000000  0.4448860000000 1.0
C      1  0.5092840000000  0.4806570000000  0.4954280000000 1.0
C      1  0.4838660000000  0.5362720000000  0.5011330000000 1.0
C      1  0.4706400000000  0.4230690000000  0.5412080000000 1.0
C      1  0.4989890000000  0.4467630000000  0.5174880000000 1.0
C      1  0.4843740000000  0.4889540000000  0.5842950000000 1.0
C      1  0.5453490000000  0.5525240000000  0.4268790000000 1.0
C      1  0.4802650000000  0.4789990000000  0.4970510000000 1.0
C      1  0.4617470000000  0.5059840000000  0.5826610000000 1.0
C      1  0.5198490000000  0.4698260000000  0.4706050000000 1.0
C      1  0.5108470000000  0.5489340000000  0.5848980000000 1.0
C      1  0.5121160000000  0.4989420000000  0.5827700000000 1.0
C      1  0.5091880000000  0.4325640000000  0.4533110000000 1.0
C      1  0.5446960000000  0.5759870000000  0.4955160000000 1.0
C      1  0.5341250000000  0.4450910000000  0.4623550000000 1.0
C      1  0.4629410000000  0.4261170000000  0.4562430000000 1.0
C      1  0.5147440000000  0.5788350000000  0.4354540000000 1.0
C      1  0.4363950000000  0.4614480000000  0.4650910000000 1.0
C      1  0.5186030000000  0.5238370000000  0.5941910000000 1.0
C      1  0.4271240000000  0.5154880000000  0.5453520000000 1.0
C      1  0.4970590000000  0.4439590000000  0.4291390000000 1.0
C      1  0.5243210000000  0.4913630000000  0.5572870000000 1.0
C      1  0.4768940000000  0.4762690000000  0.5585620000000 1.0
C      1  0.5456150000000  0.5691030000000  0.5240680000000 1.0
C      1  0.5541840000000  0.4522000000000  0.5361600000000 1.0
C      1  0.4856970000000  0.5179560000000  0.5280790000000 1.0
C      1  0.4742200000000  0.5320800000000  0.5532650000000 1.0
C      1  0.4272480000000  0.4873820000000  0.5374860000000 1.0
C      1  0.5638930000000  0.5214110000000  0.5440540000000 1.0
C      1  0.5103590000000  0.4695770000000  0.4232680000000 1.0
C      1  0.5694810000000  0.4659350000000  0.4663560000000 1.0
C      1  0.4496590000000  0.4444390000000  0.5426360000000 1.0
C      1  0.4917460000000  0.5627740000000  0.4267730000000 1.0
C      1  0.5558300000000  0.5262370000000  0.4231520000000 1.0
C      1  0.5700580000000  0.5202100000000  0.4881330000000 1.0
C      1  0.4730530000000  0.5403530000000  0.4274620000000 1.0
C      1  0.5703440000000  0.4667140000000  0.5177790000000 1.0
C      1  0.4656110000000  0.4956160000000  0.5165990000000 1.0
C      1  0.4788930000000  0.5130820000000  0.4178190000000 1.0
C      1  0.5417740000000  0.5135770000000  0.4888310000000 1.0
C      1  0.5571440000000  0.5676300000000  0.4712230000000 1.0
C      1  0.4625050000000  0.4951140000000  0.4341960000000 1.0
C      1  0.5789320000000  0.5051910000000  0.5269220000000 1.0
C      1  0.4267280000000  0.5073280000000  0.4831490000000 1.0
C      1  0.5136930000000  0.5764500000000  0.4986100000000 1.0
C      1  0.5182680000000  0.5770020000000  0.5276010000000 1.0
C      1  0.4328600000000  0.5346570000000  0.5243800000000 1.0
C      1  0.5754420000000  0.5438620000000  0.4699070000000 1.0
C      1  0.4481780000000  0.5240520000000  0.5660010000000 1.0
C      1  0.4995250000000  0.4202240000000  0.5540060000000 1.0
C      1  0.4633860000000  0.5118790000000  0.4570740000000 1.0
C      1  0.5385140000000  0.5420810000000  0.5864160000000 1.0
C      1  0.5276400000000  0.4980000000000  0.5100880000000 1.0
C      1  0.5072100000000  0.4834310000000  0.4497290000000 1.0
C      1  0.4528880000000  0.4740000000000  0.5438710000000 1.0
C      1  0.5388700000000  0.4760310000000  0.4225670000000 1.0
C      1  0.5818410000000  0.4707280000000  0.4918500000000 1.0
END
