TITL C-4164242-3624-11 39.3186626427127 125000 -22595.1864539404 0 0 152 (C1) n - 1
REM
REM in /home/nfs/bkarasulu/CARBON/AIRSS/Generating-Clusters/ReaxFF-fromJPCA2015/Units_Real/with-SteepDescent/Only-C1/SD-CG/Try1-3A/FIRE-CG
REM
REM
REM
REM
REM
REM ./C.cell (11c1c37f851c82e70ff6c80c92926a4b)
REM
REM compiler GCC version 9.2.1 20190827 (Red Hat 9.2.1-1)
REM options -cpp -mtune=generic -march=x86-64 -g -O0 -fpre-include=/usr/include/finclude/math-vector-fortran.h
REM seed 1590965155 38789369 -776381723 -129011038 1903377444 631505468 -1232465422 270459135 290458070 -247308647 -1126622959 -1520230294 1959469027 1952503431 520842906 -1047610512 1520076736 -107113674 1270450002 1343397409 -237569430 1561946275 -1450242626 -537258264 1416396169 -920991347 -572488282 -188751463 787734151 307553927 847051433 395227429 -315899200
REM
CELL 1.54180   50.00000   50.00000   50.00000   90.00000   90.00000   90.00000
LATT -1
SFAC C  
C      1  0.5366310000000  0.4695000000000  0.5322100000000 1.0
C      1  0.5209600000000  0.4489990000000  0.5814510000000 1.0
C      1  0.4850680000000  0.4570990000000  0.4077320000000 1.0
C      1  0.5242770000000  0.4773020000000  0.4555040000000 1.0
C      1  0.4978350000000  0.4092550000000  0.5428480000000 1.0
C      1  0.5544650000000  0.4854960000000  0.5501340000000 1.0
C      1  0.5019160000000  0.4890900000000  0.5550180000000 1.0
C      1  0.4310600000000  0.5464650000000  0.4358810000000 1.0
C      1  0.4827290000000  0.4208740000000  0.5646080000000 1.0
C      1  0.4495970000000  0.5103870000000  0.4682620000000 1.0
C      1  0.4391030000000  0.5028000000000  0.5812730000000 1.0
C      1  0.5057100000000  0.4772550000000  0.4004370000000 1.0
C      1  0.4492160000000  0.4402680000000  0.4212120000000 1.0
C      1  0.5276120000000  0.5263680000000  0.4671120000000 1.0
C      1  0.4802960000000  0.5300930000000  0.5438370000000 1.0
C      1  0.4211770000000  0.5452910000000  0.5213980000000 1.0
C      1  0.4806430000000  0.6105560000000  0.5064350000000 1.0
C      1  0.4768220000000  0.4294460000000  0.4150320000000 1.0
C      1  0.5589710000000  0.5071420000000  0.4892530000000 1.0
C      1  0.5152700000000  0.5461570000000  0.4856340000000 1.0
C      1  0.4828430000000  0.5292260000000  0.5994230000000 1.0
C      1  0.5437820000000  0.4520400000000  0.4275920000000 1.0
C      1  0.5050630000000  0.5486450000000  0.4206660000000 1.0
C      1  0.5453480000000  0.4280030000000  0.4682070000000 1.0
C      1  0.4639270000000  0.4038500000000  0.4787460000000 1.0
C      1  0.4916180000000  0.4437380000000  0.5807800000000 1.0
C      1  0.4698840000000  0.4627920000000  0.5841010000000 1.0
C      1  0.5388660000000  0.5919230000000  0.4813840000000 1.0
C      1  0.4928740000000  0.4569880000000  0.5145110000000 1.0
C      1  0.5998040000000  0.4638150000000  0.4727550000000 1.0
C      1  0.4307840000000  0.4701460000000  0.5501620000000 1.0
C      1  0.5614910000000  0.5693260000000  0.5552410000000 1.0
C      1  0.5991780000000  0.4666870000000  0.5244140000000 1.0
C      1  0.4319740000000  0.5745750000000  0.5473010000000 1.0
C      1  0.4185920000000  0.4338860000000  0.5183070000000 1.0
C      1  0.4966500000000  0.4801980000000  0.4971700000000 1.0
C      1  0.4576270000000  0.5249400000000  0.5295000000000 1.0
C      1  0.4994310000000  0.4272370000000  0.4372480000000 1.0
C      1  0.4791130000000  0.5413730000000  0.4314580000000 1.0
C      1  0.4498180000000  0.5470770000000  0.5144710000000 1.0
C      1  0.4615300000000  0.4356990000000  0.4784040000000 1.0
C      1  0.4785750000000  0.4634190000000  0.4360510000000 1.0
C      1  0.5997170000000  0.4967720000000  0.5256640000000 1.0
C      1  0.5827070000000  0.5422820000000  0.5200770000000 1.0
C      1  0.5688350000000  0.4299900000000  0.5164960000000 1.0
C      1  0.5100680000000  0.4677690000000  0.5371370000000 1.0
C      1  0.4157910000000  0.4603560000000  0.5076840000000 1.0
C      1  0.5414750000000  0.5084270000000  0.5626940000000 1.0
C      1  0.4426120000000  0.4680210000000  0.5004590000000 1.0
C      1  0.4452730000000  0.5201860000000  0.4206620000000 1.0
C      1  0.4700590000000  0.5532320000000  0.5900650000000 1.0
C      1  0.5330750000000  0.5681310000000  0.5632510000000 1.0
C      1  0.4726180000000  0.5223010000000  0.4109410000000 1.0
C      1  0.4237370000000  0.5180670000000  0.4646070000000 1.0
C      1  0.5959230000000  0.5399920000000  0.4624870000000 1.0
C      1  0.4908500000000  0.3948700000000  0.4709340000000 1.0
C      1  0.4863420000000  0.4029380000000  0.4443610000000 1.0
C      1  0.5759800000000  0.5036840000000  0.5399670000000 1.0
C      1  0.5107440000000  0.5271310000000  0.5910880000000 1.0
C      1  0.5378120000000  0.4333120000000  0.5628580000000 1.0
C      1  0.5483960000000  0.5367270000000  0.4101690000000 1.0
C      1  0.4574750000000  0.4199540000000  0.5484650000000 1.0
C      1  0.6011340000000  0.5203340000000  0.5099970000000 1.0
C      1  0.3995390000000  0.4726100000000  0.4689350000000 1.0
C      1  0.4738580000000  0.5270390000000  0.4606820000000 1.0
C      1  0.5804590000000  0.5474320000000  0.5502290000000 1.0
C      1  0.5452030000000  0.4116290000000  0.5186060000000 1.0
C      1  0.5785270000000  0.4541760000000  0.4513880000000 1.0
C      1  0.5108430000000  0.5741990000000  0.4754230000000 1.0
C      1  0.4521560000000  0.4005150000000  0.5048790000000 1.0
C      1  0.4861240000000  0.5045490000000  0.4541460000000 1.0
C      1  0.5499460000000  0.4888950000000  0.4011510000000 1.0
C      1  0.5262420000000  0.4159680000000  0.5416270000000 1.0
C      1  0.4950610000000  0.5067170000000  0.5048510000000 1.0
C      1  0.5580560000000  0.4845760000000  0.5944400000000 1.0
C      1  0.5617100000000  0.5126510000000  0.5833380000000 1.0
C      1  0.5530140000000  0.4750200000000  0.4481030000000 1.0
C      1  0.5528630000000  0.5563340000000  0.4308260000000 1.0
C      1  0.4696730000000  0.4883770000000  0.4397120000000 1.0
C      1  0.5336530000000  0.4666060000000  0.4032680000000 1.0
C      1  0.6092620000000  0.4911620000000  0.4700130000000 1.0
C      1  0.5307870000000  0.4745530000000  0.5922960000000 1.0
C      1  0.5004910000000  0.5998700000000  0.5247840000000 1.0
C      1  0.5564310000000  0.5112500000000  0.4028720000000 1.0
C      1  0.4165630000000  0.4940950000000  0.5414540000000 1.0
C      1  0.4327590000000  0.4335160000000  0.4721920000000 1.0
C      1  0.4384200000000  0.5682410000000  0.4522670000000 1.0
C      1  0.5267100000000  0.5681330000000  0.4295600000000 1.0
C      1  0.4216890000000  0.5440200000000  0.5502120000000 1.0
C      1  0.3956980000000  0.5440170000000  0.4809330000000 1.0
C      1  0.5018430000000  0.5132270000000  0.5330770000000 1.0
C      1  0.5314650000000  0.4310460000000  0.4415190000000 1.0
C      1  0.4748470000000  0.6060100000000  0.5355560000000 1.0
C      1  0.4328520000000  0.4629360000000  0.4300540000000 1.0
C      1  0.4063310000000  0.5679170000000  0.4905870000000 1.0
C      1  0.5689490000000  0.4684600000000  0.5733250000000 1.0
C      1  0.4828790000000  0.5754650000000  0.4842360000000 1.0
C      1  0.4832880000000  0.4477880000000  0.4594660000000 1.0
C      1  0.4574340000000  0.5886770000000  0.5528540000000 1.0
C      1  0.4219340000000  0.5906720000000  0.4948680000000 1.0
C      1  0.5367270000000  0.4078920000000  0.4914190000000 1.0
C      1  0.5197580000000  0.4994340000000  0.5775030000000 1.0
C      1  0.4888060000000  0.5315170000000  0.4877950000000 1.0
C      1  0.4189150000000  0.4546230000000  0.4559820000000 1.0
C      1  0.4080810000000  0.5373800000000  0.4525510000000 1.0
C      1  0.4021920000000  0.5009960000000  0.5159290000000 1.0
C      1  0.5056340000000  0.4625400000000  0.4750690000000 1.0
C      1  0.5328260000000  0.6101340000000  0.4583200000000 1.0
C      1  0.4021680000000  0.5282170000000  0.5062150000000 1.0
C      1  0.5148890000000  0.5878840000000  0.4480600000000 1.0
C      1  0.5236710000000  0.5763320000000  0.5310880000000 1.0
C      1  0.4280610000000  0.4170100000000  0.4966350000000 1.0
C      1  0.4992880000000  0.5055740000000  0.4030650000000 1.0
C      1  0.5473680000000  0.4555270000000  0.4844380000000 1.0
C      1  0.5578820000000  0.5184090000000  0.5172100000000 1.0
C      1  0.5321380000000  0.5272780000000  0.5310560000000 1.0
C      1  0.5702360000000  0.5690570000000  0.5088430000000 1.0
C      1  0.4236450000000  0.5166760000000  0.5598580000000 1.0
C      1  0.4666630000000  0.5073880000000  0.5896780000000 1.0
C      1  0.4422450000000  0.4434060000000  0.5346990000000 1.0
C      1  0.5560850000000  0.5259270000000  0.4671470000000 1.0
C      1  0.5219310000000  0.5481140000000  0.5774750000000 1.0
C      1  0.4426500000000  0.5893740000000  0.4710820000000 1.0
C      1  0.5229820000000  0.5506620000000  0.5168560000000 1.0
C      1  0.4712520000000  0.5534090000000  0.4971820000000 1.0
C      1  0.4811270000000  0.4871100000000  0.5752160000000 1.0
C      1  0.5660990000000  0.4425070000000  0.5614770000000 1.0
C      1  0.4690480000000  0.4029200000000  0.5288720000000 1.0
C      1  0.5745430000000  0.4261110000000  0.4530710000000 1.0
C      1  0.5543290000000  0.5816850000000  0.5299120000000 1.0
C      1  0.5180690000000  0.5270220000000  0.4061580000000 1.0
C      1  0.4681840000000  0.5998820000000  0.4812550000000 1.0
C      1  0.4613480000000  0.4497420000000  0.5098630000000 1.0
C      1  0.3949630000000  0.4783310000000  0.4979950000000 1.0
C      1  0.5808240000000  0.5227500000000  0.5644380000000 1.0
C      1  0.5063000000000  0.4403770000000  0.4943430000000 1.0
C      1  0.4438070000000  0.4917260000000  0.4274770000000 1.0
C      1  0.5084430000000  0.4119440000000  0.4898450000000 1.0
C      1  0.4497960000000  0.4938770000000  0.4941900000000 1.0
C      1  0.4531110000000  0.5031410000000  0.5156980000000 1.0
C      1  0.5963670000000  0.4555590000000  0.4997170000000 1.0
C      1  0.5692190000000  0.5537990000000  0.4585530000000 1.0
C      1  0.5588780000000  0.4800370000000  0.4775140000000 1.0
C      1  0.5502630000000  0.4534380000000  0.5121220000000 1.0
C      1  0.6069200000000  0.5191200000000  0.4804580000000 1.0
C      1  0.4802760000000  0.5492860000000  0.5641640000000 1.0
C      1  0.5839450000000  0.4434720000000  0.5373450000000 1.0
C      1  0.4423640000000  0.4740500000000  0.5755490000000 1.0
C      1  0.4282980000000  0.5857070000000  0.5222920000000 1.0
C      1  0.5140720000000  0.5036860000000  0.4559600000000 1.0
C      1  0.5623470000000  0.5748820000000  0.4827260000000 1.0
C      1  0.4746500000000  0.5748300000000  0.5716780000000 1.0
END
