TITL C-4164234-2335-420 9.94324734416725 125000 -21389.054572701 0 0 145 (C1) n - 1
REM
REM in /home/nfs/bkarasulu/CARBON/AIRSS/Generating-Clusters/ReaxFF-fromJPCA2015/Units_Real/with-SteepDescent/Only-C1/SD-CG/Try1-3A/FIRE-CG
REM
REM
REM
REM
REM
REM ./C.cell (11c1c37f851c82e70ff6c80c92926a4b)
REM
REM compiler GCC version 9.2.1 20190827 (Red Hat 9.2.1-1)
REM options -cpp -mtune=generic -march=x86-64 -g -O0 -fpre-include=/usr/include/finclude/math-vector-fortran.h
REM seed -23590338 -846569692 1844811801 -136662412 -479836785 465304904 704025572 1036362483 153853258 -199335167 1015125233 -1992152693 916239940 992434690 -2087616275 1870068727 1384871449 474308849 -1294562434 204274375 -1873114766 -78536007 1506538764 511797145 892230610 1362135322 -472612601 -1679068941 53231850 977611514 49382940 2140056927 911782870
REM
CELL 1.54180   50.00000   50.00000   50.00000   90.00000   90.00000   90.00000
LATT -1
SFAC C  
C      1  0.4424350000000  0.4790980000000  0.5355160000000 1.0
C      1  0.5057450000000  0.4430660000000  0.4732470000000 1.0
C      1  0.4950730000000  0.5127000000000  0.5754900000000 1.0
C      1  0.5359960000000  0.5629410000000  0.5768270000000 1.0
C      1  0.4930240000000  0.5445080000000  0.4623260000000 1.0
C      1  0.5260550000000  0.4666670000000  0.4141720000000 1.0
C      1  0.4687460000000  0.5686370000000  0.4338160000000 1.0
C      1  0.5158510000000  0.4166650000000  0.4422330000000 1.0
C      1  0.4133610000000  0.4477150000000  0.5030690000000 1.0
C      1  0.3983230000000  0.5293180000000  0.4637420000000 1.0
C      1  0.4760470000000  0.5217270000000  0.5053750000000 1.0
C      1  0.4358460000000  0.5741850000000  0.4933870000000 1.0
C      1  0.5887730000000  0.4593580000000  0.5035350000000 1.0
C      1  0.4932590000000  0.5822740000000  0.5746190000000 1.0
C      1  0.4697990000000  0.4444420000000  0.5769480000000 1.0
C      1  0.3974460000000  0.5478070000000  0.5093450000000 1.0
C      1  0.5308270000000  0.4493410000000  0.4847200000000 1.0
C      1  0.5324650000000  0.5828780000000  0.4555540000000 1.0
C      1  0.4071310000000  0.5018840000000  0.4571030000000 1.0
C      1  0.5728750000000  0.4449720000000  0.5457340000000 1.0
C      1  0.4389380000000  0.4947880000000  0.5802030000000 1.0
C      1  0.5656900000000  0.4964640000000  0.5678900000000 1.0
C      1  0.4458410000000  0.5124010000000  0.5574540000000 1.0
C      1  0.4863920000000  0.5870990000000  0.4494450000000 1.0
C      1  0.5289320000000  0.5949060000000  0.5407200000000 1.0
C      1  0.5319350000000  0.5258040000000  0.5497920000000 1.0
C      1  0.4925330000000  0.5967790000000  0.4776550000000 1.0
C      1  0.5199960000000  0.4776290000000  0.4447280000000 1.0
C      1  0.4158050000000  0.4758450000000  0.4528830000000 1.0
C      1  0.5393050000000  0.4041900000000  0.5168440000000 1.0
C      1  0.5303270000000  0.4680170000000  0.6015010000000 1.0
C      1  0.4401130000000  0.5516960000000  0.5594700000000 1.0
C      1  0.4717290000000  0.4764190000000  0.5376210000000 1.0
C      1  0.5111420000000  0.4850500000000  0.5420560000000 1.0
C      1  0.4818940000000  0.4809000000000  0.4035940000000 1.0
C      1  0.5606470000000  0.4826220000000  0.4421620000000 1.0
C      1  0.5670930000000  0.4348710000000  0.4537110000000 1.0
C      1  0.3829270000000  0.5327680000000  0.4896290000000 1.0
C      1  0.3848920000000  0.5231640000000  0.5176410000000 1.0
C      1  0.5124910000000  0.4012730000000  0.4672090000000 1.0
C      1  0.4862240000000  0.4918600000000  0.4943100000000 1.0
C      1  0.4574480000000  0.5115940000000  0.5953940000000 1.0
C      1  0.5023720000000  0.6000600000000  0.5283790000000 1.0
C      1  0.4967600000000  0.4607860000000  0.4519940000000 1.0
C      1  0.4482460000000  0.5291080000000  0.4483910000000 1.0
C      1  0.5970180000000  0.5138990000000  0.4681380000000 1.0
C      1  0.5261650000000  0.5347490000000  0.4080640000000 1.0
C      1  0.5291420000000  0.4641470000000  0.5326150000000 1.0
C      1  0.5501310000000  0.4271610000000  0.5561490000000 1.0
C      1  0.4453310000000  0.5218450000000  0.5004510000000 1.0
C      1  0.4593950000000  0.4930410000000  0.4165180000000 1.0
C      1  0.5855810000000  0.5387320000000  0.4630030000000 1.0
C      1  0.5507110000000  0.5319450000000  0.4239200000000 1.0
C      1  0.4631610000000  0.4293880000000  0.4383550000000 1.0
C      1  0.4342710000000  0.4285920000000  0.5114170000000 1.0
C      1  0.4925070000000  0.4349980000000  0.4292090000000 1.0
C      1  0.5023340000000  0.4716360000000  0.6065530000000 1.0
C      1  0.4567140000000  0.5404340000000  0.5839760000000 1.0
C      1  0.5337640000000  0.4745640000000  0.4996900000000 1.0
C      1  0.4868390000000  0.5202980000000  0.5307290000000 1.0
C      1  0.5869860000000  0.5411560000000  0.5359100000000 1.0
C      1  0.4442890000000  0.5634710000000  0.5327730000000 1.0
C      1  0.5475030000000  0.5205460000000  0.4879760000000 1.0
C      1  0.5399960000000  0.4911270000000  0.4012260000000 1.0
C      1  0.4288410000000  0.5500150000000  0.5100450000000 1.0
C      1  0.4747850000000  0.5176880000000  0.5543930000000 1.0
C      1  0.4259020000000  0.4715150000000  0.4955320000000 1.0
C      1  0.4668420000000  0.4729080000000  0.4600660000000 1.0
C      1  0.4960120000000  0.5368990000000  0.4902590000000 1.0
C      1  0.5912750000000  0.5126220000000  0.5389360000000 1.0
C      1  0.5620180000000  0.5532410000000  0.5675580000000 1.0
C      1  0.5476210000000  0.4439130000000  0.4173020000000 1.0
C      1  0.4773170000000  0.5608530000000  0.5876090000000 1.0
C      1  0.5626600000000  0.4186520000000  0.5045790000000 1.0
C      1  0.4452880000000  0.4733250000000  0.4380760000000 1.0
C      1  0.5288720000000  0.4115950000000  0.5442470000000 1.0
C      1  0.4447450000000  0.4435640000000  0.5613140000000 1.0
C      1  0.5206890000000  0.5939930000000  0.4790020000000 1.0
C      1  0.5812980000000  0.4856560000000  0.5440070000000 1.0
C      1  0.4781600000000  0.4184340000000  0.5352200000000 1.0
C      1  0.4979170000000  0.5286240000000  0.4189270000000 1.0
C      1  0.4880420000000  0.5809620000000  0.5454110000000 1.0
C      1  0.5565740000000  0.5029860000000  0.4211920000000 1.0
C      1  0.4551040000000  0.4610770000000  0.4871260000000 1.0
C      1  0.5099570000000  0.4461360000000  0.5218480000000 1.0
C      1  0.6041410000000  0.4880980000000  0.4702810000000 1.0
C      1  0.4896980000000  0.4186330000000  0.4792160000000 1.0
C      1  0.5573820000000  0.5239510000000  0.5617450000000 1.0
C      1  0.5140280000000  0.4909720000000  0.4871210000000 1.0
C      1  0.4341380000000  0.4713340000000  0.5620270000000 1.0
C      1  0.5433610000000  0.4225560000000  0.4361450000000 1.0
C      1  0.4630150000000  0.4178640000000  0.4649120000000 1.0
C      1  0.4076900000000  0.4607840000000  0.4774850000000 1.0
C      1  0.5790750000000  0.4825910000000  0.5149880000000 1.0
C      1  0.4472340000000  0.4313180000000  0.4852960000000 1.0
C      1  0.4332290000000  0.5661990000000  0.4658800000000 1.0
C      1  0.4560410000000  0.5548220000000  0.4543170000000 1.0
C      1  0.5478200000000  0.4533820000000  0.5519820000000 1.0
C      1  0.5100660000000  0.4451730000000  0.5987000000000 1.0
C      1  0.5013320000000  0.4155400000000  0.5536390000000 1.0
C      1  0.4737930000000  0.4992140000000  0.4678260000000 1.0
C      1  0.4772670000000  0.4704240000000  0.5663990000000 1.0
C      1  0.5804440000000  0.4373080000000  0.5182150000000 1.0
C      1  0.5228510000000  0.5298600000000  0.5009900000000 1.0
C      1  0.5216480000000  0.5019860000000  0.4610690000000 1.0
C      1  0.4977700000000  0.4566630000000  0.4097490000000 1.0
C      1  0.4975740000000  0.5174330000000  0.4513070000000 1.0
C      1  0.5223150000000  0.5869190000000  0.5686770000000 1.0
C      1  0.4813470000000  0.4910460000000  0.5906850000000 1.0
C      1  0.5230100000000  0.5118440000000  0.3901660000000 1.0
C      1  0.4221440000000  0.5294930000000  0.5535740000000 1.0
C      1  0.4730510000000  0.5453140000000  0.4168070000000 1.0
C      1  0.5157460000000  0.5455830000000  0.5629310000000 1.0
C      1  0.4500090000000  0.4270720000000  0.5368500000000 1.0
C      1  0.5698480000000  0.5655110000000  0.5421280000000 1.0
C      1  0.5580050000000  0.4929210000000  0.4936520000000 1.0
C      1  0.5896090000000  0.4629330000000  0.4747920000000 1.0
C      1  0.5621140000000  0.5658040000000  0.4899510000000 1.0
C      1  0.4570700000000  0.5809520000000  0.5125640000000 1.0
C      1  0.4879420000000  0.4337180000000  0.5110460000000 1.0
C      1  0.4292390000000  0.4989880000000  0.5172180000000 1.0
C      1  0.5413610000000  0.4865650000000  0.5816490000000 1.0
C      1  0.4487700000000  0.5138620000000  0.4724790000000 1.0
C      1  0.5375820000000  0.5757710000000  0.5019780000000 1.0
C      1  0.5078770000000  0.5681330000000  0.4473770000000 1.0
C      1  0.4081740000000  0.5135640000000  0.5327420000000 1.0
C      1  0.5663100000000  0.5486890000000  0.4423000000000 1.0
C      1  0.4442470000000  0.4502290000000  0.4355900000000 1.0
C      1  0.5265050000000  0.4007120000000  0.4919260000000 1.0
C      1  0.4951320000000  0.5066740000000  0.3971980000000 1.0
C      1  0.5157970000000  0.4931960000000  0.5685750000000 1.0
C      1  0.4951210000000  0.4291600000000  0.5786700000000 1.0
C      1  0.4832940000000  0.5934360000000  0.5063780000000 1.0
C      1  0.4564700000000  0.5215270000000  0.4215100000000 1.0
C      1  0.5522880000000  0.5835020000000  0.5266190000000 1.0
C      1  0.5584400000000  0.5696590000000  0.4605550000000 1.0
C      1  0.5700950000000  0.5379810000000  0.4867410000000 1.0
C      1  0.5047690000000  0.5580110000000  0.5384560000000 1.0
C      1  0.5658610000000  0.4795460000000  0.4693560000000 1.0
C      1  0.5686470000000  0.4556600000000  0.4331500000000 1.0
C      1  0.4154840000000  0.5511460000000  0.4657490000000 1.0
C      1  0.5149530000000  0.5118480000000  0.5298250000000 1.0
C      1  0.5543400000000  0.4328750000000  0.4799910000000 1.0
C      1  0.4753810000000  0.4667790000000  0.5088220000000 1.0
C      1  0.5215440000000  0.5546030000000  0.5152820000000 1.0
END
