TITL C-4164245-3996-366 -5.79267978341086 125000 -17923.9243133308 0 0 120 (C1) n - 1
REM
REM in /home/nfs/bkarasulu/CARBON/AIRSS/Generating-Clusters/ReaxFF-fromJPCA2015/Units_Real/with-SteepDescent/Only-C1/SD-CG/Try1-3A/FIRE-CG
REM
REM
REM
REM
REM
REM ./C.cell (11c1c37f851c82e70ff6c80c92926a4b)
REM
REM compiler GCC version 9.2.1 20190827 (Red Hat 9.2.1-1)
REM options -cpp -mtune=generic -march=x86-64 -g -O0 -fpre-include=/usr/include/finclude/math-vector-fortran.h
REM seed 1067593283 1054221208 957819130 1933007592 -1735073858 -1424198586 -1665447921 -380476812 1308726539 1252800297 1368706028 -1756497186 1587272324 -1138245373 -1064936573 875389327 114789148 -1210612537 -1492546512 -2105703813 1851915092 -1110254548 -1443025183 1216136366 1120814032 -128529297 -175948196 -504968568 -598709580 765812517 -928163824 -1048633144 293200726
REM
CELL 1.54180   50.00000   50.00000   50.00000   90.00000   90.00000   90.00000
LATT -1
SFAC C  
C      1  0.4565660000000  0.4759000000000  0.4624360000000 1.0
C      1  0.4443170000000  0.5363270000000  0.4460000000000 1.0
C      1  0.3926050000000  0.4923500000000  0.4981100000000 1.0
C      1  0.4889900000000  0.4269710000000  0.4614970000000 1.0
C      1  0.5413620000000  0.4835010000000  0.4214010000000 1.0
C      1  0.5017430000000  0.5371330000000  0.4835000000000 1.0
C      1  0.5237340000000  0.5848060000000  0.5586740000000 1.0
C      1  0.4787460000000  0.5016940000000  0.5917490000000 1.0
C      1  0.5472980000000  0.4663210000000  0.5382910000000 1.0
C      1  0.4498130000000  0.4934870000000  0.4242790000000 1.0
C      1  0.4931850000000  0.5102060000000  0.5492920000000 1.0
C      1  0.4737760000000  0.5048250000000  0.5323670000000 1.0
C      1  0.5544320000000  0.4370850000000  0.5305400000000 1.0
C      1  0.5022120000000  0.4792460000000  0.4642150000000 1.0
C      1  0.5187470000000  0.5887810000000  0.4906070000000 1.0
C      1  0.5343260000000  0.5326640000000  0.4742360000000 1.0
C      1  0.5679440000000  0.5644510000000  0.4532200000000 1.0
C      1  0.4810060000000  0.5168530000000  0.4812160000000 1.0
C      1  0.4650420000000  0.4251000000000  0.4488980000000 1.0
C      1  0.4749110000000  0.4764500000000  0.5336350000000 1.0
C      1  0.4748220000000  0.4017090000000  0.4661180000000 1.0
C      1  0.5700750000000  0.4923180000000  0.5603160000000 1.0
C      1  0.5610080000000  0.4351750000000  0.4364730000000 1.0
C      1  0.5621550000000  0.4637860000000  0.4347620000000 1.0
C      1  0.5374040000000  0.5078920000000  0.4917210000000 1.0
C      1  0.5225570000000  0.4814480000000  0.5310030000000 1.0
C      1  0.5166910000000  0.4516440000000  0.4987730000000 1.0
C      1  0.4504170000000  0.4650180000000  0.5669350000000 1.0
C      1  0.5535600000000  0.5573830000000  0.4778350000000 1.0
C      1  0.5914860000000  0.5470350000000  0.5170960000000 1.0
C      1  0.5641490000000  0.5204600000000  0.5554520000000 1.0
C      1  0.4347690000000  0.4356500000000  0.4871180000000 1.0
C      1  0.5756030000000  0.5255220000000  0.5270500000000 1.0
C      1  0.5497740000000  0.4726920000000  0.5671810000000 1.0
C      1  0.4529100000000  0.5547720000000  0.4670850000000 1.0
C      1  0.5007230000000  0.4760520000000  0.4939980000000 1.0
C      1  0.4562050000000  0.4524040000000  0.4445690000000 1.0
C      1  0.4210200000000  0.5429690000000  0.5106280000000 1.0
C      1  0.5910840000000  0.5141950000000  0.4542840000000 1.0
C      1  0.4057780000000  0.4685160000000  0.5071030000000 1.0
C      1  0.5063960000000  0.5842400000000  0.5150010000000 1.0
C      1  0.5041010000000  0.5364320000000  0.5136180000000 1.0
C      1  0.5806650000000  0.4635690000000  0.4599720000000 1.0
C      1  0.4981800000000  0.5759650000000  0.5696960000000 1.0
C      1  0.5391460000000  0.5127230000000  0.4225430000000 1.0
C      1  0.5047580000000  0.4528120000000  0.5697580000000 1.0
C      1  0.5469660000000  0.4107680000000  0.4865010000000 1.0
C      1  0.4950480000000  0.3937750000000  0.4833810000000 1.0
C      1  0.4196940000000  0.5201200000000  0.4463100000000 1.0
C      1  0.4768320000000  0.5308020000000  0.5864520000000 1.0
C      1  0.5772920000000  0.4911400000000  0.4674320000000 1.0
C      1  0.5414580000000  0.5644250000000  0.5423310000000 1.0
C      1  0.4297450000000  0.5007480000000  0.5728500000000 1.0
C      1  0.5812290000000  0.4508990000000  0.4896520000000 1.0
C      1  0.4142610000000  0.4563810000000  0.4811610000000 1.0
C      1  0.5618760000000  0.5772350000000  0.5195540000000 1.0
C      1  0.5066990000000  0.4596800000000  0.4430110000000 1.0
C      1  0.5471480000000  0.5417010000000  0.5632600000000 1.0
C      1  0.5136140000000  0.5100810000000  0.5687410000000 1.0
C      1  0.4642240000000  0.4681280000000  0.4209450000000 1.0
C      1  0.5180660000000  0.4019510000000  0.4977250000000 1.0
C      1  0.5244400000000  0.5360780000000  0.5801120000000 1.0
C      1  0.4940100000000  0.5545410000000  0.4359220000000 1.0
C      1  0.5045870000000  0.4256250000000  0.5082840000000 1.0
C      1  0.5162930000000  0.5020660000000  0.5103700000000 1.0
C      1  0.4206420000000  0.4692110000000  0.5332160000000 1.0
C      1  0.5406130000000  0.4331630000000  0.4629820000000 1.0
C      1  0.5059580000000  0.4904260000000  0.5905200000000 1.0
C      1  0.4877610000000  0.4238160000000  0.5332420000000 1.0
C      1  0.4648530000000  0.5536930000000  0.5469510000000 1.0
C      1  0.4307690000000  0.5296400000000  0.5639370000000 1.0
C      1  0.5419660000000  0.5323640000000  0.4445560000000 1.0
C      1  0.4391630000000  0.5053920000000  0.4978360000000 1.0
C      1  0.5383420000000  0.4577680000000  0.4811890000000 1.0
C      1  0.5327490000000  0.4266210000000  0.5441330000000 1.0
C      1  0.5874320000000  0.4669000000000  0.5118290000000 1.0
C      1  0.5009440000000  0.4683340000000  0.5446360000000 1.0
C      1  0.5169080000000  0.5723250000000  0.4406070000000 1.0
C      1  0.4567790000000  0.5401170000000  0.5693340000000 1.0
C      1  0.5886430000000  0.5702290000000  0.5157210000000 1.0
C      1  0.3997140000000  0.5191770000000  0.4671430000000 1.0
C      1  0.4246410000000  0.4920420000000  0.4393660000000 1.0
C      1  0.6123150000000  0.5335720000000  0.4642460000000 1.0
C      1  0.4844260000000  0.5597010000000  0.4643910000000 1.0
C      1  0.5889510000000  0.5437710000000  0.4481890000000 1.0
C      1  0.5466960000000  0.5802240000000  0.4945760000000 1.0
C      1  0.4215290000000  0.4934760000000  0.5469410000000 1.0
C      1  0.5162370000000  0.5599790000000  0.5257600000000 1.0
C      1  0.4930490000000  0.4647400000000  0.4172720000000 1.0
C      1  0.4543520000000  0.4864040000000  0.5843990000000 1.0
C      1  0.4700730000000  0.4666710000000  0.5053440000000 1.0
C      1  0.4587370000000  0.4370290000000  0.5044510000000 1.0
C      1  0.4483510000000  0.4799930000000  0.4897180000000 1.0
C      1  0.5145510000000  0.4823320000000  0.4077600000000 1.0
C      1  0.4723190000000  0.5438140000000  0.5199590000000 1.0
C      1  0.5048770000000  0.5821300000000  0.4656640000000 1.0
C      1  0.4125290000000  0.5167940000000  0.4950650000000 1.0
C      1  0.5888050000000  0.4844050000000  0.5345430000000 1.0
C      1  0.4992210000000  0.5493810000000  0.5841810000000 1.0
C      1  0.4795000000000  0.5883840000000  0.5216070000000 1.0
C      1  0.5071990000000  0.4259640000000  0.5560670000000 1.0
C      1  0.5246410000000  0.4688650000000  0.5835840000000 1.0
C      1  0.4413950000000  0.4496090000000  0.5465970000000 1.0
C      1  0.5141120000000  0.4323710000000  0.4494440000000 1.0
C      1  0.4786580000000  0.4960700000000  0.4615600000000 1.0
C      1  0.4647180000000  0.5694170000000  0.5046630000000 1.0
C      1  0.5438070000000  0.5606790000000  0.4362690000000 1.0
C      1  0.5110650000000  0.5115590000000  0.4120530000000 1.0
C      1  0.4892180000000  0.5286280000000  0.4224860000000 1.0
C      1  0.3898320000000  0.4918010000000  0.4690900000000 1.0
C      1  0.4625090000000  0.5194690000000  0.5053190000000 1.0
C      1  0.4593150000000  0.4297420000000  0.5326020000000 1.0
C      1  0.5500110000000  0.4849830000000  0.4793960000000 1.0
C      1  0.4762910000000  0.5794840000000  0.5492410000000 1.0
C      1  0.4092850000000  0.4737670000000  0.4569540000000 1.0
C      1  0.4616520000000  0.5203560000000  0.4278830000000 1.0
C      1  0.5653520000000  0.4305150000000  0.5033750000000 1.0
C      1  0.5932840000000  0.5064820000000  0.5188260000000 1.0
C      1  0.4234720000000  0.5333880000000  0.5362810000000 1.0
C      1  0.4401150000000  0.5601560000000  0.4927950000000 1.0
END
