TITL C-4164241-3639-506 7.43217919411495 125000 -19846.8308282511 0 0 134 (C1) n - 1
REM
REM in /home/nfs/bkarasulu/CARBON/AIRSS/Generating-Clusters/ReaxFF-fromJPCA2015/Units_Real/with-SteepDescent/Only-C1/SD-CG/Try1-3A/FIRE-CG
REM
REM
REM
REM
REM
REM ./C.cell (11c1c37f851c82e70ff6c80c92926a4b)
REM
REM compiler GCC version 9.2.1 20190827 (Red Hat 9.2.1-1)
REM options -cpp -mtune=generic -march=x86-64 -g -O0 -fpre-include=/usr/include/finclude/math-vector-fortran.h
REM seed -1844741688 1596146713 1611653785 1290243610 1250793764 1418598959 -1104697138 -1776249022 1548570179 1707843891 389809795 -93823780 -1945271667 -947751396 -1684651734 1446639339 -921782558 -1301850521 1169291872 -1252238068 -613837522 884205842 -1909022050 250792944 1020357520 -85790190 129262947 -1546384781 1355589468 168413081 -32653373 -1499850920 -211474528
REM
CELL 1.54180   50.00000   50.00000   50.00000   90.00000   90.00000   90.00000
LATT -1
SFAC C  
C      1  0.5901010000000  0.4579860000000  0.4910930000000 1.0
C      1  0.5237990000000  0.4421660000000  0.4303280000000 1.0
C      1  0.4031590000000  0.4717460000000  0.5073090000000 1.0
C      1  0.4220260000000  0.5216210000000  0.4599670000000 1.0
C      1  0.4864930000000  0.4701790000000  0.4819360000000 1.0
C      1  0.5457870000000  0.5771460000000  0.4602610000000 1.0
C      1  0.4998580000000  0.4434730000000  0.5662150000000 1.0
C      1  0.4543540000000  0.4517950000000  0.4337560000000 1.0
C      1  0.5266380000000  0.4412120000000  0.4706470000000 1.0
C      1  0.5236950000000  0.5506160000000  0.4191840000000 1.0
C      1  0.5143400000000  0.5067710000000  0.4097400000000 1.0
C      1  0.4756850000000  0.6046450000000  0.4723710000000 1.0
C      1  0.5620210000000  0.5243030000000  0.5559160000000 1.0
C      1  0.5745620000000  0.4594810000000  0.4499300000000 1.0
C      1  0.5882780000000  0.5293160000000  0.4712880000000 1.0
C      1  0.5701240000000  0.5006570000000  0.5114870000000 1.0
C      1  0.4535530000000  0.5161770000000  0.4712270000000 1.0
C      1  0.4666790000000  0.5307780000000  0.5299050000000 1.0
C      1  0.5243320000000  0.5695260000000  0.4411980000000 1.0
C      1  0.4890090000000  0.4634790000000  0.4044790000000 1.0
C      1  0.4374000000000  0.5274770000000  0.5767650000000 1.0
C      1  0.5400190000000  0.5726120000000  0.5187660000000 1.0
C      1  0.4709840000000  0.4287670000000  0.4444020000000 1.0
C      1  0.5257870000000  0.4515460000000  0.5775690000000 1.0
C      1  0.5366800000000  0.4901070000000  0.4757720000000 1.0
C      1  0.4184950000000  0.5515430000000  0.4664360000000 1.0
C      1  0.4904700000000  0.4815620000000  0.4542360000000 1.0
C      1  0.4419940000000  0.4935070000000  0.4921510000000 1.0
C      1  0.4898690000000  0.4897220000000  0.5524500000000 1.0
C      1  0.5375130000000  0.4713110000000  0.5582370000000 1.0
C      1  0.4545970000000  0.5084290000000  0.4261490000000 1.0
C      1  0.5812350000000  0.5481560000000  0.4877430000000 1.0
C      1  0.4591580000000  0.4562220000000  0.5139700000000 1.0
C      1  0.5451520000000  0.4575120000000  0.5112560000000 1.0
C      1  0.5847560000000  0.5152930000000  0.4526110000000 1.0
C      1  0.4689480000000  0.4193130000000  0.5265450000000 1.0
C      1  0.4504840000000  0.4968690000000  0.5176430000000 1.0
C      1  0.5297740000000  0.5240210000000  0.5103430000000 1.0
C      1  0.4813520000000  0.5867010000000  0.4535500000000 1.0
C      1  0.4755790000000  0.5702390000000  0.5083000000000 1.0
C      1  0.5493150000000  0.5325460000000  0.4176480000000 1.0
C      1  0.5243180000000  0.3933050000000  0.5054000000000 1.0
C      1  0.4161190000000  0.4915870000000  0.5549900000000 1.0
C      1  0.5440340000000  0.5057790000000  0.4055080000000 1.0
C      1  0.4350730000000  0.4500750000000  0.4719660000000 1.0
C      1  0.4920740000000  0.5943500000000  0.5139850000000 1.0
C      1  0.5749300000000  0.4409150000000  0.4722600000000 1.0
C      1  0.5501600000000  0.4813540000000  0.4178940000000 1.0
C      1  0.4804490000000  0.4650590000000  0.5717590000000 1.0
C      1  0.4419540000000  0.5550860000000  0.5663510000000 1.0
C      1  0.5670330000000  0.5275920000000  0.4368330000000 1.0
C      1  0.4563820000000  0.4672270000000  0.4869630000000 1.0
C      1  0.4087990000000  0.5443260000000  0.4931000000000 1.0
C      1  0.5781250000000  0.5213440000000  0.5300630000000 1.0
C      1  0.5601770000000  0.5552800000000  0.5586600000000 1.0
C      1  0.4753520000000  0.5357430000000  0.4747830000000 1.0
C      1  0.4726960000000  0.4809550000000  0.5244470000000 1.0
C      1  0.5147170000000  0.4572450000000  0.5157340000000 1.0
C      1  0.4433510000000  0.4529450000000  0.5646220000000 1.0
C      1  0.4600960000000  0.5578960000000  0.4293730000000 1.0
C      1  0.4694940000000  0.5034940000000  0.4500780000000 1.0
C      1  0.4222720000000  0.5531760000000  0.5435470000000 1.0
C      1  0.4798750000000  0.5183180000000  0.5522680000000 1.0
C      1  0.5026180000000  0.4069680000000  0.4624090000000 1.0
C      1  0.4393220000000  0.5709740000000  0.4714450000000 1.0
C      1  0.4543160000000  0.5797480000000  0.4469920000000 1.0
C      1  0.4794710000000  0.5012320000000  0.6000250000000 1.0
C      1  0.5022120000000  0.6006140000000  0.5428790000000 1.0
C      1  0.4250330000000  0.5567450000000  0.5146810000000 1.0
C      1  0.4523340000000  0.5043720000000  0.5857920000000 1.0
C      1  0.5345350000000  0.5914340000000  0.4818910000000 1.0
C      1  0.5489510000000  0.4090840000000  0.5013010000000 1.0
C      1  0.5017660000000  0.4241880000000  0.4406650000000 1.0
C      1  0.5351560000000  0.5655000000000  0.5689570000000 1.0
C      1  0.4902330000000  0.5420020000000  0.5658730000000 1.0
C      1  0.4476870000000  0.5710340000000  0.4998920000000 1.0
C      1  0.5103810000000  0.5153680000000  0.4385630000000 1.0
C      1  0.5506440000000  0.4246130000000  0.4768830000000 1.0
C      1  0.4221840000000  0.4481000000000  0.5445060000000 1.0
C      1  0.5818470000000  0.4358720000000  0.5397650000000 1.0
C      1  0.5075750000000  0.5125740000000  0.5998150000000 1.0
C      1  0.5473770000000  0.5061880000000  0.4958910000000 1.0
C      1  0.4139880000000  0.4935130000000  0.4936150000000 1.0
C      1  0.5547010000000  0.4283860000000  0.5253240000000 1.0
C      1  0.5509960000000  0.4573740000000  0.4305220000000 1.0
C      1  0.5585180000000  0.5020690000000  0.5779120000000 1.0
C      1  0.4900310000000  0.4741570000000  0.5983180000000 1.0
C      1  0.4310650000000  0.4966410000000  0.4390320000000 1.0
C      1  0.4335250000000  0.4679050000000  0.4461380000000 1.0
C      1  0.5196660000000  0.4932300000000  0.5507930000000 1.0
C      1  0.5359140000000  0.5520860000000  0.4984670000000 1.0
C      1  0.5088270000000  0.4382050000000  0.5384290000000 1.0
C      1  0.5193050000000  0.5424780000000  0.5618380000000 1.0
C      1  0.4998690000000  0.5638080000000  0.4563810000000 1.0
C      1  0.5028420000000  0.4446890000000  0.4900270000000 1.0
C      1  0.5243780000000  0.5954420000000  0.5074420000000 1.0
C      1  0.4992360000000  0.3981850000000  0.4882780000000 1.0
C      1  0.4788880000000  0.4663950000000  0.4297690000000 1.0
C      1  0.4061230000000  0.4714820000000  0.5368260000000 1.0
C      1  0.5660400000000  0.5658920000000  0.5323890000000 1.0
C      1  0.4404310000000  0.5198820000000  0.5285220000000 1.0
C      1  0.4579730000000  0.4249460000000  0.4723820000000 1.0
C      1  0.5916040000000  0.4835870000000  0.4543320000000 1.0
C      1  0.5338070000000  0.4979760000000  0.5950760000000 1.0
C      1  0.4674940000000  0.5364620000000  0.4147550000000 1.0
C      1  0.4340870000000  0.4408420000000  0.5181240000000 1.0
C      1  0.5147760000000  0.4535420000000  0.4052450000000 1.0
C      1  0.5020640000000  0.5150190000000  0.5053370000000 1.0
C      1  0.4955480000000  0.4864830000000  0.5058690000000 1.0
C      1  0.4802190000000  0.4201250000000  0.4962930000000 1.0
C      1  0.5208780000000  0.5918670000000  0.5628290000000 1.0
C      1  0.4170070000000  0.4491160000000  0.4958170000000 1.0
C      1  0.5311240000000  0.5198440000000  0.5452450000000 1.0
C      1  0.5557090000000  0.5539990000000  0.4769700000000 1.0
C      1  0.5170670000000  0.4938490000000  0.4558270000000 1.0
C      1  0.5656460000000  0.4771440000000  0.5656140000000 1.0
C      1  0.4204040000000  0.5225330000000  0.5516630000000 1.0
C      1  0.5198550000000  0.4718490000000  0.5981560000000 1.0
C      1  0.5237770000000  0.3999940000000  0.5329740000000 1.0
C      1  0.4621650000000  0.4353340000000  0.5499560000000 1.0
C      1  0.5083800000000  0.4810830000000  0.3971700000000 1.0
C      1  0.4964780000000  0.5431910000000  0.4112520000000 1.0
C      1  0.4700690000000  0.5645010000000  0.5681070000000 1.0
C      1  0.5744830000000  0.4720460000000  0.5154410000000 1.0
C      1  0.6058430000000  0.4761040000000  0.4765810000000 1.0
C      1  0.5325080000000  0.4229790000000  0.5472560000000 1.0
C      1  0.4379490000000  0.4831230000000  0.5712770000000 1.0
C      1  0.4830670000000  0.5385700000000  0.5045200000000 1.0
C      1  0.5829840000000  0.4642140000000  0.5441550000000 1.0
C      1  0.5403390000000  0.4635620000000  0.4825730000000 1.0
C      1  0.4772080000000  0.6188760000000  0.4956020000000 1.0
C      1  0.5817340000000  0.5465630000000  0.5171430000000 1.0
C      1  0.4944620000000  0.5360550000000  0.4536820000000 1.0
C      1  0.4037680000000  0.5166190000000  0.4831680000000 1.0
END
