TITL C-4164244-2836-74 -0.0791200608564669 125000 -21953.6779371178 0 0 146 (C1) n - 1
REM
REM in /home/nfs/bkarasulu/CARBON/AIRSS/Generating-Clusters/ReaxFF-fromJPCA2015/Units_Real/with-SteepDescent/Only-C1/SD-CG/Try1-3A/FIRE-CG
REM
REM
REM
REM
REM
REM ./C.cell (11c1c37f851c82e70ff6c80c92926a4b)
REM
REM compiler GCC version 9.2.1 20190827 (Red Hat 9.2.1-1)
REM options -cpp -mtune=generic -march=x86-64 -g -O0 -fpre-include=/usr/include/finclude/math-vector-fortran.h
REM seed 908005032 1283191695 1072433912 -360907389 446434509 -1797194915 -18409942 -818781681 -477302645 -460174308 1665333361 -1305520018 -352012163 1282580865 -1818038954 -903722240 -421264407 -184003250 -1421434540 -1976443466 -1301305669 1824942821 -2055701141 -1168991248 1025749239 1500176707 -237075104 -2143748721 2005948933 278367327 -226836256 640524610 -1981771209
REM
CELL 1.54180   50.00000   50.00000   50.00000   90.00000   90.00000   90.00000
LATT -1
SFAC C  
C      1  0.4835270000000  0.4744810000000  0.5920570000000 1.0
C      1  0.5830360000000  0.4679990000000  0.4390120000000 1.0
C      1  0.5716670000000  0.4515570000000  0.5504470000000 1.0
C      1  0.4510380000000  0.5220900000000  0.5058900000000 1.0
C      1  0.4730250000000  0.5340160000000  0.4718940000000 1.0
C      1  0.4630600000000  0.5786880000000  0.4492770000000 1.0
C      1  0.5342750000000  0.5102810000000  0.4768980000000 1.0
C      1  0.5210990000000  0.4203560000000  0.4360550000000 1.0
C      1  0.5760480000000  0.5430160000000  0.5584230000000 1.0
C      1  0.5355500000000  0.5769300000000  0.4531040000000 1.0
C      1  0.5847320000000  0.4648690000000  0.5034520000000 1.0
C      1  0.5033020000000  0.4015740000000  0.4511080000000 1.0
C      1  0.4816440000000  0.5181860000000  0.4063350000000 1.0
C      1  0.5033540000000  0.3979660000000  0.5052030000000 1.0
C      1  0.4796920000000  0.4182490000000  0.4566920000000 1.0
C      1  0.4946520000000  0.4807980000000  0.4562960000000 1.0
C      1  0.4942570000000  0.5448220000000  0.4572100000000 1.0
C      1  0.5399100000000  0.5067210000000  0.5289740000000 1.0
C      1  0.4754080000000  0.4260970000000  0.5375180000000 1.0
C      1  0.4208900000000  0.5432130000000  0.4455370000000 1.0
C      1  0.4429890000000  0.5475490000000  0.4953500000000 1.0
C      1  0.5059640000000  0.5316150000000  0.5361190000000 1.0
C      1  0.4869120000000  0.5651320000000  0.4359330000000 1.0
C      1  0.6014560000000  0.4864930000000  0.5162060000000 1.0
C      1  0.5248980000000  0.4033530000000  0.5242430000000 1.0
C      1  0.5380290000000  0.4669250000000  0.4781830000000 1.0
C      1  0.5447700000000  0.4412320000000  0.5449960000000 1.0
C      1  0.5541470000000  0.4644670000000  0.5028410000000 1.0
C      1  0.5028460000000  0.5135850000000  0.4259800000000 1.0
C      1  0.5496920000000  0.4023180000000  0.5075790000000 1.0
C      1  0.5345680000000  0.4522820000000  0.5204290000000 1.0
C      1  0.4428270000000  0.4349540000000  0.4494370000000 1.0
C      1  0.6016300000000  0.5041050000000  0.4712260000000 1.0
C      1  0.4327670000000  0.4179150000000  0.5155380000000 1.0
C      1  0.4253450000000  0.4557850000000  0.5769720000000 1.0
C      1  0.5199940000000  0.4435770000000  0.4720450000000 1.0
C      1  0.5151550000000  0.5391000000000  0.3959910000000 1.0
C      1  0.5767460000000  0.5802760000000  0.5467100000000 1.0
C      1  0.5998830000000  0.4584970000000  0.4513070000000 1.0
C      1  0.3876810000000  0.4397900000000  0.4904560000000 1.0
C      1  0.5571090000000  0.5662270000000  0.4633520000000 1.0
C      1  0.5108010000000  0.5490830000000  0.5821290000000 1.0
C      1  0.4613010000000  0.5963870000000  0.5067170000000 1.0
C      1  0.4772710000000  0.4076480000000  0.5121250000000 1.0
C      1  0.4898930000000  0.5469180000000  0.4067250000000 1.0
C      1  0.5956460000000  0.4961940000000  0.5431560000000 1.0
C      1  0.4398280000000  0.5853380000000  0.5209260000000 1.0
C      1  0.4689910000000  0.5359490000000  0.5711390000000 1.0
C      1  0.4141050000000  0.5208640000000  0.4640330000000 1.0
C      1  0.4810340000000  0.4548320000000  0.5293460000000 1.0
C      1  0.5794310000000  0.4788120000000  0.5600220000000 1.0
C      1  0.5629790000000  0.5256660000000  0.5786590000000 1.0
C      1  0.4841160000000  0.4846820000000  0.4834960000000 1.0
C      1  0.4620020000000  0.4954690000000  0.4067420000000 1.0
C      1  0.5419350000000  0.5760120000000  0.4994380000000 1.0
C      1  0.5521990000000  0.5486410000000  0.5438460000000 1.0
C      1  0.5492380000000  0.5292920000000  0.4186210000000 1.0
C      1  0.3885930000000  0.4689210000000  0.4937920000000 1.0
C      1  0.5213390000000  0.4524630000000  0.5831970000000 1.0
C      1  0.5858860000000  0.5237620000000  0.4552110000000 1.0
C      1  0.4050790000000  0.5426070000000  0.5132150000000 1.0
C      1  0.5719250000000  0.5161730000000  0.4314830000000 1.0
C      1  0.4343820000000  0.5715130000000  0.4494460000000 1.0
C      1  0.5607050000000  0.4874730000000  0.4327960000000 1.0
C      1  0.5212710000000  0.5957920000000  0.4945210000000 1.0
C      1  0.4984060000000  0.4264630000000  0.5610720000000 1.0
C      1  0.5100880000000  0.5849470000000  0.4460930000000 1.0
C      1  0.4580720000000  0.5157800000000  0.4525930000000 1.0
C      1  0.5026600000000  0.5950410000000  0.4718880000000 1.0
C      1  0.5336860000000  0.5292770000000  0.5459720000000 1.0
C      1  0.5417790000000  0.4890000000000  0.4596610000000 1.0
C      1  0.4515740000000  0.4141440000000  0.4662320000000 1.0
C      1  0.5940350000000  0.5255130000000  0.5421010000000 1.0
C      1  0.5242180000000  0.4198480000000  0.5485920000000 1.0
C      1  0.5004530000000  0.5021440000000  0.5348040000000 1.0
C      1  0.4183450000000  0.5691540000000  0.5026660000000 1.0
C      1  0.4592760000000  0.4734890000000  0.5352210000000 1.0
C      1  0.5312750000000  0.4734360000000  0.5694370000000 1.0
C      1  0.5688670000000  0.4206670000000  0.5161470000000 1.0
C      1  0.4757510000000  0.5824770000000  0.5535660000000 1.0
C      1  0.5487710000000  0.5749980000000  0.5330110000000 1.0
C      1  0.5701280000000  0.5348300000000  0.4990960000000 1.0
C      1  0.4662520000000  0.5575550000000  0.4847030000000 1.0
C      1  0.4304940000000  0.5514600000000  0.5557600000000 1.0
C      1  0.5264100000000  0.4893040000000  0.3922090000000 1.0
C      1  0.4711150000000  0.4594730000000  0.4836880000000 1.0
C      1  0.5443650000000  0.4845690000000  0.5928840000000 1.0
C      1  0.5282140000000  0.4617350000000  0.4028620000000 1.0
C      1  0.6009630000000  0.4749390000000  0.4749000000000 1.0
C      1  0.5032850000000  0.5722700000000  0.5646570000000 1.0
C      1  0.5478660000000  0.4805150000000  0.4057900000000 1.0
C      1  0.4198700000000  0.4682520000000  0.5056940000000 1.0
C      1  0.5952460000000  0.5318710000000  0.5140110000000 1.0
C      1  0.4313030000000  0.4946820000000  0.4604550000000 1.0
C      1  0.4839260000000  0.5036470000000  0.4443300000000 1.0
C      1  0.4479780000000  0.5744840000000  0.5471820000000 1.0
C      1  0.5039650000000  0.5533570000000  0.5140290000000 1.0
C      1  0.4149630000000  0.5327330000000  0.5387000000000 1.0
C      1  0.5490300000000  0.5146930000000  0.5024690000000 1.0
C      1  0.4577200000000  0.4764200000000  0.5903370000000 1.0
C      1  0.4911360000000  0.4621460000000  0.4330700000000 1.0
C      1  0.5137200000000  0.3922730000000  0.4773090000000 1.0
C      1  0.4600390000000  0.5235350000000  0.5327860000000 1.0
C      1  0.5070650000000  0.5848980000000  0.5208250000000 1.0
C      1  0.4352600000000  0.5026340000000  0.4158260000000 1.0
C      1  0.5842510000000  0.4414310000000  0.5252580000000 1.0
C      1  0.4531670000000  0.4095380000000  0.4965650000000 1.0
C      1  0.5348490000000  0.5316100000000  0.5860830000000 1.0
C      1  0.4302170000000  0.4814620000000  0.5884790000000 1.0
C      1  0.4721050000000  0.5877040000000  0.4766910000000 1.0
C      1  0.5345010000000  0.5175290000000  0.3947380000000 1.0
C      1  0.5223160000000  0.5832260000000  0.5464220000000 1.0
C      1  0.4324250000000  0.4382200000000  0.5606370000000 1.0
C      1  0.4793260000000  0.5980900000000  0.5293120000000 1.0
C      1  0.5130800000000  0.4456510000000  0.4221590000000 1.0
C      1  0.4446120000000  0.4221790000000  0.5423760000000 1.0
C      1  0.5214650000000  0.4850590000000  0.5395580000000 1.0
C      1  0.5250430000000  0.5065870000000  0.5998410000000 1.0
C      1  0.4430440000000  0.4753900000000  0.4830230000000 1.0
C      1  0.3999240000000  0.5255370000000  0.4898480000000 1.0
C      1  0.4730930000000  0.4981630000000  0.5390550000000 1.0
C      1  0.4948620000000  0.4447780000000  0.5831540000000 1.0
C      1  0.4138840000000  0.4384360000000  0.5070170000000 1.0
C      1  0.5409160000000  0.4007190000000  0.4786670000000 1.0
C      1  0.4790410000000  0.5418810000000  0.5441900000000 1.0
C      1  0.4196680000000  0.5735770000000  0.4735550000000 1.0
C      1  0.4973020000000  0.5013320000000  0.5971380000000 1.0
C      1  0.5077160000000  0.4641280000000  0.5240930000000 1.0
C      1  0.5749210000000  0.5460320000000  0.4720090000000 1.0
C      1  0.4594510000000  0.4979010000000  0.4920900000000 1.0
C      1  0.6082930000000  0.5094640000000  0.4991380000000 1.0
C      1  0.5219240000000  0.5359850000000  0.4640660000000 1.0
C      1  0.4268320000000  0.4815180000000  0.4343980000000 1.0
C      1  0.4904270000000  0.5296580000000  0.5904430000000 1.0
C      1  0.4305140000000  0.4799580000000  0.5311290000000 1.0
C      1  0.4183460000000  0.5029380000000  0.5449310000000 1.0
C      1  0.4904570000000  0.4416140000000  0.4714060000000 1.0
C      1  0.5383170000000  0.4235730000000  0.4598930000000 1.0
C      1  0.4419470000000  0.4562110000000  0.4306600000000 1.0
C      1  0.5240680000000  0.5536190000000  0.4938720000000 1.0
C      1  0.4666320000000  0.4687880000000  0.4179510000000 1.0
C      1  0.5680400000000  0.4970440000000  0.5801700000000 1.0
C      1  0.4249390000000  0.5069640000000  0.5726540000000 1.0
C      1  0.5254750000000  0.5297930000000  0.4353230000000 1.0
C      1  0.4395050000000  0.5327900000000  0.5757360000000 1.0
C      1  0.4400090000000  0.5276920000000  0.4305860000000 1.0
END
