TITL C-4164241-3639-487 12.8825967165349 125000 -18755.1407902911 0 0 125 (C1) n - 1
REM
REM in /home/nfs/bkarasulu/CARBON/AIRSS/Generating-Clusters/ReaxFF-fromJPCA2015/Units_Real/with-SteepDescent/Only-C1/SD-CG/Try1-3A/FIRE-CG
REM
REM
REM
REM
REM
REM ./C.cell (11c1c37f851c82e70ff6c80c92926a4b)
REM
REM compiler GCC version 9.2.1 20190827 (Red Hat 9.2.1-1)
REM options -cpp -mtune=generic -march=x86-64 -g -O0 -fpre-include=/usr/include/finclude/math-vector-fortran.h
REM seed -1107724153 -761276212 -1441439512 -1273716280 -686348212 1658247284 968458651 9389886 1421756021 -309736722 -255669826 -1943428926 1363578734 -1345336966 -979330828 1925422682 1839668730 1980053649 84017559 2068343951 1601645596 1830592858 205737646 -1724577493 -555583879 1188464623 1609588089 673361167 -234313494 1637959464 -1343898376 1625922540 1332771605
REM
CELL 1.54180   50.00000   50.00000   50.00000   90.00000   90.00000   90.00000
LATT -1
SFAC C  
C      1  0.5886170000000  0.5072520000000  0.5471200000000 1.0
C      1  0.5736290000000  0.5318490000000  0.5383540000000 1.0
C      1  0.4729940000000  0.5184960000000  0.4023930000000 1.0
C      1  0.5405790000000  0.4058660000000  0.4520820000000 1.0
C      1  0.5110880000000  0.5000310000000  0.4916970000000 1.0
C      1  0.5428520000000  0.5590380000000  0.4314020000000 1.0
C      1  0.5093160000000  0.4803070000000  0.5866290000000 1.0
C      1  0.5265960000000  0.4676350000000  0.4289250000000 1.0
C      1  0.5424360000000  0.5638280000000  0.4870320000000 1.0
C      1  0.4641140000000  0.4086640000000  0.5369830000000 1.0
C      1  0.5115410000000  0.5076940000000  0.4043860000000 1.0
C      1  0.4404640000000  0.5418650000000  0.4329710000000 1.0
C      1  0.4223110000000  0.5073820000000  0.5522650000000 1.0
C      1  0.5639480000000  0.4536930000000  0.4902910000000 1.0
C      1  0.5426340000000  0.5598770000000  0.5381680000000 1.0
C      1  0.4965840000000  0.4530410000000  0.4294130000000 1.0
C      1  0.4760300000000  0.5785630000000  0.5284290000000 1.0
C      1  0.4310480000000  0.5347600000000  0.4595980000000 1.0
C      1  0.4636680000000  0.5510160000000  0.5317740000000 1.0
C      1  0.5909660000000  0.5121540000000  0.4615520000000 1.0
C      1  0.5014330000000  0.4745840000000  0.4990960000000 1.0
C      1  0.4829420000000  0.4118940000000  0.5131140000000 1.0
C      1  0.4977000000000  0.5311180000000  0.3969030000000 1.0
C      1  0.4970510000000  0.4010640000000  0.4739650000000 1.0
C      1  0.5245560000000  0.4565930000000  0.5741320000000 1.0
C      1  0.5777370000000  0.4969690000000  0.4410090000000 1.0
C      1  0.5636070000000  0.5424490000000  0.4366820000000 1.0
C      1  0.4360990000000  0.4989020000000  0.5767950000000 1.0
C      1  0.4563600000000  0.5162960000000  0.5888200000000 1.0
C      1  0.5248430000000  0.4511340000000  0.5447430000000 1.0
C      1  0.5117590000000  0.4094720000000  0.5181010000000 1.0
C      1  0.5773950000000  0.4686150000000  0.4454800000000 1.0
C      1  0.5289650000000  0.5894020000000  0.4745660000000 1.0
C      1  0.5677780000000  0.5000870000000  0.5004160000000 1.0
C      1  0.4532190000000  0.4756730000000  0.5816120000000 1.0
C      1  0.5009700000000  0.4952170000000  0.5377160000000 1.0
C      1  0.5581680000000  0.5316460000000  0.5621750000000 1.0
C      1  0.5730840000000  0.4615980000000  0.5612010000000 1.0
C      1  0.4610310000000  0.5579320000000  0.4387800000000 1.0
C      1  0.4802210000000  0.5153150000000  0.5399050000000 1.0
C      1  0.5157880000000  0.4994050000000  0.4634910000000 1.0
C      1  0.4246260000000  0.4279590000000  0.5096230000000 1.0
C      1  0.5283640000000  0.4987190000000  0.5418200000000 1.0
C      1  0.5526740000000  0.4507160000000  0.5809540000000 1.0
C      1  0.4772800000000  0.5800780000000  0.5618370000000 1.0
C      1  0.4810610000000  0.4835280000000  0.5813310000000 1.0
C      1  0.4634600000000  0.5134720000000  0.5161230000000 1.0
C      1  0.4821200000000  0.4630330000000  0.4544400000000 1.0
C      1  0.5692100000000  0.5482500000000  0.4880510000000 1.0
C      1  0.5524250000000  0.4763630000000  0.5060700000000 1.0
C      1  0.5353990000000  0.5193980000000  0.4587920000000 1.0
C      1  0.5318010000000  0.4951280000000  0.4168240000000 1.0
C      1  0.4878040000000  0.5965090000000  0.4693900000000 1.0
C      1  0.5909290000000  0.4923300000000  0.4839160000000 1.0
C      1  0.5192880000000  0.5071450000000  0.5861830000000 1.0
C      1  0.4733570000000  0.4147430000000  0.4851400000000 1.0
C      1  0.4122470000000  0.5357630000000  0.5080960000000 1.0
C      1  0.4742920000000  0.5077120000000  0.5671340000000 1.0
C      1  0.4650620000000  0.4930590000000  0.4651300000000 1.0
C      1  0.4456920000000  0.5524620000000  0.5553060000000 1.0
C      1  0.5521220000000  0.5131720000000  0.4348830000000 1.0
C      1  0.4383430000000  0.4165790000000  0.5283090000000 1.0
C      1  0.4104070000000  0.5550430000000  0.5293030000000 1.0
C      1  0.4915470000000  0.4703410000000  0.5257830000000 1.0
C      1  0.5433180000000  0.5549110000000  0.5657030000000 1.0
C      1  0.4041160000000  0.4857890000000  0.5061950000000 1.0
C      1  0.5059320000000  0.5286990000000  0.4939180000000 1.0
C      1  0.5031290000000  0.5491630000000  0.4212310000000 1.0
C      1  0.5318010000000  0.4251380000000  0.5335850000000 1.0
C      1  0.4126820000000  0.4626970000000  0.4928540000000 1.0
C      1  0.4599940000000  0.4925770000000  0.4966440000000 1.0
C      1  0.4648900000000  0.4602130000000  0.5322630000000 1.0
C      1  0.5187870000000  0.5566250000000  0.5827070000000 1.0
C      1  0.5194390000000  0.5732290000000  0.4271570000000 1.0
C      1  0.4602130000000  0.4458690000000  0.4477360000000 1.0
C      1  0.4799790000000  0.5370600000000  0.4845780000000 1.0
C      1  0.5791760000000  0.5391900000000  0.4625850000000 1.0
C      1  0.4545900000000  0.4540950000000  0.5605860000000 1.0
C      1  0.5037100000000  0.5842510000000  0.5167630000000 1.0
C      1  0.4608360000000  0.5885670000000  0.4777800000000 1.0
C      1  0.5862190000000  0.4649630000000  0.4737890000000 1.0
C      1  0.4372250000000  0.4903750000000  0.4228260000000 1.0
C      1  0.4053950000000  0.5209920000000  0.4659310000000 1.0
C      1  0.5785750000000  0.4480060000000  0.5341550000000 1.0
C      1  0.4296400000000  0.5735970000000  0.5173110000000 1.0
C      1  0.4217660000000  0.4878140000000  0.5297660000000 1.0
C      1  0.5283040000000  0.5387300000000  0.4770840000000 1.0
C      1  0.5431810000000  0.5069210000000  0.5656000000000 1.0
C      1  0.5600230000000  0.4266220000000  0.5250580000000 1.0
C      1  0.4625980000000  0.5608110000000  0.5780870000000 1.0
C      1  0.4854500000000  0.5111110000000  0.4527870000000 1.0
C      1  0.5931240000000  0.4635060000000  0.5142410000000 1.0
C      1  0.5720330000000  0.4901470000000  0.5633930000000 1.0
C      1  0.4257330000000  0.4385390000000  0.4838950000000 1.0
C      1  0.5556850000000  0.4528820000000  0.4325150000000 1.0
C      1  0.4622780000000  0.4276730000000  0.5582280000000 1.0
C      1  0.4865230000000  0.5382250000000  0.4430330000000 1.0
C      1  0.5457390000000  0.4047160000000  0.4812450000000 1.0
C      1  0.5614310000000  0.4241140000000  0.4962370000000 1.0
C      1  0.4530550000000  0.4313160000000  0.4717190000000 1.0
C      1  0.5502870000000  0.4291380000000  0.4420200000000 1.0
C      1  0.4404460000000  0.4640630000000  0.4351120000000 1.0
C      1  0.4462450000000  0.5367650000000  0.5111720000000 1.0
C      1  0.4403820000000  0.4870990000000  0.4496270000000 1.0
C      1  0.5352030000000  0.4739820000000  0.5290620000000 1.0
C      1  0.5072320000000  0.5993280000000  0.4922160000000 1.0
C      1  0.4461270000000  0.4761180000000  0.5165880000000 1.0
C      1  0.5045530000000  0.5321300000000  0.5896780000000 1.0
C      1  0.4558080000000  0.5733040000000  0.4554780000000 1.0
C      1  0.5116240000000  0.5894360000000  0.4516440000000 1.0
C      1  0.4206250000000  0.5370470000000  0.5509540000000 1.0
C      1  0.4483100000000  0.5168120000000  0.4149130000000 1.0
C      1  0.5030150000000  0.5815130000000  0.5759080000000 1.0
C      1  0.4525890000000  0.5859350000000  0.5073500000000 1.0
C      1  0.4525700000000  0.5387140000000  0.4815140000000 1.0
C      1  0.5299150000000  0.5709790000000  0.5172960000000 1.0
C      1  0.5032590000000  0.4588200000000  0.4745970000000 1.0
C      1  0.3987660000000  0.5143260000000  0.4943860000000 1.0
C      1  0.5024730000000  0.4281430000000  0.4363150000000 1.0
C      1  0.5973160000000  0.4857990000000  0.5305320000000 1.0
C      1  0.5684480000000  0.5283350000000  0.5095960000000 1.0
C      1  0.5218690000000  0.4719810000000  0.4576990000000 1.0
C      1  0.4750370000000  0.5384930000000  0.5926670000000 1.0
C      1  0.5100100000000  0.4044720000000  0.4473080000000 1.0
C      1  0.5196930000000  0.3982570000000  0.4925790000000 1.0
END
