TITL C-4164241-3639-65 -2.16370042402963 125000 -22192.1942025734 0 0 149 (C1) n - 1
REM
REM in /home/nfs/bkarasulu/CARBON/AIRSS/Generating-Clusters/ReaxFF-fromJPCA2015/Units_Real/with-SteepDescent/Only-C1/SD-CG/Try1-3A/FIRE-CG
REM
REM
REM
REM
REM
REM ./C.cell (11c1c37f851c82e70ff6c80c92926a4b)
REM
REM compiler GCC version 9.2.1 20190827 (Red Hat 9.2.1-1)
REM options -cpp -mtune=generic -march=x86-64 -g -O0 -fpre-include=/usr/include/finclude/math-vector-fortran.h
REM seed -484830755 1275182574 1094890171 178801021 1220690797 491885912 1987572225 1631458416 -1493950145 -303737282 -1745850785 992789130 2140762635 1259982021 805076192 -131578518 1220504786 -933741735 558023688 -1071019629 -140425017 -1826929267 378587061 -1069030198 1323744090 -1746105225 -1966281212 -1783265192 1354747601 382337802 2144709340 1764297926 129927055
REM
CELL 1.54180   50.00000   50.00000   50.00000   90.00000   90.00000   90.00000
LATT -1
SFAC C  
C      1  0.5222710000000  0.4488640000000  0.5789300000000 1.0
C      1  0.5514370000000  0.5439740000000  0.5267540000000 1.0
C      1  0.5676060000000  0.4523750000000  0.5374550000000 1.0
C      1  0.4902430000000  0.4498850000000  0.5750690000000 1.0
C      1  0.4851730000000  0.4962940000000  0.4501060000000 1.0
C      1  0.4277980000000  0.5478980000000  0.5378160000000 1.0
C      1  0.4926270000000  0.5323090000000  0.5670830000000 1.0
C      1  0.4453760000000  0.5711470000000  0.5445740000000 1.0
C      1  0.4705140000000  0.4642440000000  0.5934260000000 1.0
C      1  0.5429260000000  0.5507590000000  0.5847160000000 1.0
C      1  0.4846220000000  0.4140370000000  0.4337790000000 1.0
C      1  0.4919400000000  0.5817530000000  0.4716930000000 1.0
C      1  0.6015580000000  0.4886360000000  0.4856280000000 1.0
C      1  0.5285350000000  0.4257530000000  0.5633220000000 1.0
C      1  0.4849690000000  0.4681630000000  0.4567580000000 1.0
C      1  0.5339870000000  0.4062090000000  0.5189030000000 1.0
C      1  0.4691200000000  0.5746850000000  0.4291820000000 1.0
C      1  0.4956590000000  0.5181130000000  0.3899730000000 1.0
C      1  0.5224720000000  0.4863070000000  0.5070270000000 1.0
C      1  0.4620000000000  0.4968780000000  0.4081200000000 1.0
C      1  0.4453530000000  0.4515220000000  0.5543050000000 1.0
C      1  0.5393480000000  0.4310780000000  0.5353920000000 1.0
C      1  0.4970160000000  0.4355100000000  0.4996830000000 1.0
C      1  0.5537420000000  0.5716280000000  0.4635250000000 1.0
C      1  0.4574230000000  0.4110240000000  0.5261150000000 1.0
C      1  0.5842800000000  0.5396580000000  0.5501910000000 1.0
C      1  0.4775480000000  0.4875190000000  0.4990190000000 1.0
C      1  0.5031390000000  0.5297300000000  0.5163280000000 1.0
C      1  0.4395720000000  0.5107290000000  0.5055300000000 1.0
C      1  0.4670810000000  0.5166010000000  0.4497290000000 1.0
C      1  0.5075110000000  0.4593030000000  0.4413080000000 1.0
C      1  0.5177420000000  0.4241770000000  0.4753740000000 1.0
C      1  0.5224510000000  0.5830090000000  0.5522430000000 1.0
C      1  0.5220220000000  0.4578660000000  0.3865910000000 1.0
C      1  0.4564070000000  0.5855900000000  0.5219280000000 1.0
C      1  0.5912070000000  0.4543860000000  0.5168760000000 1.0
C      1  0.5407950000000  0.5462480000000  0.4048530000000 1.0
C      1  0.4789780000000  0.6036510000000  0.5266920000000 1.0
C      1  0.4607550000000  0.5088870000000  0.4887270000000 1.0
C      1  0.4543020000000  0.4586020000000  0.4218390000000 1.0
C      1  0.4738880000000  0.4602150000000  0.5482390000000 1.0
C      1  0.4648960000000  0.5379770000000  0.5609660000000 1.0
C      1  0.4690320000000  0.5396590000000  0.6109400000000 1.0
C      1  0.5743440000000  0.5188360000000  0.4383390000000 1.0
C      1  0.4910350000000  0.5501500000000  0.5950600000000 1.0
C      1  0.5049360000000  0.6023940000000  0.5396270000000 1.0
C      1  0.4321980000000  0.4303670000000  0.4419330000000 1.0
C      1  0.5120770000000  0.5960240000000  0.4868750000000 1.0
C      1  0.4194610000000  0.4869170000000  0.4888400000000 1.0
C      1  0.5037450000000  0.4958920000000  0.4905020000000 1.0
C      1  0.4670820000000  0.5652180000000  0.5633620000000 1.0
C      1  0.4045880000000  0.5179680000000  0.5311880000000 1.0
C      1  0.5627670000000  0.5790700000000  0.5035060000000 1.0
C      1  0.5656300000000  0.4956550000000  0.5413300000000 1.0
C      1  0.5036400000000  0.6093860000000  0.5112210000000 1.0
C      1  0.5685250000000  0.4190050000000  0.4846080000000 1.0
C      1  0.4511120000000  0.5689150000000  0.4976090000000 1.0
C      1  0.4068750000000  0.5448040000000  0.4917290000000 1.0
C      1  0.4095400000000  0.4718830000000  0.5096460000000 1.0
C      1  0.4282750000000  0.4624460000000  0.4680220000000 1.0
C      1  0.5232120000000  0.5100630000000  0.5223710000000 1.0
C      1  0.5372140000000  0.4838620000000  0.5955220000000 1.0
C      1  0.4656030000000  0.4110380000000  0.5528460000000 1.0
C      1  0.4926410000000  0.5743150000000  0.5784960000000 1.0
C      1  0.5546330000000  0.5376810000000  0.4299580000000 1.0
C      1  0.4267100000000  0.4843620000000  0.5808600000000 1.0
C      1  0.4474720000000  0.5554120000000  0.4284380000000 1.0
C      1  0.5069070000000  0.4003030000000  0.5287700000000 1.0
C      1  0.4849760000000  0.4116080000000  0.5133880000000 1.0
C      1  0.5549080000000  0.4389220000000  0.4438950000000 1.0
C      1  0.5991100000000  0.5171370000000  0.4842130000000 1.0
C      1  0.4802810000000  0.5564490000000  0.4842970000000 1.0
C      1  0.5128170000000  0.4079450000000  0.4263870000000 1.0
C      1  0.5051270000000  0.5451230000000  0.4922560000000 1.0
C      1  0.4995910000000  0.5019230000000  0.5795510000000 1.0
C      1  0.4449720000000  0.5787820000000  0.4698840000000 1.0
C      1  0.5403600000000  0.5246070000000  0.5942870000000 1.0
C      1  0.5062530000000  0.4854070000000  0.5564530000000 1.0
C      1  0.4804090000000  0.5400540000000  0.4045630000000 1.0
C      1  0.5574920000000  0.4753790000000  0.5219070000000 1.0
C      1  0.3937100000000  0.5219100000000  0.5048440000000 1.0
C      1  0.4037000000000  0.4894900000000  0.5333300000000 1.0
C      1  0.4763070000000  0.4917520000000  0.5977640000000 1.0
C      1  0.4107090000000  0.5423010000000  0.4633260000000 1.0
C      1  0.5271380000000  0.4447030000000  0.4555780000000 1.0
C      1  0.5275660000000  0.5599540000000  0.5363330000000 1.0
C      1  0.5203290000000  0.5311380000000  0.3929530000000 1.0
C      1  0.5112710000000  0.4715400000000  0.5328120000000 1.0
C      1  0.4474690000000  0.4503360000000  0.4864520000000 1.0
C      1  0.5665080000000  0.5443250000000  0.5702800000000 1.0
C      1  0.5218170000000  0.5628130000000  0.4209560000000 1.0
C      1  0.4303120000000  0.5606590000000  0.4518220000000 1.0
C      1  0.5464610000000  0.5170030000000  0.5364620000000 1.0
C      1  0.5533730000000  0.5156730000000  0.4844660000000 1.0
C      1  0.5413460000000  0.4114260000000  0.4913560000000 1.0
C      1  0.5878220000000  0.5308970000000  0.4616730000000 1.0
C      1  0.5149760000000  0.4449130000000  0.5221090000000 1.0
C      1  0.4932660000000  0.5640380000000  0.4149810000000 1.0
C      1  0.5741980000000  0.5539650000000  0.4742390000000 1.0
C      1  0.4657070000000  0.5313130000000  0.4728110000000 1.0
C      1  0.5545070000000  0.5393200000000  0.4934810000000 1.0
C      1  0.5052890000000  0.5430100000000  0.5415060000000 1.0
C      1  0.5523760000000  0.4905880000000  0.4740640000000 1.0
C      1  0.4595210000000  0.5276820000000  0.4234280000000 1.0
C      1  0.4843060000000  0.4196300000000  0.5718560000000 1.0
C      1  0.5071780000000  0.4066760000000  0.5582050000000 1.0
C      1  0.5676200000000  0.4215050000000  0.4616450000000 1.0
C      1  0.5088690000000  0.5071900000000  0.4639000000000 1.0
C      1  0.5215410000000  0.5725850000000  0.5779520000000 1.0
C      1  0.4133630000000  0.4423960000000  0.4557150000000 1.0
C      1  0.5389060000000  0.4217430000000  0.4216080000000 1.0
C      1  0.5377130000000  0.4902870000000  0.4256070000000 1.0
C      1  0.4432580000000  0.4602760000000  0.5840310000000 1.0
C      1  0.6021550000000  0.4815310000000  0.5143390000000 1.0
C      1  0.5894360000000  0.4658670000000  0.4702220000000 1.0
C      1  0.5668780000000  0.4892810000000  0.4309600000000 1.0
C      1  0.5428860000000  0.5882260000000  0.4851150000000 1.0
C      1  0.4293150000000  0.4495000000000  0.5096180000000 1.0
C      1  0.5324970000000  0.4939880000000  0.4528300000000 1.0
C      1  0.5972330000000  0.5278280000000  0.5128900000000 1.0
C      1  0.4349640000000  0.5116110000000  0.5833310000000 1.0
C      1  0.5270910000000  0.5058240000000  0.5983820000000 1.0
C      1  0.5653110000000  0.4708300000000  0.5605790000000 1.0
C      1  0.5131810000000  0.4755150000000  0.4145280000000 1.0
C      1  0.5449140000000  0.4661730000000  0.5797080000000 1.0
C      1  0.4709510000000  0.4832140000000  0.5311540000000 1.0
C      1  0.5305050000000  0.4365930000000  0.4010720000000 1.0
C      1  0.4202550000000  0.4977990000000  0.4380720000000 1.0
C      1  0.4384900000000  0.5238710000000  0.5543190000000 1.0
C      1  0.5740160000000  0.4657680000000  0.4460420000000 1.0
C      1  0.3972760000000  0.5013170000000  0.4832630000000 1.0
C      1  0.5327600000000  0.5532520000000  0.4488950000000 1.0
C      1  0.4371820000000  0.4323030000000  0.5312760000000 1.0
C      1  0.4462740000000  0.4989470000000  0.5326200000000 1.0
C      1  0.5813010000000  0.5504900000000  0.5243750000000 1.0
C      1  0.4053760000000  0.5128770000000  0.4564110000000 1.0
C      1  0.4580920000000  0.4326630000000  0.4295040000000 1.0
C      1  0.4249530000000  0.4791390000000  0.5513630000000 1.0
C      1  0.4564390000000  0.5127980000000  0.6029590000000 1.0
C      1  0.5154660000000  0.5368950000000  0.4672000000000 1.0
C      1  0.5463440000000  0.4747200000000  0.4970830000000 1.0
C      1  0.5026510000000  0.4065570000000  0.4541610000000 1.0
C      1  0.4319840000000  0.5437860000000  0.5082680000000 1.0
C      1  0.4761920000000  0.4574570000000  0.4840820000000 1.0
C      1  0.4684580000000  0.5886060000000  0.4556300000000 1.0
C      1  0.5945420000000  0.5050670000000  0.5302630000000 1.0
C      1  0.4389420000000  0.4829150000000  0.4198180000000 1.0
C      1  0.5859620000000  0.4442250000000  0.4908510000000 1.0
C      1  0.4894530000000  0.4913770000000  0.4028250000000 1.0
END
