TITL C-4164233-775-635 98.6724663166944 125000 -20721.7327668328 0 0 139 (C1) n - 1
REM
REM in /home/nfs/bkarasulu/CARBON/AIRSS/Generating-Clusters/ReaxFF-fromJPCA2015/Units_Real/with-SteepDescent/Only-C1/SD-CG/Try1-3A/FIRE-CG
REM
REM
REM
REM
REM
REM ./C.cell (11c1c37f851c82e70ff6c80c92926a4b)
REM
REM compiler GCC version 9.2.1 20190827 (Red Hat 9.2.1-1)
REM options -cpp -mtune=generic -march=x86-64 -g -O0 -fpre-include=/usr/include/finclude/math-vector-fortran.h
REM seed 1936103646 -594273761 -1943394136 47367191 -1977281937 -442199477 314449792 1643061259 231018182 -575507338 -1319086963 1732033292 957759016 1809880867 -200258628 419954267 1047460196 -77165947 1181722243 -500386439 -2121041534 274337348 -284953626 -333145635 -1186912159 18906359 -163087315 -1475955370 -1999208131 660158310 -1147419931 -223579411 34608692
REM
CELL 1.54180   50.00000   50.00000   50.00000   90.00000   90.00000   90.00000
LATT -1
SFAC C  
C      1  0.5684290000000  0.5210150000000  0.4597500000000 1.0
C      1  0.5176350000000  0.5005580000000  0.3925310000000 1.0
C      1  0.5245170000000  0.4840900000000  0.4365990000000 1.0
C      1  0.4884370000000  0.4672470000000  0.4820310000000 1.0
C      1  0.5116380000000  0.4339670000000  0.5077910000000 1.0
C      1  0.4316830000000  0.4367540000000  0.5201750000000 1.0
C      1  0.4925790000000  0.5730190000000  0.4208330000000 1.0
C      1  0.5091790000000  0.5396550000000  0.5486750000000 1.0
C      1  0.4879670000000  0.5979650000000  0.5169180000000 1.0
C      1  0.5328370000000  0.5112940000000  0.5892250000000 1.0
C      1  0.4880640000000  0.4933530000000  0.4740030000000 1.0
C      1  0.5222850000000  0.5855020000000  0.5508100000000 1.0
C      1  0.4591450000000  0.4873480000000  0.4241890000000 1.0
C      1  0.5058940000000  0.4493980000000  0.5275350000000 1.0
C      1  0.5245600000000  0.4867280000000  0.6035860000000 1.0
C      1  0.4410280000000  0.5074300000000  0.5894710000000 1.0
C      1  0.4041720000000  0.4712630000000  0.4903810000000 1.0
C      1  0.4167810000000  0.5338870000000  0.5112380000000 1.0
C      1  0.5575730000000  0.4342340000000  0.5328320000000 1.0
C      1  0.4948290000000  0.4381120000000  0.4310180000000 1.0
C      1  0.4869600000000  0.5507720000000  0.5339270000000 1.0
C      1  0.5028530000000  0.5246990000000  0.3905730000000 1.0
C      1  0.4086710000000  0.5100730000000  0.5260510000000 1.0
C      1  0.5576860000000  0.5376160000000  0.4343270000000 1.0
C      1  0.4847670000000  0.4965620000000  0.4290220000000 1.0
C      1  0.5064240000000  0.3914490000000  0.4700940000000 1.0
C      1  0.5785550000000  0.4939900000000  0.5063130000000 1.0
C      1  0.4597850000000  0.5886640000000  0.5121270000000 1.0
C      1  0.4561660000000  0.5753400000000  0.4919140000000 1.0
C      1  0.4231710000000  0.4594580000000  0.4501210000000 1.0
C      1  0.4325840000000  0.4589130000000  0.5752490000000 1.0
C      1  0.4469260000000  0.5622660000000  0.4322500000000 1.0
C      1  0.4331300000000  0.5480840000000  0.5311580000000 1.0
C      1  0.5030690000000  0.5848810000000  0.4689980000000 1.0
C      1  0.5139080000000  0.4334210000000  0.4532650000000 1.0
C      1  0.5219420000000  0.4075970000000  0.4529150000000 1.0
C      1  0.4903750000000  0.4658150000000  0.5754520000000 1.0
C      1  0.4494790000000  0.4360810000000  0.4811260000000 1.0
C      1  0.5357850000000  0.5969370000000  0.5005690000000 1.0
C      1  0.5660820000000  0.4596570000000  0.5428900000000 1.0
C      1  0.5890370000000  0.5348220000000  0.5587040000000 1.0
C      1  0.4601170000000  0.5293670000000  0.5955430000000 1.0
C      1  0.5328270000000  0.5711140000000  0.4644070000000 1.0
C      1  0.4216220000000  0.4925870000000  0.5045900000000 1.0
C      1  0.4645540000000  0.5534970000000  0.5797060000000 1.0
C      1  0.4746540000000  0.5327070000000  0.5159950000000 1.0
C      1  0.4257210000000  0.4878200000000  0.5756180000000 1.0
C      1  0.5250640000000  0.5420680000000  0.3975090000000 1.0
C      1  0.5457690000000  0.5581800000000  0.5708890000000 1.0
C      1  0.4254370000000  0.5180830000000  0.4876630000000 1.0
C      1  0.5670390000000  0.5433260000000  0.5730910000000 1.0
C      1  0.4650740000000  0.4368240000000  0.4391200000000 1.0
C      1  0.5123260000000  0.5421280000000  0.4957640000000 1.0
C      1  0.5450040000000  0.4919240000000  0.4952250000000 1.0
C      1  0.4126040000000  0.5113710000000  0.4616950000000 1.0
C      1  0.5609200000000  0.4788380000000  0.5645090000000 1.0
C      1  0.5763910000000  0.5664490000000  0.4880390000000 1.0
C      1  0.5310000000000  0.5167580000000  0.5404490000000 1.0
C      1  0.5145120000000  0.4482560000000  0.4791700000000 1.0
C      1  0.4696730000000  0.5568010000000  0.4136400000000 1.0
C      1  0.5421260000000  0.5032820000000  0.5629670000000 1.0
C      1  0.4941590000000  0.5896720000000  0.5435100000000 1.0
C      1  0.4516440000000  0.5116650000000  0.4024110000000 1.0
C      1  0.4853520000000  0.5124910000000  0.6034720000000 1.0
C      1  0.4566930000000  0.4606790000000  0.5612700000000 1.0
C      1  0.4474280000000  0.4587110000000  0.4345580000000 1.0
C      1  0.4986510000000  0.4902740000000  0.5257220000000 1.0
C      1  0.4303260000000  0.5415800000000  0.4395930000000 1.0
C      1  0.5269630000000  0.4601850000000  0.5946650000000 1.0
C      1  0.5591590000000  0.4537020000000  0.4625070000000 1.0
C      1  0.4622570000000  0.5075570000000  0.4699970000000 1.0
C      1  0.4896950000000  0.4078990000000  0.5522010000000 1.0
C      1  0.5145550000000  0.4197990000000  0.5632460000000 1.0
C      1  0.4999170000000  0.4687820000000  0.5455590000000 1.0
C      1  0.4085120000000  0.4817090000000  0.4636160000000 1.0
C      1  0.5009830000000  0.4505220000000  0.4060960000000 1.0
C      1  0.5366920000000  0.4177020000000  0.5450770000000 1.0
C      1  0.4515650000000  0.4148610000000  0.5250820000000 1.0
C      1  0.4952690000000  0.5198220000000  0.4434850000000 1.0
C      1  0.4809100000000  0.4020800000000  0.4795870000000 1.0
C      1  0.5881260000000  0.5094260000000  0.5700160000000 1.0
C      1  0.5101220000000  0.4430520000000  0.5819000000000 1.0
C      1  0.4396710000000  0.5286210000000  0.5527210000000 1.0
C      1  0.5749520000000  0.5615250000000  0.5175090000000 1.0
C      1  0.5401340000000  0.5600230000000  0.4372990000000 1.0
C      1  0.5534880000000  0.5841050000000  0.4806780000000 1.0
C      1  0.4955020000000  0.3975990000000  0.5259080000000 1.0
C      1  0.4706270000000  0.5684570000000  0.5532370000000 1.0
C      1  0.4483770000000  0.4998170000000  0.4456580000000 1.0
C      1  0.5457030000000  0.5552690000000  0.5161790000000 1.0
C      1  0.5456010000000  0.5003730000000  0.4010070000000 1.0
C      1  0.4216360000000  0.4381150000000  0.4711160000000 1.0
C      1  0.5376880000000  0.5819330000000  0.5254920000000 1.0
C      1  0.4727290000000  0.5307140000000  0.3991500000000 1.0
C      1  0.5072650000000  0.5255600000000  0.5905480000000 1.0
C      1  0.4601040000000  0.5816190000000  0.4529210000000 1.0
C      1  0.5493940000000  0.4807950000000  0.4229380000000 1.0
C      1  0.5250860000000  0.4069940000000  0.5191530000000 1.0
C      1  0.4244930000000  0.5149750000000  0.4343800000000 1.0
C      1  0.5394380000000  0.4660480000000  0.4803640000000 1.0
C      1  0.4716960000000  0.5050380000000  0.5267850000000 1.0
C      1  0.5774120000000  0.4480280000000  0.4846390000000 1.0
C      1  0.4732890000000  0.4022050000000  0.5082180000000 1.0
C      1  0.4946540000000  0.4855210000000  0.5983430000000 1.0
C      1  0.4622130000000  0.4603080000000  0.4920940000000 1.0
C      1  0.5050200000000  0.4821300000000  0.4151850000000 1.0
C      1  0.5900010000000  0.4772780000000  0.5315170000000 1.0
C      1  0.5820160000000  0.4922800000000  0.4593720000000 1.0
C      1  0.4872620000000  0.5899290000000  0.4443460000000 1.0
C      1  0.5166040000000  0.5036480000000  0.4571590000000 1.0
C      1  0.5649540000000  0.4288040000000  0.5039750000000 1.0
C      1  0.5876470000000  0.4770090000000  0.4835870000000 1.0
C      1  0.4612360000000  0.4169840000000  0.5522260000000 1.0
C      1  0.5885070000000  0.5234090000000  0.5052560000000 1.0
C      1  0.4494660000000  0.4359930000000  0.5715300000000 1.0
C      1  0.5872770000000  0.4871950000000  0.5633520000000 1.0
C      1  0.4712530000000  0.5673540000000  0.4729100000000 1.0
C      1  0.4663010000000  0.5149340000000  0.5554280000000 1.0
C      1  0.5498900000000  0.5282070000000  0.4084570000000 1.0
C      1  0.4884910000000  0.5364420000000  0.4918200000000 1.0
C      1  0.5475970000000  0.4066940000000  0.4978540000000 1.0
C      1  0.5820800000000  0.5383870000000  0.4813570000000 1.0
C      1  0.4516270000000  0.4799110000000  0.5129280000000 1.0
C      1  0.5416510000000  0.5144930000000  0.4747290000000 1.0
C      1  0.5200880000000  0.5639240000000  0.4161200000000 1.0
C      1  0.5249490000000  0.5006340000000  0.5175770000000 1.0
C      1  0.4119230000000  0.4439890000000  0.4979760000000 1.0
C      1  0.4774460000000  0.5329690000000  0.4639940000000 1.0
C      1  0.5068970000000  0.5992690000000  0.4946210000000 1.0
C      1  0.5379740000000  0.5449180000000  0.4876620000000 1.0
C      1  0.4445660000000  0.4594770000000  0.5321400000000 1.0
C      1  0.4909470000000  0.5267830000000  0.5662020000000 1.0
C      1  0.4188310000000  0.5081780000000  0.5535680000000 1.0
C      1  0.5354290000000  0.3949860000000  0.4745720000000 1.0
C      1  0.5904220000000  0.5399260000000  0.5290800000000 1.0
C      1  0.5704070000000  0.4730190000000  0.4419900000000 1.0
C      1  0.5203930000000  0.5618520000000  0.5650230000000 1.0
C      1  0.4475990000000  0.5730490000000  0.5317610000000 1.0
C      1  0.4640940000000  0.4188340000000  0.4625950000000 1.0
END
