TITL C-4164236-1577-539 -7.38382561966288 125000 -8145.26539015713 0 0 55 (C1) n - 1
REM
REM in /home/nfs/bkarasulu/CARBON/AIRSS/Generating-Clusters/ReaxFF-fromJPCA2015/Units_Real/with-SteepDescent/Only-C1/SD-CG/Try1-3A/FIRE-CG
REM
REM
REM
REM
REM
REM ./C.cell (11c1c37f851c82e70ff6c80c92926a4b)
REM
REM compiler GCC version 9.2.1 20190827 (Red Hat 9.2.1-1)
REM options -cpp -mtune=generic -march=x86-64 -g -O0 -fpre-include=/usr/include/finclude/math-vector-fortran.h
REM seed 942879548 -509350228 1859431882 1571545546 368336573 75848494 -1340971599 561580822 1473650099 -506918229 -1525744223 -2091651057 918484859 904364365 -670091645 189458018 -562375178 -469043406 -874755233 1914011888 -1213958762 -2056363523 -1614194602 2005424595 -2053402673 1331446967 -337662321 924290206 -28545953 -2144556120 1275213894 -378019545 1416229584
REM
CELL 1.54180   50.00000   50.00000   50.00000   90.00000   90.00000   90.00000
LATT -1
SFAC C  
C      1  0.4658920000000  0.5128080000000  0.5292090000000 1.0
C      1  0.5209100000000  0.4979630000000  0.4408550000000 1.0
C      1  0.4725870000000  0.5415210000000  0.5284360000000 1.0
C      1  0.4647800000000  0.4982260000000  0.5564210000000 1.0
C      1  0.4335960000000  0.4815060000000  0.5001730000000 1.0
C      1  0.4904850000000  0.4835100000000  0.4898380000000 1.0
C      1  0.4808470000000  0.4531270000000  0.4589160000000 1.0
C      1  0.5623090000000  0.5049300000000  0.4645420000000 1.0
C      1  0.4343140000000  0.5280580000000  0.4902020000000 1.0
C      1  0.4500370000000  0.5106620000000  0.4425680000000 1.0
C      1  0.5436300000000  0.4868560000000  0.5116020000000 1.0
C      1  0.4414890000000  0.5074300000000  0.5106730000000 1.0
C      1  0.4501110000000  0.4561520000000  0.4997930000000 1.0
C      1  0.4953150000000  0.5024360000000  0.5113350000000 1.0
C      1  0.4863020000000  0.4984490000000  0.5758270000000 1.0
C      1  0.5125370000000  0.5577020000000  0.4511320000000 1.0
C      1  0.4547480000000  0.4500340000000  0.4707910000000 1.0
C      1  0.4506530000000  0.4819290000000  0.4362010000000 1.0
C      1  0.4993970000000  0.4597730000000  0.4794390000000 1.0
C      1  0.4629010000000  0.4703790000000  0.5545280000000 1.0
C      1  0.4858970000000  0.5570690000000  0.5184990000000 1.0
C      1  0.5163720000000  0.5147020000000  0.4620090000000 1.0
C      1  0.5573370000000  0.5440990000000  0.4968610000000 1.0
C      1  0.5097200000000  0.5191080000000  0.5789340000000 1.0
C      1  0.5464850000000  0.4857960000000  0.4475370000000 1.0
C      1  0.4963560000000  0.5639540000000  0.4720820000000 1.0
C      1  0.4753740000000  0.4510050000000  0.5443130000000 1.0
C      1  0.5574940000000  0.5205110000000  0.5427700000000 1.0
C      1  0.4233440000000  0.4857140000000  0.4734320000000 1.0
C      1  0.5313410000000  0.5378960000000  0.4562790000000 1.0
C      1  0.5260940000000  0.4523860000000  0.4841930000000 1.0
C      1  0.5282100000000  0.4506070000000  0.5393200000000 1.0
C      1  0.5320230000000  0.5514090000000  0.5098580000000 1.0
C      1  0.4653940000000  0.4497140000000  0.5205590000000 1.0
C      1  0.5060870000000  0.4770490000000  0.5734020000000 1.0
C      1  0.5132640000000  0.5410000000000  0.5615800000000 1.0
C      1  0.5682530000000  0.5295420000000  0.5189770000000 1.0
C      1  0.5567940000000  0.5332330000000  0.4689980000000 1.0
C      1  0.5350810000000  0.4582980000000  0.5113720000000 1.0
C      1  0.4970770000000  0.5092510000000  0.4818170000000 1.0
C      1  0.4930000000000  0.4974170000000  0.4344220000000 1.0
C      1  0.4300430000000  0.5131240000000  0.4643910000000 1.0
C      1  0.4859360000000  0.5479420000000  0.4498160000000 1.0
C      1  0.5292520000000  0.5323640000000  0.5345750000000 1.0
C      1  0.5022960000000  0.4557180000000  0.5531760000000 1.0
C      1  0.5529700000000  0.4946310000000  0.5598730000000 1.0
C      1  0.5603490000000  0.4857590000000  0.4868030000000 1.0
C      1  0.4768430000000  0.5214430000000  0.4413740000000 1.0
C      1  0.5074510000000  0.5625700000000  0.4995300000000 1.0
C      1  0.4779220000000  0.4723910000000  0.4369820000000 1.0
C      1  0.5475970000000  0.4686730000000  0.5499670000000 1.0
C      1  0.5473280000000  0.4658410000000  0.4692290000000 1.0
C      1  0.5291690000000  0.4949160000000  0.5772150000000 1.0
C      1  0.4358180000000  0.4659380000000  0.4557310000000 1.0
C      1  0.5231890000000  0.5054790000000  0.5216400000000 1.0
END
