TITL C-4164239-2837-681 -5.83538843906656 125000 -20873.6327692463 0 0 139 (C1) n - 1
REM
REM in /home/nfs/bkarasulu/CARBON/AIRSS/Generating-Clusters/ReaxFF-fromJPCA2015/Units_Real/with-SteepDescent/Only-C1/SD-CG/Try1-3A/FIRE-CG
REM
REM
REM
REM
REM
REM ./C.cell (11c1c37f851c82e70ff6c80c92926a4b)
REM
REM compiler GCC version 9.2.1 20190827 (Red Hat 9.2.1-1)
REM options -cpp -mtune=generic -march=x86-64 -g -O0 -fpre-include=/usr/include/finclude/math-vector-fortran.h
REM seed 614690858 1969029416 517768525 -1461412441 356685791 -1833735769 517140020 1511609594 -1601563602 -765734848 -2114986749 1056778937 1008113220 1326915499 1389732567 -394562656 81201376 786472846 -2134000941 1589056678 1140030185 -873197366 -1664585498 60897153 722083153 -1458657609 698759363 168776509 -452189852 1166554916 -883882157 196168104 -201220625
REM
CELL 1.54180   50.00000   50.00000   50.00000   90.00000   90.00000   90.00000
LATT -1
SFAC C  
C      1  0.4828210000000  0.4882420000000  0.5838110000000 1.0
C      1  0.4584800000000  0.4581300000000  0.4107120000000 1.0
C      1  0.5179510000000  0.4153710000000  0.4481520000000 1.0
C      1  0.4683190000000  0.5126040000000  0.5784540000000 1.0
C      1  0.5902670000000  0.4653920000000  0.5207700000000 1.0
C      1  0.4763530000000  0.4353430000000  0.6014780000000 1.0
C      1  0.4266780000000  0.4953560000000  0.5334600000000 1.0
C      1  0.4236630000000  0.5478040000000  0.5186100000000 1.0
C      1  0.4750160000000  0.5020640000000  0.5208630000000 1.0
C      1  0.4923040000000  0.3938810000000  0.5135310000000 1.0
C      1  0.4559030000000  0.4206810000000  0.5556650000000 1.0
C      1  0.5223250000000  0.6022520000000  0.4589070000000 1.0
C      1  0.4489200000000  0.5967260000000  0.5241120000000 1.0
C      1  0.5633920000000  0.5970070000000  0.4752470000000 1.0
C      1  0.4765300000000  0.5348590000000  0.4538310000000 1.0
C      1  0.4848750000000  0.5684580000000  0.5288180000000 1.0
C      1  0.4543630000000  0.5257710000000  0.5573970000000 1.0
C      1  0.5096410000000  0.4738590000000  0.4505210000000 1.0
C      1  0.4761180000000  0.5723720000000  0.5576240000000 1.0
C      1  0.5327270000000  0.3924210000000  0.5454460000000 1.0
C      1  0.5032820000000  0.5686860000000  0.4747920000000 1.0
C      1  0.5947720000000  0.4940760000000  0.4808690000000 1.0
C      1  0.4217690000000  0.4173980000000  0.5173970000000 1.0
C      1  0.5037010000000  0.5500810000000  0.4969610000000 1.0
C      1  0.5039760000000  0.5267720000000  0.4516500000000 1.0
C      1  0.5564770000000  0.4446280000000  0.4579010000000 1.0
C      1  0.4667590000000  0.4990910000000  0.4929440000000 1.0
C      1  0.4306160000000  0.5141910000000  0.4333210000000 1.0
C      1  0.4321180000000  0.5053580000000  0.5612940000000 1.0
C      1  0.4845610000000  0.5619970000000  0.4542250000000 1.0
C      1  0.5262010000000  0.5329440000000  0.4935880000000 1.0
C      1  0.4753050000000  0.4332880000000  0.5385880000000 1.0
C      1  0.5781920000000  0.5058080000000  0.4612600000000 1.0
C      1  0.5612160000000  0.5850750000000  0.4482550000000 1.0
C      1  0.4584120000000  0.4801870000000  0.5337810000000 1.0
C      1  0.5168010000000  0.4979510000000  0.5733250000000 1.0
C      1  0.5362410000000  0.5237020000000  0.5178880000000 1.0
C      1  0.5437900000000  0.5784610000000  0.5291730000000 1.0
C      1  0.5367360000000  0.6025850000000  0.4847560000000 1.0
C      1  0.4646890000000  0.4548080000000  0.5155690000000 1.0
C      1  0.4682800000000  0.5274730000000  0.5313920000000 1.0
C      1  0.5043920000000  0.4540780000000  0.4138550000000 1.0
C      1  0.4958980000000  0.5888200000000  0.5698450000000 1.0
C      1  0.5627720000000  0.4549320000000  0.4861980000000 1.0
C      1  0.5342710000000  0.5852090000000  0.4373650000000 1.0
C      1  0.4607800000000  0.5942580000000  0.5497440000000 1.0
C      1  0.5858790000000  0.5551030000000  0.4750570000000 1.0
C      1  0.5283210000000  0.5451690000000  0.5996350000000 1.0
C      1  0.5511810000000  0.5289810000000  0.5882810000000 1.0
C      1  0.4326560000000  0.4729190000000  0.4026100000000 1.0
C      1  0.5644970000000  0.4847750000000  0.5685620000000 1.0
C      1  0.5402420000000  0.3896260000000  0.5173820000000 1.0
C      1  0.4616910000000  0.5806290000000  0.4547440000000 1.0
C      1  0.5403220000000  0.5681860000000  0.5575390000000 1.0
C      1  0.4658600000000  0.4753390000000  0.5611760000000 1.0
C      1  0.4375360000000  0.5437480000000  0.4307620000000 1.0
C      1  0.5365310000000  0.4755690000000  0.4937330000000 1.0
C      1  0.4770420000000  0.5461000000000  0.5114910000000 1.0
C      1  0.5150370000000  0.5227620000000  0.5349800000000 1.0
C      1  0.5413790000000  0.4126940000000  0.4967360000000 1.0
C      1  0.4976860000000  0.5975670000000  0.4739660000000 1.0
C      1  0.5093870000000  0.4073540000000  0.4944970000000 1.0
C      1  0.5228420000000  0.5928550000000  0.5754530000000 1.0
C      1  0.5433130000000  0.4364740000000  0.5619740000000 1.0
C      1  0.4393390000000  0.4553680000000  0.4987980000000 1.0
C      1  0.4726290000000  0.4219670000000  0.4389330000000 1.0
C      1  0.5817660000000  0.5445700000000  0.5213520000000 1.0
C      1  0.4254270000000  0.4119950000000  0.4889180000000 1.0
C      1  0.5144370000000  0.4609100000000  0.5061730000000 1.0
C      1  0.4707960000000  0.6014140000000  0.5040850000000 1.0
C      1  0.4711330000000  0.4042460000000  0.4625860000000 1.0
C      1  0.4179540000000  0.4334560000000  0.4709010000000 1.0
C      1  0.4830270000000  0.4725130000000  0.4036640000000 1.0
C      1  0.5143250000000  0.3790120000000  0.5267450000000 1.0
C      1  0.5719980000000  0.4448110000000  0.5316030000000 1.0
C      1  0.4529260000000  0.4008260000000  0.4854050000000 1.0
C      1  0.5047630000000  0.4999420000000  0.5262920000000 1.0
C      1  0.4277660000000  0.4742530000000  0.4747450000000 1.0
C      1  0.4837180000000  0.5289990000000  0.4063670000000 1.0
C      1  0.5165200000000  0.4572990000000  0.5349450000000 1.0
C      1  0.4081130000000  0.4708290000000  0.5322410000000 1.0
C      1  0.5237060000000  0.4166340000000  0.5602700000000 1.0
C      1  0.5862950000000  0.5321020000000  0.4939960000000 1.0
C      1  0.4276730000000  0.4970400000000  0.4552750000000 1.0
C      1  0.5633020000000  0.4928110000000  0.4384440000000 1.0
C      1  0.4444980000000  0.4992630000000  0.4090390000000 1.0
C      1  0.5531970000000  0.4999620000000  0.5080780000000 1.0
C      1  0.4328320000000  0.5527020000000  0.4744080000000 1.0
C      1  0.4426060000000  0.4585480000000  0.5919210000000 1.0
C      1  0.5699180000000  0.5709140000000  0.5179890000000 1.0
C      1  0.4385350000000  0.4781620000000  0.5704190000000 1.0
C      1  0.4695800000000  0.4645110000000  0.6019920000000 1.0
C      1  0.5113360000000  0.5403990000000  0.4102200000000 1.0
C      1  0.5583410000000  0.4348950000000  0.5076260000000 1.0
C      1  0.5150960000000  0.4830380000000  0.5473220000000 1.0
C      1  0.4878380000000  0.4581100000000  0.4956590000000 1.0
C      1  0.4435820000000  0.4057010000000  0.5326670000000 1.0
C      1  0.4965770000000  0.5923470000000  0.5159180000000 1.0
C      1  0.4997140000000  0.4024930000000  0.4675930000000 1.0
C      1  0.5627100000000  0.4554140000000  0.5585360000000 1.0
C      1  0.4636620000000  0.4496560000000  0.4387890000000 1.0
C      1  0.5131460000000  0.5258130000000  0.5618180000000 1.0
C      1  0.4738370000000  0.5004360000000  0.4045130000000 1.0
C      1  0.4258640000000  0.5209230000000  0.5134450000000 1.0
C      1  0.4653780000000  0.5399470000000  0.4259340000000 1.0
C      1  0.4168480000000  0.4477880000000  0.5165240000000 1.0
C      1  0.4819630000000  0.4668300000000  0.4557540000000 1.0
C      1  0.5405550000000  0.4223170000000  0.4642870000000 1.0
C      1  0.4254020000000  0.5767410000000  0.5161900000000 1.0
C      1  0.5182880000000  0.5152610000000  0.4735390000000 1.0
C      1  0.5792700000000  0.5030270000000  0.5512480000000 1.0
C      1  0.5182310000000  0.5180170000000  0.4272230000000 1.0
C      1  0.5167360000000  0.5522600000000  0.5726750000000 1.0
C      1  0.4241490000000  0.5747100000000  0.4884840000000 1.0
C      1  0.5257940000000  0.4687310000000  0.4270410000000 1.0
C      1  0.5241680000000  0.4883270000000  0.4716770000000 1.0
C      1  0.5621930000000  0.5177700000000  0.4842090000000 1.0
C      1  0.5541950000000  0.5439040000000  0.4315500000000 1.0
C      1  0.5787040000000  0.4917320000000  0.5247130000000 1.0
C      1  0.5918110000000  0.4680240000000  0.4916210000000 1.0
C      1  0.5733350000000  0.5586330000000  0.4486530000000 1.0
C      1  0.5453410000000  0.4999830000000  0.5833970000000 1.0
C      1  0.5764140000000  0.5327200000000  0.5474020000000 1.0
C      1  0.4994400000000  0.4285980000000  0.4285920000000 1.0
C      1  0.5023980000000  0.4346220000000  0.5479570000000 1.0
C      1  0.5481300000000  0.5155190000000  0.4284290000000 1.0
C      1  0.4750470000000  0.4763850000000  0.4802500000000 1.0
C      1  0.4584230000000  0.5385280000000  0.4823660000000 1.0
C      1  0.5258190000000  0.5932630000000  0.5112230000000 1.0
C      1  0.4357430000000  0.5672840000000  0.4490330000000 1.0
C      1  0.5304370000000  0.5592890000000  0.4234420000000 1.0
C      1  0.5599500000000  0.5468550000000  0.5662940000000 1.0
C      1  0.4626390000000  0.3952950000000  0.5119690000000 1.0
C      1  0.4428270000000  0.5145840000000  0.4892850000000 1.0
C      1  0.4685470000000  0.6011070000000  0.4742780000000 1.0
C      1  0.4513370000000  0.4311920000000  0.5836220000000 1.0
C      1  0.5533720000000  0.4654600000000  0.4368710000000 1.0
C      1  0.4172620000000  0.4562360000000  0.4616060000000 1.0
C      1  0.5793180000000  0.5784780000000  0.4910480000000 1.0
END
