TITL C-4164245-3996-199 5.96057990117663 125000 -5744.65493539114 0 0 40 (C1) n - 1
REM
REM in /home/nfs/bkarasulu/CARBON/AIRSS/Generating-Clusters/ReaxFF-fromJPCA2015/Units_Real/with-SteepDescent/Only-C1/SD-CG/Try1-3A/FIRE-CG
REM
REM
REM
REM
REM
REM ./C.cell (11c1c37f851c82e70ff6c80c92926a4b)
REM
REM compiler GCC version 9.2.1 20190827 (Red Hat 9.2.1-1)
REM options -cpp -mtune=generic -march=x86-64 -g -O0 -fpre-include=/usr/include/finclude/math-vector-fortran.h
REM seed 1532881859 -491312978 615269827 737992070 1728531358 1360752982 1832795629 -973850986 -119289964 -1748770596 -1011982128 1717583821 -591218188 412436900 285143686 171314271 1304019775 12662048 -602921733 -645865860 -1555054552 -2008749252 1056097892 1880187253 -1472684930 1080328887 954458086 -1471519203 -2118446239 -1377086246 970844794 -32428589 900469607
REM
CELL 1.54180   50.00000   50.00000   50.00000   90.00000   90.00000   90.00000
LATT -1
SFAC C  
C      1  0.5449490000000  0.5034850000000  0.5674960000000 1.0
C      1  0.4948390000000  0.4428350000000  0.4550010000000 1.0
C      1  0.4892660000000  0.5091550000000  0.5584820000000 1.0
C      1  0.4968450000000  0.5501900000000  0.5129580000000 1.0
C      1  0.4658850000000  0.4491930000000  0.4602330000000 1.0
C      1  0.4707940000000  0.4764620000000  0.4478380000000 1.0
C      1  0.5295230000000  0.5347860000000  0.4562550000000 1.0
C      1  0.4630240000000  0.5679320000000  0.4989670000000 1.0
C      1  0.5100040000000  0.5524940000000  0.4636640000000 1.0
C      1  0.4621730000000  0.4475340000000  0.4882070000000 1.0
C      1  0.5393280000000  0.5318190000000  0.4965600000000 1.0
C      1  0.5443290000000  0.4882210000000  0.4711980000000 1.0
C      1  0.5061880000000  0.5332460000000  0.5546140000000 1.0
C      1  0.4594590000000  0.5016510000000  0.4586590000000 1.0
C      1  0.5402710000000  0.4804080000000  0.5485870000000 1.0
C      1  0.5215840000000  0.4735620000000  0.4629550000000 1.0
C      1  0.4992390000000  0.4697210000000  0.4438240000000 1.0
C      1  0.5347760000000  0.5249550000000  0.5490490000000 1.0
C      1  0.5132150000000  0.4438480000000  0.5335470000000 1.0
C      1  0.4649140000000  0.4740550000000  0.5323700000000 1.0
C      1  0.5146330000000  0.4472610000000  0.4790440000000 1.0
C      1  0.5436270000000  0.5172200000000  0.5216560000000 1.0
C      1  0.4678510000000  0.4498160000000  0.5149320000000 1.0
C      1  0.4742210000000  0.5657660000000  0.5234050000000 1.0
C      1  0.4802820000000  0.5517410000000  0.4530000000000 1.0
C      1  0.5488370000000  0.4890010000000  0.5218290000000 1.0
C      1  0.4969180000000  0.5560710000000  0.5391540000000 1.0
C      1  0.4646180000000  0.5615540000000  0.4739850000000 1.0
C      1  0.5133060000000  0.4661220000000  0.5515910000000 1.0
C      1  0.4860320000000  0.4808650000000  0.5521510000000 1.0
C      1  0.4466550000000  0.5012870000000  0.4883740000000 1.0
C      1  0.5522250000000  0.4732990000000  0.4959070000000 1.0
C      1  0.5436980000000  0.4458750000000  0.4898750000000 1.0
C      1  0.4225780000000  0.5065950000000  0.4929210000000 1.0
C      1  0.4697990000000  0.5261390000000  0.4539190000000 1.0
C      1  0.4943220000000  0.4868970000000  0.5049340000000 1.0
C      1  0.4981280000000  0.4547990000000  0.5078390000000 1.0
C      1  0.4676040000000  0.4951920000000  0.5117650000000 1.0
C      1  0.5175380000000  0.5508320000000  0.4922900000000 1.0
C      1  0.5465220000000  0.5181150000000  0.4709640000000 1.0
END
