TITL C-4164233-775-506 16.0890941080949 125000 -20898.4070262207 0 0 139 (C1) n - 1
REM
REM in /home/nfs/bkarasulu/CARBON/AIRSS/Generating-Clusters/ReaxFF-fromJPCA2015/Units_Real/with-SteepDescent/Only-C1/SD-CG/Try1-3A/FIRE-CG
REM
REM
REM
REM
REM
REM ./C.cell (11c1c37f851c82e70ff6c80c92926a4b)
REM
REM compiler GCC version 9.2.1 20190827 (Red Hat 9.2.1-1)
REM options -cpp -mtune=generic -march=x86-64 -g -O0 -fpre-include=/usr/include/finclude/math-vector-fortran.h
REM seed 1603080169 973478260 -825064543 642751916 2102582008 2032754353 -1883537671 70836113 -1579520264 1360037436 -1588839882 -675889836 1616671175 586348602 -432311448 733888322 1595670534 389942001 -1937868450 1729733821 -251758207 -996023238 70337364 2121120609 -197156237 1835147815 916980153 -1817951801 279159485 -1496294972 -756801574 -1129685873 1585208140
REM
CELL 1.54180   50.00000   50.00000   50.00000   90.00000   90.00000   90.00000
LATT -1
SFAC C  
C      1  0.5556600000000  0.5060340000000  0.4371060000000 1.0
C      1  0.4426830000000  0.4047220000000  0.5040540000000 1.0
C      1  0.5468000000000  0.5249440000000  0.5474410000000 1.0
C      1  0.4881830000000  0.5028920000000  0.4731500000000 1.0
C      1  0.4917330000000  0.4406860000000  0.4155610000000 1.0
C      1  0.4334780000000  0.5311050000000  0.5552230000000 1.0
C      1  0.5017270000000  0.5550460000000  0.5718950000000 1.0
C      1  0.4576320000000  0.5865520000000  0.4517440000000 1.0
C      1  0.6010790000000  0.5195320000000  0.4857710000000 1.0
C      1  0.5585890000000  0.5225260000000  0.5760560000000 1.0
C      1  0.4203660000000  0.4828280000000  0.4413610000000 1.0
C      1  0.4231800000000  0.5283630000000  0.4699600000000 1.0
C      1  0.5236030000000  0.5283580000000  0.4094140000000 1.0
C      1  0.4698450000000  0.5275720000000  0.4165380000000 1.0
C      1  0.4853410000000  0.4761620000000  0.5364780000000 1.0
C      1  0.4286430000000  0.4574690000000  0.4460890000000 1.0
C      1  0.5134590000000  0.4397020000000  0.5754110000000 1.0
C      1  0.5506940000000  0.5723750000000  0.4913570000000 1.0
C      1  0.5801230000000  0.5373180000000  0.4745750000000 1.0
C      1  0.4640370000000  0.4868290000000  0.4352970000000 1.0
C      1  0.4608150000000  0.5306390000000  0.5432860000000 1.0
C      1  0.4157370000000  0.5455230000000  0.4925840000000 1.0
C      1  0.5736370000000  0.4482730000000  0.4688790000000 1.0
C      1  0.5125940000000  0.5995360000000  0.4808010000000 1.0
C      1  0.5888490000000  0.4934410000000  0.5534250000000 1.0
C      1  0.5609050000000  0.4265640000000  0.5148100000000 1.0
C      1  0.4823550000000  0.4559090000000  0.5166860000000 1.0
C      1  0.4432180000000  0.4821040000000  0.4994470000000 1.0
C      1  0.5183580000000  0.5020360000000  0.3962880000000 1.0
C      1  0.4402700000000  0.4871280000000  0.4181280000000 1.0
C      1  0.5268190000000  0.5855460000000  0.5027010000000 1.0
C      1  0.4005650000000  0.4817320000000  0.5280020000000 1.0
C      1  0.4805050000000  0.4051210000000  0.4677770000000 1.0
C      1  0.5106550000000  0.5815040000000  0.5277950000000 1.0
C      1  0.5003380000000  0.5665220000000  0.4275820000000 1.0
C      1  0.4381250000000  0.4363470000000  0.5559030000000 1.0
C      1  0.4871440000000  0.4313920000000  0.5650800000000 1.0
C      1  0.5258040000000  0.4747700000000  0.4647530000000 1.0
C      1  0.4815780000000  0.4761010000000  0.4728990000000 1.0
C      1  0.5204810000000  0.4349160000000  0.4176800000000 1.0
C      1  0.4657280000000  0.5405380000000  0.4821180000000 1.0
C      1  0.5461450000000  0.5552200000000  0.5505370000000 1.0
C      1  0.4589480000000  0.4887620000000  0.5368330000000 1.0
C      1  0.4628430000000  0.5156720000000  0.4427160000000 1.0
C      1  0.5866500000000  0.4744930000000  0.4614670000000 1.0
C      1  0.4759660000000  0.4253090000000  0.4311100000000 1.0
C      1  0.5095580000000  0.5310940000000  0.5879020000000 1.0
C      1  0.4729540000000  0.5632930000000  0.5715260000000 1.0
C      1  0.4380090000000  0.4406680000000  0.4844760000000 1.0
C      1  0.4418620000000  0.5927140000000  0.4953360000000 1.0
C      1  0.5559120000000  0.4641650000000  0.5393000000000 1.0
C      1  0.4229110000000  0.4464680000000  0.5322200000000 1.0
C      1  0.5470090000000  0.4790110000000  0.5629440000000 1.0
C      1  0.5806730000000  0.4766160000000  0.5054710000000 1.0
C      1  0.4598600000000  0.4133000000000  0.4490160000000 1.0
C      1  0.5504720000000  0.5298600000000  0.4214440000000 1.0
C      1  0.5628030000000  0.5783630000000  0.4649360000000 1.0
C      1  0.4810930000000  0.5872810000000  0.5294070000000 1.0
C      1  0.5345550000000  0.5174890000000  0.5926310000000 1.0
C      1  0.5306190000000  0.5012620000000  0.5533700000000 1.0
C      1  0.4692550000000  0.5963010000000  0.5047390000000 1.0
C      1  0.5598150000000  0.4712300000000  0.5873230000000 1.0
C      1  0.5557570000000  0.4381750000000  0.4467750000000 1.0
C      1  0.5738150000000  0.4831100000000  0.4364540000000 1.0
C      1  0.4290150000000  0.5698960000000  0.5040260000000 1.0
C      1  0.5060940000000  0.5190580000000  0.4557640000000 1.0
C      1  0.5498240000000  0.5235210000000  0.5099670000000 1.0
C      1  0.5137850000000  0.5395250000000  0.4756780000000 1.0
C      1  0.4673930000000  0.4946490000000  0.5956590000000 1.0
C      1  0.5299780000000  0.4241570000000  0.4428290000000 1.0
C      1  0.4491640000000  0.5314750000000  0.4619820000000 1.0
C      1  0.5551720000000  0.4446500000000  0.5837350000000 1.0
C      1  0.6016170000000  0.5357700000000  0.5096040000000 1.0
C      1  0.5362600000000  0.4796320000000  0.4909270000000 1.0
C      1  0.4537960000000  0.4732430000000  0.5819990000000 1.0
C      1  0.4257190000000  0.4269740000000  0.5071050000000 1.0
C      1  0.5719610000000  0.5612190000000  0.5420470000000 1.0
C      1  0.4615660000000  0.4456990000000  0.5709060000000 1.0
C      1  0.5010690000000  0.4633280000000  0.4567600000000 1.0
C      1  0.4880280000000  0.5846040000000  0.4857380000000 1.0
C      1  0.5376130000000  0.4088050000000  0.5073600000000 1.0
C      1  0.4115040000000  0.4800230000000  0.5527280000000 1.0
C      1  0.5116450000000  0.4915330000000  0.5328080000000 1.0
C      1  0.5162940000000  0.4649980000000  0.5872140000000 1.0
C      1  0.5159490000000  0.4195390000000  0.5254010000000 1.0
C      1  0.4392140000000  0.4703130000000  0.5249820000000 1.0
C      1  0.4034580000000  0.5341000000000  0.5153220000000 1.0
C      1  0.5279870000000  0.4963800000000  0.4453400000000 1.0
C      1  0.4933920000000  0.4111020000000  0.5434950000000 1.0
C      1  0.5191870000000  0.4905660000000  0.5990460000000 1.0
C      1  0.4508600000000  0.5201820000000  0.5989870000000 1.0
C      1  0.4290900000000  0.5152220000000  0.5798350000000 1.0
C      1  0.5797020000000  0.5568540000000  0.4553630000000 1.0
C      1  0.5273470000000  0.4092800000000  0.4817600000000 1.0
C      1  0.4761560000000  0.5168700000000  0.4954550000000 1.0
C      1  0.5103190000000  0.4088180000000  0.4620280000000 1.0
C      1  0.4358180000000  0.4327650000000  0.4566840000000 1.0
C      1  0.4690490000000  0.3965930000000  0.4951040000000 1.0
C      1  0.4904730000000  0.4696200000000  0.4294890000000 1.0
C      1  0.5229430000000  0.5309690000000  0.5015900000000 1.0
C      1  0.4410180000000  0.5862660000000  0.4684620000000 1.0
C      1  0.5076090000000  0.5990300000000  0.4518510000000 1.0
C      1  0.4631970000000  0.4611190000000  0.4920310000000 1.0
C      1  0.5969890000000  0.4903760000000  0.4834580000000 1.0
C      1  0.5637460000000  0.5468040000000  0.4969010000000 1.0
C      1  0.5158900000000  0.4825590000000  0.4205560000000 1.0
C      1  0.4818100000000  0.5303150000000  0.5341690000000 1.0
C      1  0.5915280000000  0.5511430000000  0.5285590000000 1.0
C      1  0.5412220000000  0.4277560000000  0.5658030000000 1.0
C      1  0.4150370000000  0.5468460000000  0.5389720000000 1.0
C      1  0.5366120000000  0.4589580000000  0.4086900000000 1.0
C      1  0.4522920000000  0.5095040000000  0.4039780000000 1.0
C      1  0.4607630000000  0.5745850000000  0.5457500000000 1.0
C      1  0.4996580000000  0.5366380000000  0.4253040000000 1.0
C      1  0.4118110000000  0.5011240000000  0.4654500000000 1.0
C      1  0.5604410000000  0.4584760000000  0.4267200000000 1.0
C      1  0.5193360000000  0.5677700000000  0.5517940000000 1.0
C      1  0.5228470000000  0.5826350000000  0.4350020000000 1.0
C      1  0.4549810000000  0.5048510000000  0.5121890000000 1.0
C      1  0.4828720000000  0.5876120000000  0.4390030000000 1.0
C      1  0.5022350000000  0.5192860000000  0.5165950000000 1.0
C      1  0.4942600000000  0.5058500000000  0.5962950000000 1.0
C      1  0.4786420000000  0.4003450000000  0.5219890000000 1.0
C      1  0.5093980000000  0.4458300000000  0.5146540000000 1.0
C      1  0.5828260000000  0.4752690000000  0.5346290000000 1.0
C      1  0.5575860000000  0.4344910000000  0.5429320000000 1.0
C      1  0.4011240000000  0.4934690000000  0.4899610000000 1.0
C      1  0.5492550000000  0.5782510000000  0.4387980000000 1.0
C      1  0.4896040000000  0.5562430000000  0.4782210000000 1.0
C      1  0.5835860000000  0.5099390000000  0.5715420000000 1.0
C      1  0.5727010000000  0.4456760000000  0.4970080000000 1.0
C      1  0.3927070000000  0.5051140000000  0.5132670000000 1.0
C      1  0.4351520000000  0.5673980000000  0.5329570000000 1.0
C      1  0.4613310000000  0.5427290000000  0.5863540000000 1.0
C      1  0.5291110000000  0.4684020000000  0.5176800000000 1.0
C      1  0.5339540000000  0.4814790000000  0.3839390000000 1.0
C      1  0.5579720000000  0.4972540000000  0.4981520000000 1.0
C      1  0.5640660000000  0.5545380000000  0.4311880000000 1.0
C      1  0.4275800000000  0.4856320000000  0.5754440000000 1.0
END
