TITL C-4164244-2836-558 -7.97338559816074 125000 -10462.1694334529 0 0 72 (C1) n - 1
REM
REM in /home/nfs/bkarasulu/CARBON/AIRSS/Generating-Clusters/ReaxFF-fromJPCA2015/Units_Real/with-SteepDescent/Only-C1/SD-CG/Try1-3A/FIRE-CG
REM
REM
REM
REM
REM
REM ./C.cell (11c1c37f851c82e70ff6c80c92926a4b)
REM
REM compiler GCC version 9.2.1 20190827 (Red Hat 9.2.1-1)
REM options -cpp -mtune=generic -march=x86-64 -g -O0 -fpre-include=/usr/include/finclude/math-vector-fortran.h
REM seed -795296660 -823080854 28328085 1164111900 -669507755 -2072457914 92315772 1898015087 -1622913255 -1221771810 312314708 1990331756 246185359 -1882126988 361530490 -1814534892 1187363148 520724703 754251372 2074182688 956727224 1522063453 -1316623697 -32910437 527648260 40910810 1811884689 -1487850319 718551040 -593397824 1302242082 -1966472888 1134975003
REM
CELL 1.54180   50.00000   50.00000   50.00000   90.00000   90.00000   90.00000
LATT -1
SFAC C  
C      1  0.5444030000000  0.4529620000000  0.4614590000000 1.0
C      1  0.4783210000000  0.5725330000000  0.5402480000000 1.0
C      1  0.5771410000000  0.5207460000000  0.5299080000000 1.0
C      1  0.5225790000000  0.4949500000000  0.4477320000000 1.0
C      1  0.4703480000000  0.5307990000000  0.4411040000000 1.0
C      1  0.5058170000000  0.5792820000000  0.5505630000000 1.0
C      1  0.5515110000000  0.4975180000000  0.4857540000000 1.0
C      1  0.5104760000000  0.4616800000000  0.4206540000000 1.0
C      1  0.4505240000000  0.4419980000000  0.4885100000000 1.0
C      1  0.5353370000000  0.5091790000000  0.5069840000000 1.0
C      1  0.4495380000000  0.5112600000000  0.5812440000000 1.0
C      1  0.5080140000000  0.4757560000000  0.5365520000000 1.0
C      1  0.4228340000000  0.4726620000000  0.4657530000000 1.0
C      1  0.4641590000000  0.4448210000000  0.5145290000000 1.0
C      1  0.4559690000000  0.4767600000000  0.5571170000000 1.0
C      1  0.5470930000000  0.5043850000000  0.4594550000000 1.0
C      1  0.4234130000000  0.4957270000000  0.5083050000000 1.0
C      1  0.4462820000000  0.5137960000000  0.4423030000000 1.0
C      1  0.4625390000000  0.4696350000000  0.5300200000000 1.0
C      1  0.4969640000000  0.4698330000000  0.4873470000000 1.0
C      1  0.5282850000000  0.5252970000000  0.5520680000000 1.0
C      1  0.5020990000000  0.5030230000000  0.5759550000000 1.0
C      1  0.5046480000000  0.5597420000000  0.4613800000000 1.0
C      1  0.5463210000000  0.5631920000000  0.4688580000000 1.0
C      1  0.5474270000000  0.5173330000000  0.5328600000000 1.0
C      1  0.5121490000000  0.5268070000000  0.5067530000000 1.0
C      1  0.4773720000000  0.5492960000000  0.4632690000000 1.0
C      1  0.5350150000000  0.5218360000000  0.4430800000000 1.0
C      1  0.5212870000000  0.5716860000000  0.4825820000000 1.0
C      1  0.5680440000000  0.5516580000000  0.4846480000000 1.0
C      1  0.4282990000000  0.5133240000000  0.4854670000000 1.0
C      1  0.4674820000000  0.5346630000000  0.5273710000000 1.0
C      1  0.4941700000000  0.5091460000000  0.3962440000000 1.0
C      1  0.4658710000000  0.4431640000000  0.4649490000000 1.0
C      1  0.5287300000000  0.4654080000000  0.5481880000000 1.0
C      1  0.4612680000000  0.5545490000000  0.4875710000000 1.0
C      1  0.4369200000000  0.5392390000000  0.4950860000000 1.0
C      1  0.4375680000000  0.5328550000000  0.5238890000000 1.0
C      1  0.5572220000000  0.4688020000000  0.4830200000000 1.0
C      1  0.5533800000000  0.4897690000000  0.5813660000000 1.0
C      1  0.4700810000000  0.4716140000000  0.4562080000000 1.0
C      1  0.4856470000000  0.4869160000000  0.5239520000000 1.0
C      1  0.5772560000000  0.4689910000000  0.5407410000000 1.0
C      1  0.5095620000000  0.4186330000000  0.4788620000000 1.0
C      1  0.4341950000000  0.4964600000000  0.5590990000000 1.0
C      1  0.4914790000000  0.4493450000000  0.5089300000000 1.0
C      1  0.4993590000000  0.4282670000000  0.5026560000000 1.0
C      1  0.4896170000000  0.4265440000000  0.4572160000000 1.0
C      1  0.5786690000000  0.4843570000000  0.5656910000000 1.0
C      1  0.4958620000000  0.4850870000000  0.4664000000000 1.0
C      1  0.4738980000000  0.5599850000000  0.5136060000000 1.0
C      1  0.5282830000000  0.5728750000000  0.5315940000000 1.0
C      1  0.5071630000000  0.5318070000000  0.5679200000000 1.0
C      1  0.4910610000000  0.5575960000000  0.5625190000000 1.0
C      1  0.4875890000000  0.5160140000000  0.5166640000000 1.0
C      1  0.4310020000000  0.4563090000000  0.4823040000000 1.0
C      1  0.4904480000000  0.5156310000000  0.4227700000000 1.0
C      1  0.4450760000000  0.4849230000000  0.4499730000000 1.0
C      1  0.5349630000000  0.4330630000000  0.4817930000000 1.0
C      1  0.5200640000000  0.5566520000000  0.5079980000000 1.0
C      1  0.5006700000000  0.4414220000000  0.4363320000000 1.0
C      1  0.5500140000000  0.4492640000000  0.5033410000000 1.0
C      1  0.5824100000000  0.5367760000000  0.5052710000000 1.0
C      1  0.4093390000000  0.4902930000000  0.4824440000000 1.0
C      1  0.5257290000000  0.4839990000000  0.5741020000000 1.0
C      1  0.4736510000000  0.4936820000000  0.5758580000000 1.0
C      1  0.5524950000000  0.4566530000000  0.5315830000000 1.0
C      1  0.5884940000000  0.4965150000000  0.5405880000000 1.0
C      1  0.4929520000000  0.4874710000000  0.4126130000000 1.0
C      1  0.5293230000000  0.5494860000000  0.4484420000000 1.0
C      1  0.4240160000000  0.5092610000000  0.5340010000000 1.0
C      1  0.5328170000000  0.4670380000000  0.4383850000000 1.0
END
