TITL C-4164239-2837-23 13.2438199769323 125000 -9344.04685754546 0 0 64 (C1) n - 1
REM
REM in /home/nfs/bkarasulu/CARBON/AIRSS/Generating-Clusters/ReaxFF-fromJPCA2015/Units_Real/with-SteepDescent/Only-C1/SD-CG/Try1-3A/FIRE-CG
REM
REM
REM
REM
REM
REM ./C.cell (11c1c37f851c82e70ff6c80c92926a4b)
REM
REM compiler GCC version 9.2.1 20190827 (Red Hat 9.2.1-1)
REM options -cpp -mtune=generic -march=x86-64 -g -O0 -fpre-include=/usr/include/finclude/math-vector-fortran.h
REM seed 2029500981 -1200864863 -1878509575 711359141 -873470547 -2042302346 -338606210 -35847503 935592794 1230342264 18996765 744961486 -399985390 1603873321 1976093629 1487793864 -1585405916 762395749 -1402559285 763823525 877667556 -455485445 1514255500 -354941206 856394197 1964297291 371072870 -1537784323 1869605787 -605699503 1730380959 -103982312 -1362181823
REM
CELL 1.54180   50.00000   50.00000   50.00000   90.00000   90.00000   90.00000
LATT -1
SFAC C  
C      1  0.4676000000000  0.5286580000000  0.5618830000000 1.0
C      1  0.4651080000000  0.5445360000000  0.4952080000000 1.0
C      1  0.5320100000000  0.4933240000000  0.4513840000000 1.0
C      1  0.5631750000000  0.5157630000000  0.4788480000000 1.0
C      1  0.4715170000000  0.5027880000000  0.5149710000000 1.0
C      1  0.4932540000000  0.4602210000000  0.4364630000000 1.0
C      1  0.5186830000000  0.5381610000000  0.5539150000000 1.0
C      1  0.4421580000000  0.5092840000000  0.4741880000000 1.0
C      1  0.5551470000000  0.4495010000000  0.5558190000000 1.0
C      1  0.5152480000000  0.5300400000000  0.5266090000000 1.0
C      1  0.5497830000000  0.5622280000000  0.5357050000000 1.0
C      1  0.4838460000000  0.4404080000000  0.4857590000000 1.0
C      1  0.5761030000000  0.4800540000000  0.5146190000000 1.0
C      1  0.4773220000000  0.5736710000000  0.5473450000000 1.0
C      1  0.4332960000000  0.4805890000000  0.4738820000000 1.0
C      1  0.5007750000000  0.4258860000000  0.5068280000000 1.0
C      1  0.5408680000000  0.4596160000000  0.5375200000000 1.0
C      1  0.5448230000000  0.4511840000000  0.5078770000000 1.0
C      1  0.4784180000000  0.5489990000000  0.4465940000000 1.0
C      1  0.4800500000000  0.5585230000000  0.4748450000000 1.0
C      1  0.4428810000000  0.4694320000000  0.4483440000000 1.0
C      1  0.5609650000000  0.5145690000000  0.5565740000000 1.0
C      1  0.4591240000000  0.5508670000000  0.5451980000000 1.0
C      1  0.4420910000000  0.5225810000000  0.4491690000000 1.0
C      1  0.4304400000000  0.5229580000000  0.5163880000000 1.0
C      1  0.5616890000000  0.4694190000000  0.4909290000000 1.0
C      1  0.5129150000000  0.4781790000000  0.5441170000000 1.0
C      1  0.4542670000000  0.4329040000000  0.5292460000000 1.0
C      1  0.4501580000000  0.4871020000000  0.4285470000000 1.0
C      1  0.5200760000000  0.4671520000000  0.4360110000000 1.0
C      1  0.5625620000000  0.5237260000000  0.5067820000000 1.0
C      1  0.5120610000000  0.4956670000000  0.5690920000000 1.0
C      1  0.5459750000000  0.5354560000000  0.4649950000000 1.0
C      1  0.4232480000000  0.4723730000000  0.5001370000000 1.0
C      1  0.4567170000000  0.5371570000000  0.4309740000000 1.0
C      1  0.5103700000000  0.4881040000000  0.4771970000000 1.0
C      1  0.5556240000000  0.4893540000000  0.4697220000000 1.0
C      1  0.4847880000000  0.4311030000000  0.5319990000000 1.0
C      1  0.4469940000000  0.5460460000000  0.5182450000000 1.0
C      1  0.5108430000000  0.5012580000000  0.4977890000000 1.0
C      1  0.5399670000000  0.5445100000000  0.5115780000000 1.0
C      1  0.5283550000000  0.5228960000000  0.4461960000000 1.0
C      1  0.4957180000000  0.4655880000000  0.4836750000000 1.0
C      1  0.5330880000000  0.5157700000000  0.5672900000000 1.0
C      1  0.4565380000000  0.5103250000000  0.4125250000000 1.0
C      1  0.5071960000000  0.5432910000000  0.4475190000000 1.0
C      1  0.4982220000000  0.4543540000000  0.5392780000000 1.0
C      1  0.4587070000000  0.4802060000000  0.5210960000000 1.0
C      1  0.4688480000000  0.4279010000000  0.4619130000000 1.0
C      1  0.5710310000000  0.5067720000000  0.5282020000000 1.0
C      1  0.4216910000000  0.4988040000000  0.5102830000000 1.0
C      1  0.5344810000000  0.4240200000000  0.4681040000000 1.0
C      1  0.5282440000000  0.4299930000000  0.4984680000000 1.0
C      1  0.5043350000000  0.5849960000000  0.5504460000000 1.0
C      1  0.5088830000000  0.5579640000000  0.4721970000000 1.0
C      1  0.5620730000000  0.5418720000000  0.5506620000000 1.0
C      1  0.4628720000000  0.5179020000000  0.4922260000000 1.0
C      1  0.5279010000000  0.5662930000000  0.5545850000000 1.0
C      1  0.5283100000000  0.4433130000000  0.4483890000000 1.0
C      1  0.4856400000000  0.5081740000000  0.5730770000000 1.0
C      1  0.4668800000000  0.4499810000000  0.4421310000000 1.0
C      1  0.5032400000000  0.5046280000000  0.5219550000000 1.0
C      1  0.5333950000000  0.5533160000000  0.4839640000000 1.0
C      1  0.4414130000000  0.4582880000000  0.5225250000000 1.0
END
