TITL C-4164243-3780-573 -1.25254409558838 125000 -21287.4187536623 0 0 143 (C1) n - 1
REM
REM in /home/nfs/bkarasulu/CARBON/AIRSS/Generating-Clusters/ReaxFF-fromJPCA2015/Units_Real/with-SteepDescent/Only-C1/SD-CG/Try1-3A/FIRE-CG
REM
REM
REM
REM
REM
REM ./C.cell (11c1c37f851c82e70ff6c80c92926a4b)
REM
REM compiler GCC version 9.2.1 20190827 (Red Hat 9.2.1-1)
REM options -cpp -mtune=generic -march=x86-64 -g -O0 -fpre-include=/usr/include/finclude/math-vector-fortran.h
REM seed -255120794 2131181166 -1547341229 -379239613 2091510029 -1282621458 234485706 -85214530 567478596 1441286082 -1991091733 -961195614 -822445746 -854368481 -1032162305 -1400843544 -1960259443 -780877276 505727593 -1205010641 1649772047 930149880 37110981 -845184796 1143971145 1100444614 1562117285 36050346 1834979119 -483363515 1041180186 257164368 1262946869
REM
CELL 1.54180   50.00000   50.00000   50.00000   90.00000   90.00000   90.00000
LATT -1
SFAC C  
C      1  0.4237010000000  0.4863420000000  0.4252960000000 1.0
C      1  0.4694780000000  0.5005420000000  0.4049050000000 1.0
C      1  0.5373460000000  0.4928900000000  0.5525290000000 1.0
C      1  0.4738580000000  0.5805990000000  0.4581970000000 1.0
C      1  0.4371970000000  0.5633160000000  0.4874060000000 1.0
C      1  0.4249960000000  0.4421080000000  0.4791250000000 1.0
C      1  0.4577060000000  0.4767940000000  0.5489150000000 1.0
C      1  0.4802810000000  0.5116510000000  0.4535700000000 1.0
C      1  0.4600100000000  0.4683170000000  0.5230010000000 1.0
C      1  0.4827870000000  0.4705960000000  0.5959090000000 1.0
C      1  0.4457960000000  0.5008010000000  0.5536660000000 1.0
C      1  0.5107230000000  0.4560600000000  0.4562830000000 1.0
C      1  0.4536730000000  0.5611480000000  0.5610690000000 1.0
C      1  0.4488610000000  0.5232740000000  0.5116790000000 1.0
C      1  0.4228660000000  0.5703650000000  0.4607220000000 1.0
C      1  0.5796340000000  0.5659270000000  0.5382010000000 1.0
C      1  0.5566270000000  0.5891390000000  0.4868790000000 1.0
C      1  0.5846080000000  0.4460990000000  0.5068830000000 1.0
C      1  0.4402180000000  0.5036670000000  0.4928590000000 1.0
C      1  0.4761460000000  0.5630040000000  0.5454230000000 1.0
C      1  0.4751690000000  0.4982770000000  0.5885500000000 1.0
C      1  0.4082210000000  0.5166610000000  0.5351210000000 1.0
C      1  0.4827500000000  0.4546240000000  0.4574160000000 1.0
C      1  0.5424870000000  0.5910060000000  0.5126980000000 1.0
C      1  0.5379620000000  0.5743500000000  0.5366240000000 1.0
C      1  0.5612770000000  0.5883100000000  0.5340680000000 1.0
C      1  0.4424040000000  0.5070540000000  0.4115740000000 1.0
C      1  0.5285900000000  0.4119760000000  0.5387700000000 1.0
C      1  0.4236740000000  0.4516070000000  0.5656980000000 1.0
C      1  0.5821490000000  0.4575820000000  0.5358470000000 1.0
C      1  0.5386410000000  0.5978660000000  0.4650790000000 1.0
C      1  0.5140380000000  0.5504560000000  0.4560140000000 1.0
C      1  0.5905470000000  0.5522520000000  0.5153730000000 1.0
C      1  0.5128270000000  0.5585010000000  0.5722190000000 1.0
C      1  0.4379460000000  0.4637250000000  0.4292140000000 1.0
C      1  0.5624550000000  0.5468880000000  0.5538330000000 1.0
C      1  0.4078070000000  0.4363530000000  0.5036040000000 1.0
C      1  0.5280420000000  0.5197080000000  0.5458140000000 1.0
C      1  0.4901000000000  0.5433290000000  0.5840340000000 1.0
C      1  0.4773030000000  0.4453750000000  0.5240850000000 1.0
C      1  0.4636000000000  0.4357580000000  0.4460410000000 1.0
C      1  0.5875150000000  0.4838450000000  0.5452660000000 1.0
C      1  0.4918140000000  0.5638310000000  0.4425510000000 1.0
C      1  0.4120350000000  0.4877680000000  0.4522800000000 1.0
C      1  0.4131830000000  0.5158360000000  0.4878280000000 1.0
C      1  0.5647590000000  0.4889890000000  0.5655310000000 1.0
C      1  0.4882640000000  0.5865090000000  0.5373530000000 1.0
C      1  0.5400110000000  0.5532520000000  0.4355380000000 1.0
C      1  0.5536650000000  0.4638440000000  0.5766950000000 1.0
C      1  0.5006240000000  0.4883530000000  0.4871620000000 1.0
C      1  0.6026440000000  0.4745490000000  0.4924220000000 1.0
C      1  0.4283710000000  0.5368510000000  0.5274810000000 1.0
C      1  0.5951170000000  0.5336640000000  0.4954370000000 1.0
C      1  0.5202790000000  0.4068550000000  0.5106820000000 1.0
C      1  0.4106160000000  0.5441900000000  0.4573930000000 1.0
C      1  0.4919750000000  0.4017100000000  0.5050590000000 1.0
C      1  0.5967230000000  0.4943190000000  0.4445230000000 1.0
C      1  0.5899300000000  0.5003040000000  0.4991200000000 1.0
C      1  0.5895720000000  0.5068970000000  0.5280000000000 1.0
C      1  0.5129290000000  0.5786510000000  0.5513260000000 1.0
C      1  0.4846190000000  0.5096530000000  0.4809570000000 1.0
C      1  0.5434820000000  0.4945380000000  0.4192460000000 1.0
C      1  0.5182200000000  0.4927500000000  0.5106820000000 1.0
C      1  0.5650740000000  0.5101220000000  0.5928570000000 1.0
C      1  0.5079650000000  0.4526520000000  0.5363940000000 1.0
C      1  0.4775010000000  0.4662880000000  0.4836280000000 1.0
C      1  0.4507790000000  0.5594770000000  0.4219970000000 1.0
C      1  0.5498650000000  0.4337770000000  0.4715530000000 1.0
C      1  0.4417260000000  0.4057010000000  0.5234200000000 1.0
C      1  0.5154220000000  0.5945440000000  0.4815850000000 1.0
C      1  0.5192210000000  0.5480860000000  0.4149200000000 1.0
C      1  0.4598890000000  0.4512600000000  0.4199920000000 1.0
C      1  0.4751450000000  0.5266610000000  0.5011120000000 1.0
C      1  0.5316740000000  0.4377290000000  0.4484780000000 1.0
C      1  0.5622170000000  0.4827940000000  0.4857460000000 1.0
C      1  0.4792780000000  0.3938950000000  0.5316000000000 1.0
C      1  0.4403350000000  0.5322930000000  0.4255670000000 1.0
C      1  0.4798100000000  0.4715360000000  0.4081160000000 1.0
C      1  0.4185950000000  0.4985070000000  0.5555130000000 1.0
C      1  0.5151880000000  0.4825940000000  0.5379780000000 1.0
C      1  0.5669050000000  0.4224400000000  0.5125250000000 1.0
C      1  0.4635160000000  0.4184380000000  0.5343990000000 1.0
C      1  0.5300420000000  0.4496460000000  0.5126510000000 1.0
C      1  0.5370340000000  0.5404070000000  0.5704170000000 1.0
C      1  0.5345590000000  0.4811950000000  0.5925730000000 1.0
C      1  0.4377900000000  0.5632960000000  0.5362700000000 1.0
C      1  0.5412390000000  0.4757130000000  0.5061550000000 1.0
C      1  0.5636530000000  0.5313980000000  0.4367840000000 1.0
C      1  0.5163230000000  0.5437450000000  0.4840360000000 1.0
C      1  0.4973390000000  0.5151470000000  0.5792760000000 1.0
C      1  0.6128230000000  0.4787300000000  0.4657440000000 1.0
C      1  0.4738140000000  0.4452030000000  0.5850650000000 1.0
C      1  0.5442660000000  0.4999190000000  0.4679900000000 1.0
C      1  0.5890350000000  0.5242500000000  0.4470350000000 1.0
C      1  0.5662140000000  0.5247490000000  0.5348660000000 1.0
C      1  0.4505410000000  0.5120260000000  0.5786430000000 1.0
C      1  0.5555440000000  0.4685740000000  0.4165960000000 1.0
C      1  0.4230690000000  0.4156300000000  0.5127890000000 1.0
C      1  0.3975670000000  0.5053210000000  0.5102910000000 1.0
C      1  0.4838810000000  0.5270250000000  0.4031790000000 1.0
C      1  0.5141290000000  0.4308790000000  0.5561500000000 1.0
C      1  0.4611720000000  0.5401660000000  0.5793890000000 1.0
C      1  0.5450580000000  0.4152120000000  0.4944100000000 1.0
C      1  0.4992940000000  0.5178260000000  0.5489930000000 1.0
C      1  0.4786100000000  0.5532320000000  0.4166340000000 1.0
C      1  0.4529720000000  0.4783750000000  0.4975660000000 1.0
C      1  0.5430690000000  0.5260230000000  0.5178470000000 1.0
C      1  0.5561490000000  0.4215150000000  0.5397000000000 1.0
C      1  0.4092250000000  0.4692840000000  0.5493650000000 1.0
C      1  0.4745940000000  0.4181830000000  0.4864460000000 1.0
C      1  0.5126310000000  0.5243650000000  0.4006510000000 1.0
C      1  0.5061500000000  0.4609770000000  0.4118010000000 1.0
C      1  0.4821980000000  0.4429700000000  0.4973950000000 1.0
C      1  0.5866850000000  0.5439770000000  0.4691170000000 1.0
C      1  0.5164910000000  0.4999690000000  0.4156330000000 1.0
C      1  0.4749300000000  0.5883900000000  0.5112670000000 1.0
C      1  0.5818390000000  0.4743850000000  0.4291370000000 1.0
C      1  0.4487320000000  0.5766100000000  0.5122470000000 1.0
C      1  0.4875790000000  0.5911180000000  0.4839290000000 1.0
C      1  0.5533880000000  0.5786450000000  0.4468030000000 1.0
C      1  0.4494780000000  0.5422720000000  0.4741910000000 1.0
C      1  0.4957880000000  0.5455480000000  0.5063900000000 1.0
C      1  0.5114400000000  0.4697600000000  0.6061010000000 1.0
C      1  0.5533080000000  0.5069900000000  0.4416840000000 1.0
C      1  0.5167760000000  0.4854620000000  0.4621710000000 1.0
C      1  0.4498400000000  0.4271170000000  0.4706790000000 1.0
C      1  0.4123720000000  0.4683520000000  0.4739550000000 1.0
C      1  0.3990740000000  0.4773920000000  0.5003590000000 1.0
C      1  0.5703250000000  0.5693980000000  0.4679370000000 1.0
C      1  0.5635740000000  0.4460340000000  0.5547990000000 1.0
C      1  0.4015080000000  0.4594840000000  0.5220040000000 1.0
C      1  0.4877960000000  0.3974040000000  0.5612710000000 1.0
C      1  0.5320750000000  0.4499050000000  0.4212410000000 1.0
C      1  0.5363600000000  0.5231360000000  0.4901340000000 1.0
C      1  0.4924340000000  0.4236220000000  0.5749470000000 1.0
C      1  0.4511010000000  0.4541270000000  0.5680580000000 1.0
C      1  0.4546850000000  0.5268610000000  0.4513950000000 1.0
C      1  0.4481030000000  0.5768510000000  0.4456550000000 1.0
C      1  0.5688930000000  0.4536910000000  0.4820610000000 1.0
C      1  0.4033950000000  0.5166420000000  0.4599900000000 1.0
C      1  0.5372170000000  0.5144660000000  0.5905420000000 1.0
C      1  0.5024720000000  0.4997760000000  0.4405770000000 1.0
C      1  0.4914030000000  0.5413880000000  0.5349090000000 1.0
END
