TITL C-4164238-4211-88 2.37809668058683 125000 -15642.6482396654 0 0 105 (C1) n - 1
REM
REM in /home/nfs/bkarasulu/CARBON/AIRSS/Generating-Clusters/ReaxFF-fromJPCA2015/Units_Real/with-SteepDescent/Only-C1/SD-CG/Try1-3A/FIRE-CG
REM
REM
REM
REM
REM
REM ./C.cell (11c1c37f851c82e70ff6c80c92926a4b)
REM
REM compiler GCC version 9.2.1 20190827 (Red Hat 9.2.1-1)
REM options -cpp -mtune=generic -march=x86-64 -g -O0 -fpre-include=/usr/include/finclude/math-vector-fortran.h
REM seed 622864543 -1208327894 -2053375745 -1260217340 1878160925 105928102 26423612 140572579 -371655583 1445047050 1406075771 -1574857091 -1616468501 -1498356906 630255378 974962363 2081796913 475894495 331300881 -790718530 -955735480 2055408578 129203569 2064704047 -702053205 -914735813 1119765833 -1601193305 -400068408 854474279 -1761065971 678254472 947223681
REM
CELL 1.54180   50.00000   50.00000   50.00000   90.00000   90.00000   90.00000
LATT -1
SFAC C  
C      1  0.5623930000000  0.4495550000000  0.4685310000000 1.0
C      1  0.5745110000000  0.5131530000000  0.5432420000000 1.0
C      1  0.4944370000000  0.5308220000000  0.4727290000000 1.0
C      1  0.5110300000000  0.5512870000000  0.5129510000000 1.0
C      1  0.4456740000000  0.4356860000000  0.4556880000000 1.0
C      1  0.5677150000000  0.4886940000000  0.5510130000000 1.0
C      1  0.5143190000000  0.5043590000000  0.5389430000000 1.0
C      1  0.5366030000000  0.5365610000000  0.5698870000000 1.0
C      1  0.4294180000000  0.5046640000000  0.5448950000000 1.0
C      1  0.4360080000000  0.4872700000000  0.4452720000000 1.0
C      1  0.4998510000000  0.4595420000000  0.4779380000000 1.0
C      1  0.5273560000000  0.4214520000000  0.4541070000000 1.0
C      1  0.5605210000000  0.4956470000000  0.4592140000000 1.0
C      1  0.5043160000000  0.4558350000000  0.4134970000000 1.0
C      1  0.4191290000000  0.4569560000000  0.4838900000000 1.0
C      1  0.5192740000000  0.5630150000000  0.4428950000000 1.0
C      1  0.5835770000000  0.5443070000000  0.4560670000000 1.0
C      1  0.4488320000000  0.5649450000000  0.4516170000000 1.0
C      1  0.5319320000000  0.4623110000000  0.4264850000000 1.0
C      1  0.4701140000000  0.4314240000000  0.4449030000000 1.0
C      1  0.4706390000000  0.5230780000000  0.5944190000000 1.0
C      1  0.5175260000000  0.5337550000000  0.4919070000000 1.0
C      1  0.4392310000000  0.5362860000000  0.4461580000000 1.0
C      1  0.4487170000000  0.5545700000000  0.5354310000000 1.0
C      1  0.4965630000000  0.5976280000000  0.5106820000000 1.0
C      1  0.5065610000000  0.4319340000000  0.5446670000000 1.0
C      1  0.5290590000000  0.5691050000000  0.5263800000000 1.0
C      1  0.4510950000000  0.4209470000000  0.4801000000000 1.0
C      1  0.5807690000000  0.4511800000000  0.5121380000000 1.0
C      1  0.5360290000000  0.4964990000000  0.4724030000000 1.0
C      1  0.4088980000000  0.5053050000000  0.4809380000000 1.0
C      1  0.4789830000000  0.5063520000000  0.4133150000000 1.0
C      1  0.5106510000000  0.4086660000000  0.4737010000000 1.0
C      1  0.4302930000000  0.4605670000000  0.4578690000000 1.0
C      1  0.5148360000000  0.4359160000000  0.4743750000000 1.0
C      1  0.4283150000000  0.4311860000000  0.4945220000000 1.0
C      1  0.4659720000000  0.5474960000000  0.5128220000000 1.0
C      1  0.5763200000000  0.4752190000000  0.4727990000000 1.0
C      1  0.5087090000000  0.5878990000000  0.5354840000000 1.0
C      1  0.4581840000000  0.5345660000000  0.4252040000000 1.0
C      1  0.4689080000000  0.5468610000000  0.4845420000000 1.0
C      1  0.5513600000000  0.5711670000000  0.4827760000000 1.0
C      1  0.4945900000000  0.5682950000000  0.4314120000000 1.0
C      1  0.4902590000000  0.4802310000000  0.4063280000000 1.0
C      1  0.5880050000000  0.5259270000000  0.5008270000000 1.0
C      1  0.4414450000000  0.4356810000000  0.5420160000000 1.0
C      1  0.4558420000000  0.4154170000000  0.5267650000000 1.0
C      1  0.4896040000000  0.5149580000000  0.5328480000000 1.0
C      1  0.4271290000000  0.5348550000000  0.5398310000000 1.0
C      1  0.4741510000000  0.4674240000000  0.5236460000000 1.0
C      1  0.5225320000000  0.4859720000000  0.5888330000000 1.0
C      1  0.4167840000000  0.5397860000000  0.5148680000000 1.0
C      1  0.4138570000000  0.4812620000000  0.4992010000000 1.0
C      1  0.5563970000000  0.5603080000000  0.5309050000000 1.0
C      1  0.4811430000000  0.5929920000000  0.4866600000000 1.0
C      1  0.4920820000000  0.5439610000000  0.5935300000000 1.0
C      1  0.4989360000000  0.4092870000000  0.5004570000000 1.0
C      1  0.4449960000000  0.4651740000000  0.5410910000000 1.0
C      1  0.4111560000000  0.5299030000000  0.4919550000000 1.0
C      1  0.4888880000000  0.5423630000000  0.5276200000000 1.0
C      1  0.5260670000000  0.4896490000000  0.4258620000000 1.0
C      1  0.5581280000000  0.5378350000000  0.5485790000000 1.0
C      1  0.5299670000000  0.5114320000000  0.5794990000000 1.0
C      1  0.4292590000000  0.4228590000000  0.5212070000000 1.0
C      1  0.5066530000000  0.5830250000000  0.4887650000000 1.0
C      1  0.5345750000000  0.5114120000000  0.4947360000000 1.0
C      1  0.4615410000000  0.5734650000000  0.4765380000000 1.0
C      1  0.4687060000000  0.5608380000000  0.5564750000000 1.0
C      1  0.5117270000000  0.5540970000000  0.5744960000000 1.0
C      1  0.4945230000000  0.4888290000000  0.5849470000000 1.0
C      1  0.5195880000000  0.4779260000000  0.5363480000000 1.0
C      1  0.5100020000000  0.4846490000000  0.4677550000000 1.0
C      1  0.4719750000000  0.4970100000000  0.5181190000000 1.0
C      1  0.4982950000000  0.4596730000000  0.5378590000000 1.0
C      1  0.5682230000000  0.5663210000000  0.5033880000000 1.0
C      1  0.5442300000000  0.4440520000000  0.4464330000000 1.0
C      1  0.4755990000000  0.4639090000000  0.4933670000000 1.0
C      1  0.5178270000000  0.4185070000000  0.5206110000000 1.0
C      1  0.4229340000000  0.4831410000000  0.5262700000000 1.0
C      1  0.5452130000000  0.4285870000000  0.5167910000000 1.0
C      1  0.5100920000000  0.5126510000000  0.4255860000000 1.0
C      1  0.5383690000000  0.4603110000000  0.5789860000000 1.0
C      1  0.5707890000000  0.5190820000000  0.4447920000000 1.0
C      1  0.5239680000000  0.4415340000000  0.5647260000000 1.0
C      1  0.4678340000000  0.4963010000000  0.5809830000000 1.0
C      1  0.5883300000000  0.5038050000000  0.5155490000000 1.0
C      1  0.4575980000000  0.4929710000000  0.4283860000000 1.0
C      1  0.5968060000000  0.5279420000000  0.4383160000000 1.0
C      1  0.5605200000000  0.4626210000000  0.5587250000000 1.0
C      1  0.4457590000000  0.4878290000000  0.5614610000000 1.0
C      1  0.4708870000000  0.4914600000000  0.4903780000000 1.0
C      1  0.5641060000000  0.4346690000000  0.4939350000000 1.0
C      1  0.5291120000000  0.5776560000000  0.4689810000000 1.0
C      1  0.4669600000000  0.5627880000000  0.4268560000000 1.0
C      1  0.4651000000000  0.5495920000000  0.5836580000000 1.0
C      1  0.4702210000000  0.4139820000000  0.5016560000000 1.0
C      1  0.5849850000000  0.4777900000000  0.5003880000000 1.0
C      1  0.4864010000000  0.4404820000000  0.4304520000000 1.0
C      1  0.4879800000000  0.5027960000000  0.4724410000000 1.0
C      1  0.5117620000000  0.5345180000000  0.4449970000000 1.0
C      1  0.5867850000000  0.5492100000000  0.4868230000000 1.0
C      1  0.4967110000000  0.5718580000000  0.5568040000000 1.0
C      1  0.4244930000000  0.5124570000000  0.4574820000000 1.0
C      1  0.5631170000000  0.4439080000000  0.5346960000000 1.0
C      1  0.5338530000000  0.4971120000000  0.5197040000000 1.0
END
