TITL C-4164234-2335-337 0.36843309804745 125000 -9624.70230172844 0 0 65 (C1) n - 1
REM
REM in /home/nfs/bkarasulu/CARBON/AIRSS/Generating-Clusters/ReaxFF-fromJPCA2015/Units_Real/with-SteepDescent/Only-C1/SD-CG/Try1-3A/FIRE-CG
REM
REM
REM
REM
REM
REM ./C.cell (11c1c37f851c82e70ff6c80c92926a4b)
REM
REM compiler GCC version 9.2.1 20190827 (Red Hat 9.2.1-1)
REM options -cpp -mtune=generic -march=x86-64 -g -O0 -fpre-include=/usr/include/finclude/math-vector-fortran.h
REM seed 340447694 669144294 -201369067 -1778678712 1186164098 -706659130 2024127630 400008001 -238779398 1079509641 -704598632 1622125006 416160917 -2076424128 1805425959 -212766765 -1683528523 -923500557 686604693 480474066 -2141924491 -781322075 402170893 1734978931 -1594645627 512191073 -1811310802 732832568 -1830471457 -2098365167 1862666060 -1207087089 -1284977852
REM
CELL 1.54180   50.00000   50.00000   50.00000   90.00000   90.00000   90.00000
LATT -1
SFAC C  
C      1  0.5223730000000  0.5402960000000  0.5539620000000 1.0
C      1  0.4986610000000  0.4458150000000  0.5438560000000 1.0
C      1  0.4778710000000  0.4846880000000  0.4350440000000 1.0
C      1  0.5173920000000  0.5450060000000  0.4500030000000 1.0
C      1  0.5442840000000  0.5557330000000  0.4862580000000 1.0
C      1  0.5639030000000  0.5244390000000  0.4549770000000 1.0
C      1  0.5639120000000  0.5039360000000  0.5200850000000 1.0
C      1  0.4705200000000  0.5535250000000  0.4592490000000 1.0
C      1  0.4924690000000  0.5119240000000  0.4308690000000 1.0
C      1  0.4834460000000  0.5699990000000  0.5343590000000 1.0
C      1  0.4739120000000  0.5093590000000  0.5731850000000 1.0
C      1  0.5537800000000  0.4997510000000  0.5474620000000 1.0
C      1  0.4253570000000  0.4918500000000  0.4406490000000 1.0
C      1  0.4526780000000  0.4338940000000  0.5326830000000 1.0
C      1  0.5150020000000  0.4267120000000  0.4823170000000 1.0
C      1  0.4930700000000  0.4213660000000  0.5005320000000 1.0
C      1  0.4373020000000  0.5184360000000  0.4863760000000 1.0
C      1  0.4728490000000  0.4658510000000  0.4813500000000 1.0
C      1  0.4474790000000  0.4763340000000  0.4332310000000 1.0
C      1  0.4541470000000  0.4554460000000  0.5544260000000 1.0
C      1  0.5133450000000  0.4488600000000  0.4619390000000 1.0
C      1  0.5700250000000  0.5303720000000  0.5097050000000 1.0
C      1  0.5609050000000  0.4736540000000  0.4747480000000 1.0
C      1  0.4444550000000  0.5047170000000  0.5362530000000 1.0
C      1  0.4473340000000  0.4801490000000  0.5452880000000 1.0
C      1  0.5399280000000  0.5719420000000  0.5335440000000 1.0
C      1  0.5195800000000  0.5069290000000  0.4827340000000 1.0
C      1  0.4456570000000  0.5386730000000  0.4675440000000 1.0
C      1  0.5539740000000  0.4822630000000  0.5025370000000 1.0
C      1  0.5345340000000  0.5172770000000  0.5641030000000 1.0
C      1  0.5485810000000  0.5733330000000  0.5073940000000 1.0
C      1  0.5265930000000  0.4566490000000  0.5345430000000 1.0
C      1  0.4210120000000  0.4584540000000  0.4800080000000 1.0
C      1  0.4822090000000  0.4289840000000  0.5274040000000 1.0
C      1  0.4885330000000  0.4633730000000  0.4575080000000 1.0
C      1  0.4563660000000  0.5243320000000  0.5551960000000 1.0
C      1  0.4173200000000  0.4745800000000  0.4605220000000 1.0
C      1  0.4899250000000  0.5388470000000  0.4425230000000 1.0
C      1  0.5407010000000  0.4226120000000  0.4992560000000 1.0
C      1  0.4465340000000  0.4480620000000  0.4848380000000 1.0
C      1  0.5459270000000  0.4329690000000  0.5253030000000 1.0
C      1  0.5134100000000  0.5628690000000  0.5431670000000 1.0
C      1  0.4787740000000  0.4870230000000  0.4993800000000 1.0
C      1  0.4947330000000  0.5474670000000  0.4949280000000 1.0
C      1  0.4769400000000  0.5333280000000  0.5133180000000 1.0
C      1  0.5215000000000  0.5074050000000  0.4316340000000 1.0
C      1  0.4389050000000  0.4397540000000  0.5094570000000 1.0
C      1  0.4586400000000  0.5085390000000  0.5072080000000 1.0
C      1  0.5209000000000  0.4913620000000  0.5725340000000 1.0
C      1  0.4763590000000  0.5825490000000  0.5082850000000 1.0
C      1  0.5670550000000  0.5383490000000  0.4814310000000 1.0
C      1  0.4820820000000  0.5697540000000  0.4813530000000 1.0
C      1  0.5682080000000  0.4993850000000  0.4664650000000 1.0
C      1  0.5061800000000  0.4931650000000  0.5027910000000 1.0
C      1  0.5632460000000  0.5555850000000  0.5233660000000 1.0
C      1  0.5189270000000  0.5380820000000  0.4810320000000 1.0
C      1  0.4826820000000  0.4597000000000  0.5625170000000 1.0
C      1  0.4918300000000  0.4856110000000  0.5739590000000 1.0
C      1  0.4668680000000  0.5457900000000  0.5365320000000 1.0
C      1  0.5389490000000  0.4762240000000  0.5557330000000 1.0
C      1  0.4533120000000  0.5016010000000  0.4367760000000 1.0
C      1  0.5388850000000  0.5301690000000  0.4383290000000 1.0
C      1  0.5365930000000  0.4663000000000  0.4584280000000 1.0
C      1  0.5249910000000  0.4930310000000  0.4579050000000 1.0
C      1  0.5261850000000  0.4755690000000  0.5097080000000 1.0
END
