TITL C-4164234-2335-578 201.368526379043 125000 -24423.8516136289 0 0 166 (C1) n - 1
REM
REM in /home/nfs/bkarasulu/CARBON/AIRSS/Generating-Clusters/ReaxFF-fromJPCA2015/Units_Real/with-SteepDescent/Only-C1/SD-CG/Try1-3A/FIRE-CG
REM
REM
REM
REM
REM
REM ./C.cell (11c1c37f851c82e70ff6c80c92926a4b)
REM
REM compiler GCC version 9.2.1 20190827 (Red Hat 9.2.1-1)
REM options -cpp -mtune=generic -march=x86-64 -g -O0 -fpre-include=/usr/include/finclude/math-vector-fortran.h
REM seed 384190699 -1641402856 674124078 1043483629 1662490346 -422976242 4984395 305614614 125636432 673430370 672212999 1422278636 2055949680 -89920648 -2124124170 -302963947 51908953 1478206171 -2005058955 -1987821685 245553796 -895710712 268384314 -1072682902 1657825372 -1593941410 1845635234 1546327808 -1814598408 425872638 1561056332 -460806558 -1452927307
REM
CELL 1.54180   50.00000   50.00000   50.00000   90.00000   90.00000   90.00000
LATT -1
SFAC C  
C      1  0.4926180000000  0.5284280000000  0.4380990000000 1.0
C      1  0.4428950000000  0.5853380000000  0.5132740000000 1.0
C      1  0.5024370000000  0.5033950000000  0.4406860000000 1.0
C      1  0.5505080000000  0.4722830000000  0.5823920000000 1.0
C      1  0.5739700000000  0.4545530000000  0.4648480000000 1.0
C      1  0.4145940000000  0.5223230000000  0.5066770000000 1.0
C      1  0.4610470000000  0.4916470000000  0.4232590000000 1.0
C      1  0.4010560000000  0.4537480000000  0.4881270000000 1.0
C      1  0.5694050000000  0.4389880000000  0.5488300000000 1.0
C      1  0.5112020000000  0.4787270000000  0.3882380000000 1.0
C      1  0.4445810000000  0.5010140000000  0.5992450000000 1.0
C      1  0.4439540000000  0.4365470000000  0.5107620000000 1.0
C      1  0.4658080000000  0.4273670000000  0.4261750000000 1.0
C      1  0.5162320000000  0.4397150000000  0.4802030000000 1.0
C      1  0.4382600000000  0.4750180000000  0.4249210000000 1.0
C      1  0.4010150000000  0.4527030000000  0.5175430000000 1.0
C      1  0.4360390000000  0.5447140000000  0.4254670000000 1.0
C      1  0.4579290000000  0.4441170000000  0.5512790000000 1.0
C      1  0.5144140000000  0.4133310000000  0.4352800000000 1.0
C      1  0.5344070000000  0.4814620000000  0.3986730000000 1.0
C      1  0.4231260000000  0.5612990000000  0.5251880000000 1.0
C      1  0.4590680000000  0.5213330000000  0.4186360000000 1.0
C      1  0.4372200000000  0.5123160000000  0.4598940000000 1.0
C      1  0.4259830000000  0.5455420000000  0.5495590000000 1.0
C      1  0.5778210000000  0.5101560000000  0.5214140000000 1.0
C      1  0.5993290000000  0.4692010000000  0.4638380000000 1.0
C      1  0.5600700000000  0.5881790000000  0.5122320000000 1.0
C      1  0.5754010000000  0.4215510000000  0.4759330000000 1.0
C      1  0.5016640000000  0.4075910000000  0.5392010000000 1.0
C      1  0.4424040000000  0.5125570000000  0.5072840000000 1.0
C      1  0.4869770000000  0.5395080000000  0.4641260000000 1.0
C      1  0.5214360000000  0.5288000000000  0.4032090000000 1.0
C      1  0.5673370000000  0.5419360000000  0.4227750000000 1.0
C      1  0.5115100000000  0.5690820000000  0.5262260000000 1.0
C      1  0.5124770000000  0.4004700000000  0.4885980000000 1.0
C      1  0.5559550000000  0.5489220000000  0.5823080000000 1.0
C      1  0.4929930000000  0.5032860000000  0.5593120000000 1.0
C      1  0.4410680000000  0.5963450000000  0.4811260000000 1.0
C      1  0.4425540000000  0.4206140000000  0.4882470000000 1.0
C      1  0.5628500000000  0.5003410000000  0.4806860000000 1.0
C      1  0.5820600000000  0.5410780000000  0.4499830000000 1.0
C      1  0.5487480000000  0.5215960000000  0.4097430000000 1.0
C      1  0.4764130000000  0.4162980000000  0.4519780000000 1.0
C      1  0.5305860000000  0.5602280000000  0.4391930000000 1.0
C      1  0.5880690000000  0.5132230000000  0.5666120000000 1.0
C      1  0.5844210000000  0.4639200000000  0.5114330000000 1.0
C      1  0.6001140000000  0.4778240000000  0.4907060000000 1.0
C      1  0.5963970000000  0.5534820000000  0.5315870000000 1.0
C      1  0.5135690000000  0.4875650000000  0.4960630000000 1.0
C      1  0.5575200000000  0.5586530000000  0.5565430000000 1.0
C      1  0.4426120000000  0.5461460000000  0.5754750000000 1.0
C      1  0.5307500000000  0.4549050000000  0.5259690000000 1.0
C      1  0.5129030000000  0.6059350000000  0.4985770000000 1.0
C      1  0.5267380000000  0.4986240000000  0.4525070000000 1.0
C      1  0.4702340000000  0.5747950000000  0.5464040000000 1.0
C      1  0.4139340000000  0.4457140000000  0.5578240000000 1.0
C      1  0.4689760000000  0.4992710000000  0.5445840000000 1.0
C      1  0.4172800000000  0.4353190000000  0.4719850000000 1.0
C      1  0.5734280000000  0.4176930000000  0.4489650000000 1.0
C      1  0.5274910000000  0.5917120000000  0.5186280000000 1.0
C      1  0.4242380000000  0.4915460000000  0.4419620000000 1.0
C      1  0.4559680000000  0.5630580000000  0.4348280000000 1.0
C      1  0.4798750000000  0.4423530000000  0.4090330000000 1.0
C      1  0.4877720000000  0.5268280000000  0.5966300000000 1.0
C      1  0.5274950000000  0.5509840000000  0.5909670000000 1.0
C      1  0.5100760000000  0.4541100000000  0.5701160000000 1.0
C      1  0.4707380000000  0.5484560000000  0.5849280000000 1.0
C      1  0.4863450000000  0.5268500000000  0.4931200000000 1.0
C      1  0.5170010000000  0.5235490000000  0.5891780000000 1.0
C      1  0.4710840000000  0.4820890000000  0.4714600000000 1.0
C      1  0.5288960000000  0.5061870000000  0.5392560000000 1.0
C      1  0.5913200000000  0.5063680000000  0.4873480000000 1.0
C      1  0.3999330000000  0.4806560000000  0.5272760000000 1.0
C      1  0.5367680000000  0.4086280000000  0.5080710000000 1.0
C      1  0.5787230000000  0.5640130000000  0.4690440000000 1.0
C      1  0.4608760000000  0.5657800000000  0.5007400000000 1.0
C      1  0.4583380000000  0.5417910000000  0.4586870000000 1.0
C      1  0.4471840000000  0.5562330000000  0.4796990000000 1.0
C      1  0.4928660000000  0.4674670000000  0.5307330000000 1.0
C      1  0.5571310000000  0.5844170000000  0.4830360000000 1.0
C      1  0.4160640000000  0.5475420000000  0.4471750000000 1.0
C      1  0.4649280000000  0.4581980000000  0.5968070000000 1.0
C      1  0.5339870000000  0.4381810000000  0.5030310000000 1.0
C      1  0.4681240000000  0.5961610000000  0.5253790000000 1.0
C      1  0.5113100000000  0.5700200000000  0.5752920000000 1.0
C      1  0.5038930000000  0.4817310000000  0.5771180000000 1.0
C      1  0.4796280000000  0.5193010000000  0.3995830000000 1.0
C      1  0.5110070000000  0.4824880000000  0.6072430000000 1.0
C      1  0.5749180000000  0.4773890000000  0.4273620000000 1.0
C      1  0.5944350000000  0.5275110000000  0.5411640000000 1.0
C      1  0.4834910000000  0.6030090000000  0.5007290000000 1.0
C      1  0.5540680000000  0.5623220000000  0.5294950000000 1.0
C      1  0.5907390000000  0.5764300000000  0.5172460000000 1.0
C      1  0.5299080000000  0.5486110000000  0.4873320000000 1.0
C      1  0.4688660000000  0.5995180000000  0.4743480000000 1.0
C      1  0.4582830000000  0.5211990000000  0.5311390000000 1.0
C      1  0.4618420000000  0.3954400000000  0.4970750000000 1.0
C      1  0.4254300000000  0.4437780000000  0.4474000000000 1.0
C      1  0.4907130000000  0.4081790000000  0.5068400000000 1.0
C      1  0.5417550000000  0.5437590000000  0.4619640000000 1.0
C      1  0.4419170000000  0.4253500000000  0.5357240000000 1.0
C      1  0.5779250000000  0.4364840000000  0.5209650000000 1.0
C      1  0.5135190000000  0.5232090000000  0.5553330000000 1.0
C      1  0.4703830000000  0.5479000000000  0.5354500000000 1.0
C      1  0.4802760000000  0.4856510000000  0.4443260000000 1.0
C      1  0.5026730000000  0.4506570000000  0.3972910000000 1.0
C      1  0.4704730000000  0.4365690000000  0.5759630000000 1.0
C      1  0.5677910000000  0.4151560000000  0.5035160000000 1.0
C      1  0.4191290000000  0.5623130000000  0.4739630000000 1.0
C      1  0.4523840000000  0.4628030000000  0.5079470000000 1.0
C      1  0.5647030000000  0.5191860000000  0.5832010000000 1.0
C      1  0.4144590000000  0.5192000000000  0.5595060000000 1.0
C      1  0.5937750000000  0.5163780000000  0.4583330000000 1.0
C      1  0.4409570000000  0.4457500000000  0.4244690000000 1.0
C      1  0.5495180000000  0.5172680000000  0.5235340000000 1.0
C      1  0.4183370000000  0.4695970000000  0.5718490000000 1.0
C      1  0.5144340000000  0.5551500000000  0.5506280000000 1.0
C      1  0.4719140000000  0.5053090000000  0.6079130000000 1.0
C      1  0.5924130000000  0.5639930000000  0.4925330000000 1.0
C      1  0.4999580000000  0.5072050000000  0.4945920000000 1.0
C      1  0.5945080000000  0.4902810000000  0.4443230000000 1.0
C      1  0.4829080000000  0.5710820000000  0.4282040000000 1.0
C      1  0.5066870000000  0.5483680000000  0.4233210000000 1.0
C      1  0.5729430000000  0.4637010000000  0.5653290000000 1.0
C      1  0.5453450000000  0.4258440000000  0.5578690000000 1.0
C      1  0.5176490000000  0.4815430000000  0.5243730000000 1.0
C      1  0.5361520000000  0.4482490000000  0.4342710000000 1.0
C      1  0.5040690000000  0.5099820000000  0.3890860000000 1.0
C      1  0.5364090000000  0.4463480000000  0.5775350000000 1.0
C      1  0.4820310000000  0.5725970000000  0.5735840000000 1.0
C      1  0.5413140000000  0.5425770000000  0.5133440000000 1.0
C      1  0.4123140000000  0.4307970000000  0.5345150000000 1.0
C      1  0.5140950000000  0.5825580000000  0.4572870000000 1.0
C      1  0.4107900000000  0.5513480000000  0.5014030000000 1.0
C      1  0.4080870000000  0.5236120000000  0.4617460000000 1.0
C      1  0.4409490000000  0.4732370000000  0.5922620000000 1.0
C      1  0.5067630000000  0.5599750000000  0.4753680000000 1.0
C      1  0.4103670000000  0.4910290000000  0.5525570000000 1.0
C      1  0.5323640000000  0.5979450000000  0.4771150000000 1.0
C      1  0.5035320000000  0.4040910000000  0.4603430000000 1.0
C      1  0.4491880000000  0.4962580000000  0.4835510000000 1.0
C      1  0.3965370000000  0.4984200000000  0.5044950000000 1.0
C      1  0.5297980000000  0.4095490000000  0.5385910000000 1.0
C      1  0.5575460000000  0.4728220000000  0.4816450000000 1.0
C      1  0.5468000000000  0.5152650000000  0.4622080000000 1.0
C      1  0.4294870000000  0.5221150000000  0.5847150000000 1.0
C      1  0.3988770000000  0.4960740000000  0.4551990000000 1.0
C      1  0.4858220000000  0.5531690000000  0.5112490000000 1.0
C      1  0.5210300000000  0.4321770000000  0.4147140000000 1.0
C      1  0.4645400000000  0.4707700000000  0.5342600000000 1.0
C      1  0.4889750000000  0.4189120000000  0.5619890000000 1.0
C      1  0.3948360000000  0.4815890000000  0.4807600000000 1.0
C      1  0.4615220000000  0.4323500000000  0.4705760000000 1.0
C      1  0.4815150000000  0.4771040000000  0.6128770000000 1.0
C      1  0.5204060000000  0.4544140000000  0.4567400000000 1.0
C      1  0.4853360000000  0.5901550000000  0.4487210000000 1.0
C      1  0.5812320000000  0.4842460000000  0.5314000000000 1.0
C      1  0.5897360000000  0.4856640000000  0.5578340000000 1.0
C      1  0.4931660000000  0.4368890000000  0.4953270000000 1.0
C      1  0.5648780000000  0.4509220000000  0.4363260000000 1.0
C      1  0.5548390000000  0.5680180000000  0.4203630000000 1.0
C      1  0.5439270000000  0.5004530000000  0.5889480000000 1.0
C      1  0.4715010000000  0.4554960000000  0.4857720000000 1.0
C      1  0.5074390000000  0.4474500000000  0.5417350000000 1.0
C      1  0.5573500000000  0.4925880000000  0.4091580000000 1.0
C      1  0.5296340000000  0.4762780000000  0.4716110000000 1.0
END
