TITL C-4164241-3639-695 7.95269867951504 125000 -17619.3460910765 0 0 117 (C1) n - 1
REM
REM in /home/nfs/bkarasulu/CARBON/AIRSS/Generating-Clusters/ReaxFF-fromJPCA2015/Units_Real/with-SteepDescent/Only-C1/SD-CG/Try1-3A/FIRE-CG
REM
REM
REM
REM
REM
REM ./C.cell (11c1c37f851c82e70ff6c80c92926a4b)
REM
REM compiler GCC version 9.2.1 20190827 (Red Hat 9.2.1-1)
REM options -cpp -mtune=generic -march=x86-64 -g -O0 -fpre-include=/usr/include/finclude/math-vector-fortran.h
REM seed -39150845 1223149948 -878582672 1492788793 1463210155 449514099 680398461 -866655019 -185881916 -747135712 307630587 678218338 -258512837 1593387556 110153325 -826905504 171824845 205162008 1123885405 939760806 1067507934 -1835677249 229937487 653522006 -151987448 -1975231170 55919854 -901780644 128200900 1195999207 -1019764304 1308470263 1290104710
REM
CELL 1.54180   50.00000   50.00000   50.00000   90.00000   90.00000   90.00000
LATT -1
SFAC C  
C      1  0.5436420000000  0.4307460000000  0.5152740000000 1.0
C      1  0.5279060000000  0.4511500000000  0.4228850000000 1.0
C      1  0.5259440000000  0.5781170000000  0.4498320000000 1.0
C      1  0.5928710000000  0.4800670000000  0.4762410000000 1.0
C      1  0.4977030000000  0.5048620000000  0.5039630000000 1.0
C      1  0.5573220000000  0.4952600000000  0.5030510000000 1.0
C      1  0.5002830000000  0.5384250000000  0.5342050000000 1.0
C      1  0.4336310000000  0.4398200000000  0.5389860000000 1.0
C      1  0.4176560000000  0.5293930000000  0.5125450000000 1.0
C      1  0.5184760000000  0.4556280000000  0.4842630000000 1.0
C      1  0.4676170000000  0.5720710000000  0.5497560000000 1.0
C      1  0.4823750000000  0.5861050000000  0.4824210000000 1.0
C      1  0.5137840000000  0.5242900000000  0.4870620000000 1.0
C      1  0.4764130000000  0.4729960000000  0.4009150000000 1.0
C      1  0.5169500000000  0.4188570000000  0.5196490000000 1.0
C      1  0.4896620000000  0.4589380000000  0.4905230000000 1.0
C      1  0.4315690000000  0.5096300000000  0.5559130000000 1.0
C      1  0.5602960000000  0.4364040000000  0.4910550000000 1.0
C      1  0.5139040000000  0.4798950000000  0.5174630000000 1.0
C      1  0.5380470000000  0.5031520000000  0.4861790000000 1.0
C      1  0.4740320000000  0.5412830000000  0.5086240000000 1.0
C      1  0.5328510000000  0.5930150000000  0.4949050000000 1.0
C      1  0.4703180000000  0.4494440000000  0.4715920000000 1.0
C      1  0.4704930000000  0.5373870000000  0.4798570000000 1.0
C      1  0.4432610000000  0.4192340000000  0.4974630000000 1.0
C      1  0.4591970000000  0.4731170000000  0.4583990000000 1.0
C      1  0.5511280000000  0.4329240000000  0.4633920000000 1.0
C      1  0.5140280000000  0.5312610000000  0.4364030000000 1.0
C      1  0.5492390000000  0.4776380000000  0.4502500000000 1.0
C      1  0.4438960000000  0.5744210000000  0.4716050000000 1.0
C      1  0.4799280000000  0.4518200000000  0.5801200000000 1.0
C      1  0.4330360000000  0.5028230000000  0.4127880000000 1.0
C      1  0.4544900000000  0.5538240000000  0.5685270000000 1.0
C      1  0.4478200000000  0.4921470000000  0.5140590000000 1.0
C      1  0.5878240000000  0.5291170000000  0.4834300000000 1.0
C      1  0.4258000000000  0.4393050000000  0.5101640000000 1.0
C      1  0.5243730000000  0.5225560000000  0.5387860000000 1.0
C      1  0.5605810000000  0.5502100000000  0.4345640000000 1.0
C      1  0.5431810000000  0.5177260000000  0.5784620000000 1.0
C      1  0.4580670000000  0.4228040000000  0.5404050000000 1.0
C      1  0.4907250000000  0.4694490000000  0.5298600000000 1.0
C      1  0.5221580000000  0.5510410000000  0.4932780000000 1.0
C      1  0.5028940000000  0.4373380000000  0.4305230000000 1.0
C      1  0.4950680000000  0.5723040000000  0.5553060000000 1.0
C      1  0.5540790000000  0.4438760000000  0.5393320000000 1.0
C      1  0.5200490000000  0.4296460000000  0.5708220000000 1.0
C      1  0.5880260000000  0.5279800000000  0.5133640000000 1.0
C      1  0.5464560000000  0.5828130000000  0.5178760000000 1.0
C      1  0.4427940000000  0.5291940000000  0.4207980000000 1.0
C      1  0.4430880000000  0.5448200000000  0.4720530000000 1.0
C      1  0.5055460000000  0.4208240000000  0.4543930000000 1.0
C      1  0.5827700000000  0.4567040000000  0.4911980000000 1.0
C      1  0.4972990000000  0.5282630000000  0.5898870000000 1.0
C      1  0.4485220000000  0.4776560000000  0.4100590000000 1.0
C      1  0.5618060000000  0.5029070000000  0.4464300000000 1.0
C      1  0.5235340000000  0.4931450000000  0.5411320000000 1.0
C      1  0.4804060000000  0.4294840000000  0.5574200000000 1.0
C      1  0.4872360000000  0.4112070000000  0.4746460000000 1.0
C      1  0.5254110000000  0.4302040000000  0.4718420000000 1.0
C      1  0.4292690000000  0.5499430000000  0.5291270000000 1.0
C      1  0.4571780000000  0.5829660000000  0.4966010000000 1.0
C      1  0.5779370000000  0.4863240000000  0.5206040000000 1.0
C      1  0.4128560000000  0.5090730000000  0.4638610000000 1.0
C      1  0.4936360000000  0.4107720000000  0.5031340000000 1.0
C      1  0.4797580000000  0.5632860000000  0.4347210000000 1.0
C      1  0.4252070000000  0.5053280000000  0.5280210000000 1.0
C      1  0.5509020000000  0.5571180000000  0.5003240000000 1.0
C      1  0.4460540000000  0.4873870000000  0.5696370000000 1.0
C      1  0.5418670000000  0.5693790000000  0.5434860000000 1.0
C      1  0.4722970000000  0.5139560000000  0.5183580000000 1.0
C      1  0.4536290000000  0.4588400000000  0.4319400000000 1.0
C      1  0.4598210000000  0.4222390000000  0.4731920000000 1.0
C      1  0.5025600000000  0.4404490000000  0.5944870000000 1.0
C      1  0.4912400000000  0.5228940000000  0.4633810000000 1.0
C      1  0.4321680000000  0.5394050000000  0.5559010000000 1.0
C      1  0.4979170000000  0.4935170000000  0.4051840000000 1.0
C      1  0.5851530000000  0.5111630000000  0.5368950000000 1.0
C      1  0.4944510000000  0.5208690000000  0.4173320000000 1.0
C      1  0.5662020000000  0.5702560000000  0.4568800000000 1.0
C      1  0.5458130000000  0.5252680000000  0.4365880000000 1.0
C      1  0.5315540000000  0.4782300000000  0.4713320000000 1.0
C      1  0.4554990000000  0.5641580000000  0.5210580000000 1.0
C      1  0.4786350000000  0.4492160000000  0.4191610000000 1.0
C      1  0.4812080000000  0.4955230000000  0.4589560000000 1.0
C      1  0.4199960000000  0.5299820000000  0.4829100000000 1.0
C      1  0.5439750000000  0.5896790000000  0.4665640000000 1.0
C      1  0.4453520000000  0.4625930000000  0.5538450000000 1.0
C      1  0.5839120000000  0.5059670000000  0.4650710000000 1.0
C      1  0.4723090000000  0.5310310000000  0.5739450000000 1.0
C      1  0.4809470000000  0.5218200000000  0.5470910000000 1.0
C      1  0.5209890000000  0.5651450000000  0.5644830000000 1.0
C      1  0.5744640000000  0.5540170000000  0.4789750000000 1.0
C      1  0.4688720000000  0.5799950000000  0.4563190000000 1.0
C      1  0.5092050000000  0.5616500000000  0.4350010000000 1.0
C      1  0.4658900000000  0.4114750000000  0.5141680000000 1.0
C      1  0.4709630000000  0.5378850000000  0.4225960000000 1.0
C      1  0.5387280000000  0.4478380000000  0.5622760000000 1.0
C      1  0.4104030000000  0.4811160000000  0.4732850000000 1.0
C      1  0.4959780000000  0.4990930000000  0.5897470000000 1.0
C      1  0.4374010000000  0.4795690000000  0.4851810000000 1.0
C      1  0.5090860000000  0.5755400000000  0.4924900000000 1.0
C      1  0.5062660000000  0.4199430000000  0.5475120000000 1.0
C      1  0.4209280000000  0.5157280000000  0.4360400000000 1.0
C      1  0.5353270000000  0.4759470000000  0.5660970000000 1.0
C      1  0.5219070000000  0.4768750000000  0.4091600000000 1.0
C      1  0.5661250000000  0.4841950000000  0.5646660000000 1.0
C      1  0.5646410000000  0.5413490000000  0.5199760000000 1.0
C      1  0.4729680000000  0.4813510000000  0.5802020000000 1.0
C      1  0.5474360000000  0.5408690000000  0.5422380000000 1.0
C      1  0.5233460000000  0.5393150000000  0.5803980000000 1.0
C      1  0.5513250000000  0.4512140000000  0.4409000000000 1.0
C      1  0.4863930000000  0.4870920000000  0.4848590000000 1.0
C      1  0.4624430000000  0.4696720000000  0.5298250000000 1.0
C      1  0.4150290000000  0.4626220000000  0.4957470000000 1.0
C      1  0.5721650000000  0.4665770000000  0.5421290000000 1.0
C      1  0.5251970000000  0.4962080000000  0.5874280000000 1.0
C      1  0.5697590000000  0.5123720000000  0.5625200000000 1.0
END
