TITL C-4164245-3996-397 9.10040381065802 125000 -16984.2293235023 0 0 114 (C1) n - 1
REM
REM in /home/nfs/bkarasulu/CARBON/AIRSS/Generating-Clusters/ReaxFF-fromJPCA2015/Units_Real/with-SteepDescent/Only-C1/SD-CG/Try1-3A/FIRE-CG
REM
REM
REM
REM
REM
REM ./C.cell (11c1c37f851c82e70ff6c80c92926a4b)
REM
REM compiler GCC version 9.2.1 20190827 (Red Hat 9.2.1-1)
REM options -cpp -mtune=generic -march=x86-64 -g -O0 -fpre-include=/usr/include/finclude/math-vector-fortran.h
REM seed -403236170 879429068 236403571 -156552276 -336171857 -1908023125 1811763663 337889722 1768463476 962198283 -46335857 -1869563745 -1382306655 -513303771 -1051674137 1927461101 1526713178 -1184178669 -1185631178 -143751227 2042744010 1884732376 721990061 1919985558 1084086161 -1511860861 966143566 -1053544892 980787296 -1922792595 -1174598614 -1612719443 -1388881110
REM
CELL 1.54180   50.00000   50.00000   50.00000   90.00000   90.00000   90.00000
LATT -1
SFAC C  
C      1  0.4688280000000  0.4214290000000  0.5412320000000 1.0
C      1  0.4357640000000  0.4745240000000  0.4435650000000 1.0
C      1  0.4829510000000  0.5445920000000  0.5729540000000 1.0
C      1  0.5634880000000  0.5491790000000  0.4845080000000 1.0
C      1  0.4843560000000  0.4816690000000  0.4717730000000 1.0
C      1  0.5541010000000  0.4852570000000  0.5603670000000 1.0
C      1  0.5234550000000  0.5554890000000  0.5176270000000 1.0
C      1  0.5839000000000  0.5137440000000  0.5098000000000 1.0
C      1  0.4249680000000  0.5528320000000  0.4964750000000 1.0
C      1  0.4775970000000  0.5208880000000  0.4500850000000 1.0
C      1  0.5123190000000  0.4836680000000  0.4608280000000 1.0
C      1  0.5716230000000  0.4457020000000  0.4564740000000 1.0
C      1  0.5446360000000  0.4418350000000  0.5025150000000 1.0
C      1  0.4444180000000  0.5924760000000  0.5154490000000 1.0
C      1  0.5508800000000  0.4426830000000  0.4437900000000 1.0
C      1  0.5828320000000  0.4672390000000  0.5027300000000 1.0
C      1  0.4321260000000  0.4537470000000  0.4647890000000 1.0
C      1  0.4915490000000  0.5750820000000  0.5337910000000 1.0
C      1  0.5250970000000  0.4362940000000  0.4344320000000 1.0
C      1  0.5071180000000  0.4033890000000  0.4727260000000 1.0
C      1  0.5578880000000  0.5627130000000  0.5381640000000 1.0
C      1  0.5083480000000  0.4171570000000  0.4983040000000 1.0
C      1  0.6059580000000  0.4579590000000  0.4709270000000 1.0
C      1  0.4759870000000  0.4530940000000  0.4862550000000 1.0
C      1  0.4579190000000  0.5305160000000  0.4288970000000 1.0
C      1  0.5034420000000  0.4455910000000  0.4978050000000 1.0
C      1  0.5170190000000  0.4870960000000  0.4313640000000 1.0
C      1  0.5432370000000  0.4279970000000  0.5289450000000 1.0
C      1  0.4838300000000  0.5035920000000  0.4930470000000 1.0
C      1  0.4949780000000  0.5501800000000  0.5189540000000 1.0
C      1  0.5373110000000  0.5821960000000  0.5037000000000 1.0
C      1  0.5433240000000  0.5515310000000  0.4634170000000 1.0
C      1  0.5077800000000  0.5307820000000  0.4058380000000 1.0
C      1  0.5652170000000  0.4331960000000  0.4818460000000 1.0
C      1  0.4619540000000  0.6071700000000  0.5102090000000 1.0
C      1  0.5526590000000  0.4424530000000  0.5527240000000 1.0
C      1  0.5311440000000  0.4513570000000  0.5709730000000 1.0
C      1  0.4345110000000  0.5337310000000  0.5585990000000 1.0
C      1  0.4732220000000  0.5643800000000  0.5536290000000 1.0
C      1  0.6171450000000  0.4786210000000  0.4844650000000 1.0
C      1  0.5477740000000  0.4873130000000  0.5304270000000 1.0
C      1  0.4113770000000  0.5275110000000  0.4991600000000 1.0
C      1  0.4293240000000  0.5104140000000  0.5407930000000 1.0
C      1  0.5728070000000  0.5213170000000  0.4847630000000 1.0
C      1  0.4689590000000  0.5012850000000  0.4158710000000 1.0
C      1  0.4365120000000  0.4478750000000  0.5159600000000 1.0
C      1  0.5122560000000  0.5117560000000  0.5134390000000 1.0
C      1  0.5215240000000  0.5917330000000  0.4812340000000 1.0
C      1  0.5751410000000  0.4636740000000  0.5555790000000 1.0
C      1  0.5455740000000  0.5326820000000  0.4391190000000 1.0
C      1  0.4925620000000  0.5535320000000  0.4851810000000 1.0
C      1  0.5086650000000  0.5292080000000  0.5758680000000 1.0
C      1  0.4994950000000  0.4193530000000  0.5460290000000 1.0
C      1  0.5970450000000  0.4733400000000  0.5405660000000 1.0
C      1  0.5546230000000  0.5007280000000  0.4694460000000 1.0
C      1  0.4792790000000  0.5798340000000  0.4383570000000 1.0
C      1  0.4759870000000  0.5917660000000  0.4639840000000 1.0
C      1  0.5445910000000  0.5041330000000  0.4428390000000 1.0
C      1  0.5154100000000  0.4112040000000  0.4468280000000 1.0
C      1  0.4315550000000  0.5690970000000  0.5218270000000 1.0
C      1  0.5186380000000  0.5650130000000  0.4699150000000 1.0
C      1  0.4673450000000  0.5047460000000  0.5718970000000 1.0
C      1  0.4792210000000  0.4532600000000  0.4271000000000 1.0
C      1  0.6014460000000  0.4892050000000  0.5140370000000 1.0
C      1  0.4950020000000  0.5230440000000  0.5323250000000 1.0
C      1  0.4791580000000  0.5012530000000  0.5437190000000 1.0
C      1  0.5578450000000  0.4657210000000  0.5126910000000 1.0
C      1  0.4587030000000  0.4752370000000  0.4244720000000 1.0
C      1  0.4662040000000  0.4511650000000  0.5490020000000 1.0
C      1  0.4262030000000  0.4626550000000  0.5434450000000 1.0
C      1  0.4907860000000  0.4675720000000  0.5426280000000 1.0
C      1  0.4577770000000  0.4792560000000  0.5859560000000 1.0
C      1  0.4648150000000  0.4974930000000  0.4567900000000 1.0
C      1  0.4944810000000  0.6024880000000  0.4866060000000 1.0
C      1  0.5314760000000  0.4809650000000  0.5775450000000 1.0
C      1  0.5187630000000  0.4119320000000  0.5256360000000 1.0
C      1  0.4410730000000  0.5518080000000  0.4706800000000 1.0
C      1  0.5057920000000  0.4644780000000  0.5187250000000 1.0
C      1  0.4190710000000  0.4555610000000  0.4914670000000 1.0
C      1  0.4844450000000  0.4879240000000  0.5928360000000 1.0
C      1  0.4549270000000  0.5041590000000  0.5296560000000 1.0
C      1  0.5094910000000  0.5002500000000  0.5838550000000 1.0
C      1  0.4569450000000  0.4387120000000  0.4668490000000 1.0
C      1  0.5227120000000  0.4849820000000  0.5121760000000 1.0
C      1  0.4496130000000  0.4178060000000  0.5211670000000 1.0
C      1  0.5074660000000  0.4583840000000  0.4268150000000 1.0
C      1  0.4256740000000  0.5015720000000  0.4904930000000 1.0
C      1  0.5305220000000  0.5325920000000  0.4155460000000 1.0
C      1  0.4102250000000  0.4799740000000  0.5037540000000 1.0
C      1  0.5318610000000  0.4868080000000  0.4799020000000 1.0
C      1  0.5294300000000  0.5659820000000  0.5461480000000 1.0
C      1  0.4380340000000  0.5313100000000  0.4504670000000 1.0
C      1  0.4566850000000  0.4935440000000  0.5044990000000 1.0
C      1  0.5054060000000  0.4439240000000  0.5600960000000 1.0
C      1  0.4710410000000  0.4299190000000  0.4434770000000 1.0
C      1  0.5583260000000  0.5371720000000  0.5517690000000 1.0
C      1  0.5924730000000  0.4412810000000  0.4907290000000 1.0
C      1  0.5614120000000  0.5677070000000  0.5081000000000 1.0
C      1  0.4864200000000  0.5265570000000  0.4760980000000 1.0
C      1  0.4879550000000  0.5985420000000  0.5150150000000 1.0
C      1  0.4447480000000  0.4613230000000  0.5662830000000 1.0
C      1  0.4662880000000  0.5665580000000  0.4755780000000 1.0
C      1  0.4346760000000  0.5018920000000  0.4582970000000 1.0
C      1  0.4135020000000  0.4862170000000  0.5334310000000 1.0
C      1  0.4973940000000  0.5052960000000  0.4140490000000 1.0
C      1  0.4588220000000  0.4646860000000  0.5060650000000 1.0
C      1  0.4449570000000  0.5579690000000  0.5461650000000 1.0
C      1  0.4891370000000  0.4078260000000  0.4505510000000 1.0
C      1  0.4966760000000  0.5533650000000  0.4128290000000 1.0
C      1  0.4713930000000  0.5592080000000  0.4209870000000 1.0
C      1  0.4569460000000  0.5324630000000  0.5769130000000 1.0
C      1  0.5344650000000  0.5292060000000  0.5122270000000 1.0
C      1  0.5585070000000  0.5182110000000  0.5264510000000 1.0
C      1  0.5322910000000  0.5430440000000  0.5648520000000 1.0
END
