TITL C-4164242-3624-1 12.6741379637852 125000 -14416.2244399781 0 0 98 (C1) n - 1
REM
REM in /home/nfs/bkarasulu/CARBON/AIRSS/Generating-Clusters/ReaxFF-fromJPCA2015/Units_Real/with-SteepDescent/Only-C1/SD-CG/Try1-3A/FIRE-CG
REM
REM
REM
REM
REM
REM ./C.cell (11c1c37f851c82e70ff6c80c92926a4b)
REM
REM compiler GCC version 9.2.1 20190827 (Red Hat 9.2.1-1)
REM options -cpp -mtune=generic -march=x86-64 -g -O0 -fpre-include=/usr/include/finclude/math-vector-fortran.h
REM seed -940660976 1161035676 477746484 -1807138624 -1968656575 1892426324 1696420190 1025492059 1234867694 104900353 -727651531 1814523512 317881335 -753937504 1239163365 1403011125 1387936328 -437922993 -1841244448 651173707 582825756 -699980708 -650638494 536021522 1491084345 656099346 773111199 -1024110934 1170347784 -1914590392 1351796780 -1499013545 -1116412058
REM
CELL 1.54180   50.00000   50.00000   50.00000   90.00000   90.00000   90.00000
LATT -1
SFAC C  
C      1  0.4599930000000  0.4692870000000  0.5644610000000 1.0
C      1  0.4420110000000  0.5669610000000  0.5072080000000 1.0
C      1  0.5748180000000  0.5095370000000  0.5646840000000 1.0
C      1  0.4269830000000  0.5436170000000  0.4973380000000 1.0
C      1  0.4710280000000  0.5334310000000  0.5105260000000 1.0
C      1  0.4985750000000  0.5144780000000  0.4392410000000 1.0
C      1  0.4676450000000  0.4960080000000  0.5721990000000 1.0
C      1  0.4364760000000  0.5284080000000  0.4739230000000 1.0
C      1  0.5233870000000  0.5387820000000  0.4168650000000 1.0
C      1  0.4971090000000  0.5221330000000  0.5096270000000 1.0
C      1  0.4696680000000  0.5714380000000  0.4665590000000 1.0
C      1  0.5080050000000  0.4585680000000  0.5101680000000 1.0
C      1  0.4829000000000  0.4729110000000  0.5099070000000 1.0
C      1  0.5422170000000  0.4443750000000  0.5503500000000 1.0
C      1  0.4208790000000  0.4856570000000  0.5344450000000 1.0
C      1  0.5551490000000  0.4733950000000  0.5018700000000 1.0
C      1  0.5560890000000  0.4827690000000  0.4448930000000 1.0
C      1  0.4570340000000  0.4696380000000  0.4968660000000 1.0
C      1  0.4988710000000  0.5554210000000  0.4238900000000 1.0
C      1  0.5797110000000  0.4887170000000  0.4623160000000 1.0
C      1  0.4167820000000  0.5232490000000  0.5155600000000 1.0
C      1  0.5470350000000  0.5049890000000  0.4279920000000 1.0
C      1  0.5056440000000  0.5315960000000  0.4613950000000 1.0
C      1  0.4597020000000  0.5502660000000  0.5593650000000 1.0
C      1  0.4748230000000  0.4128480000000  0.4939210000000 1.0
C      1  0.5415590000000  0.4407300000000  0.4756840000000 1.0
C      1  0.4997910000000  0.5740600000000  0.5394520000000 1.0
C      1  0.4866850000000  0.4503420000000  0.4577990000000 1.0
C      1  0.5032290000000  0.4755950000000  0.5788630000000 1.0
C      1  0.5077200000000  0.4806680000000  0.4010170000000 1.0
C      1  0.4792390000000  0.4473030000000  0.5616500000000 1.0
C      1  0.5224390000000  0.4620020000000  0.5412410000000 1.0
C      1  0.4536660000000  0.4189960000000  0.4595940000000 1.0
C      1  0.4239130000000  0.5134740000000  0.5431770000000 1.0
C      1  0.4946500000000  0.5150300000000  0.4821770000000 1.0
C      1  0.4374420000000  0.4733290000000  0.4582990000000 1.0
C      1  0.5581180000000  0.5409490000000  0.4574640000000 1.0
C      1  0.5638940000000  0.4612370000000  0.5620590000000 1.0
C      1  0.4397650000000  0.4914020000000  0.4848450000000 1.0
C      1  0.5340220000000  0.5413630000000  0.5671200000000 1.0
C      1  0.5532040000000  0.5734800000000  0.5262750000000 1.0
C      1  0.5537910000000  0.4889820000000  0.5652610000000 1.0
C      1  0.5257940000000  0.5847920000000  0.5307520000000 1.0
C      1  0.4421760000000  0.4444410000000  0.5028910000000 1.0
C      1  0.5144950000000  0.5594990000000  0.4646320000000 1.0
C      1  0.4530040000000  0.5260950000000  0.4221170000000 1.0
C      1  0.5494820000000  0.5344770000000  0.4315050000000 1.0
C      1  0.4660140000000  0.5794060000000  0.4944080000000 1.0
C      1  0.4883690000000  0.5830460000000  0.5130150000000 1.0
C      1  0.4676870000000  0.4783410000000  0.4235940000000 1.0
C      1  0.4481360000000  0.4203390000000  0.4870510000000 1.0
C      1  0.4682510000000  0.4290920000000  0.5419140000000 1.0
C      1  0.5080520000000  0.4567270000000  0.5666120000000 1.0
C      1  0.4909150000000  0.4272700000000  0.4752890000000 1.0
C      1  0.5374540000000  0.4606140000000  0.4549160000000 1.0
C      1  0.5274940000000  0.5295130000000  0.5401690000000 1.0
C      1  0.4635000000000  0.4609800000000  0.4439470000000 1.0
C      1  0.5648180000000  0.5376960000000  0.5660900000000 1.0
C      1  0.5278620000000  0.5749120000000  0.4859130000000 1.0
C      1  0.5333950000000  0.4887680000000  0.5438140000000 1.0
C      1  0.5155190000000  0.4534660000000  0.4046460000000 1.0
C      1  0.4726000000000  0.5054050000000  0.4300460000000 1.0
C      1  0.5577090000000  0.4437580000000  0.5004080000000 1.0
C      1  0.4431050000000  0.4405240000000  0.5316830000000 1.0
C      1  0.5264830000000  0.4793220000000  0.4986120000000 1.0
C      1  0.4721590000000  0.5467270000000  0.4235970000000 1.0
C      1  0.5117750000000  0.4910570000000  0.4761880000000 1.0
C      1  0.5498710000000  0.4300320000000  0.5254040000000 1.0
C      1  0.4814230000000  0.4107670000000  0.5229470000000 1.0
C      1  0.4588440000000  0.5551340000000  0.5276750000000 1.0
C      1  0.4156020000000  0.4743070000000  0.4448450000000 1.0
C      1  0.4191890000000  0.4953130000000  0.5056330000000 1.0
C      1  0.5069890000000  0.5360210000000  0.5754830000000 1.0
C      1  0.5892110000000  0.4715040000000  0.5550120000000 1.0
C      1  0.5143540000000  0.5904790000000  0.5051630000000 1.0
C      1  0.5189280000000  0.5086160000000  0.4172420000000 1.0
C      1  0.5742980000000  0.4930200000000  0.4913590000000 1.0
C      1  0.4375550000000  0.5374110000000  0.4445260000000 1.0
C      1  0.5659740000000  0.5452930000000  0.4833030000000 1.0
C      1  0.6016800000000  0.4975950000000  0.5534780000000 1.0
C      1  0.4516470000000  0.5175600000000  0.5563780000000 1.0
C      1  0.4368460000000  0.4644850000000  0.5470300000000 1.0
C      1  0.5652120000000  0.5566710000000  0.5456870000000 1.0
C      1  0.4957960000000  0.5036930000000  0.5773090000000 1.0
C      1  0.5102160000000  0.5056550000000  0.5464620000000 1.0
C      1  0.5087810000000  0.3998740000000  0.5287050000000 1.0
C      1  0.5650000000000  0.5195490000000  0.5018320000000 1.0
C      1  0.4625260000000  0.5122030000000  0.5286080000000 1.0
C      1  0.4886270000000  0.4989990000000  0.5259430000000 1.0
C      1  0.4914090000000  0.5554660000000  0.5609040000000 1.0
C      1  0.5094570000000  0.4692710000000  0.4563060000000 1.0
C      1  0.5467620000000  0.5200250000000  0.5217160000000 1.0
C      1  0.4934740000000  0.5718870000000  0.4491380000000 1.0
C      1  0.4539600000000  0.5482210000000  0.4629850000000 1.0
C      1  0.5529070000000  0.5676470000000  0.4970630000000 1.0
C      1  0.5296180000000  0.4138480000000  0.5124780000000 1.0
C      1  0.4852380000000  0.4640650000000  0.4082770000000 1.0
C      1  0.5166920000000  0.4317020000000  0.4897450000000 1.0
END
