TITL C-4164236-1577-350 1.68648838772948 125000 -29282.2415132154 0 0 198 (C1) n - 1
REM
REM in /home/nfs/bkarasulu/CARBON/AIRSS/Generating-Clusters/ReaxFF-fromJPCA2015/Units_Real/with-SteepDescent/Only-C1/SD-CG/Try1-3A/FIRE-CG
REM
REM
REM
REM
REM
REM ./C.cell (11c1c37f851c82e70ff6c80c92926a4b)
REM
REM compiler GCC version 9.2.1 20190827 (Red Hat 9.2.1-1)
REM options -cpp -mtune=generic -march=x86-64 -g -O0 -fpre-include=/usr/include/finclude/math-vector-fortran.h
REM seed 456444711 169154008 632765675 2121605292 1662553774 -2131735622 -1510418181 -97514162 -801691207 -894495115 -637886515 -1847804133 2114592095 -707685005 1474812904 -279538018 -361230972 754903414 1044664200 1547972188 634885973 -1733734872 -1628679605 -487395045 2007269554 1000862716 1765964895 144919713 -715450796 -328698944 -125166337 -688211780 1034566880
REM
CELL 1.54180   50.00000   50.00000   50.00000   90.00000   90.00000   90.00000
LATT -1
SFAC C  
C      1  0.5113310000000  0.5801890000000  0.5713790000000 1.0
C      1  0.5378490000000  0.4716230000000  0.4452190000000 1.0
C      1  0.5062740000000  0.4263400000000  0.5964730000000 1.0
C      1  0.4705270000000  0.5114010000000  0.5380180000000 1.0
C      1  0.5460930000000  0.5576530000000  0.4487400000000 1.0
C      1  0.5156460000000  0.5658420000000  0.3920740000000 1.0
C      1  0.5237580000000  0.4072830000000  0.5079360000000 1.0
C      1  0.4855290000000  0.5871990000000  0.4795690000000 1.0
C      1  0.6076060000000  0.4726690000000  0.4929140000000 1.0
C      1  0.4907480000000  0.4707580000000  0.4951970000000 1.0
C      1  0.3857900000000  0.4473530000000  0.4960310000000 1.0
C      1  0.5495140000000  0.4568800000000  0.5921730000000 1.0
C      1  0.4287480000000  0.4418570000000  0.4780810000000 1.0
C      1  0.4913410000000  0.4099090000000  0.5507430000000 1.0
C      1  0.5433870000000  0.4199230000000  0.5638920000000 1.0
C      1  0.4785410000000  0.3802380000000  0.4983730000000 1.0
C      1  0.3857780000000  0.4965620000000  0.4716710000000 1.0
C      1  0.5063500000000  0.4799360000000  0.4170750000000 1.0
C      1  0.5160030000000  0.5184520000000  0.5317820000000 1.0
C      1  0.5163310000000  0.5349020000000  0.3995870000000 1.0
C      1  0.5687410000000  0.5614360000000  0.4307980000000 1.0
C      1  0.4860880000000  0.5890740000000  0.4254010000000 1.0
C      1  0.4393150000000  0.4253240000000  0.5515640000000 1.0
C      1  0.4861190000000  0.4612720000000  0.4261540000000 1.0
C      1  0.5059020000000  0.5879000000000  0.5027820000000 1.0
C      1  0.4980620000000  0.5637060000000  0.5185650000000 1.0
C      1  0.4629330000000  0.4134380000000  0.5333750000000 1.0
C      1  0.4689240000000  0.4546690000000  0.4017450000000 1.0
C      1  0.5538580000000  0.4687810000000  0.4690400000000 1.0
C      1  0.5056850000000  0.5083320000000  0.3835080000000 1.0
C      1  0.5985090000000  0.5256400000000  0.5468270000000 1.0
C      1  0.4706270000000  0.5324740000000  0.6001490000000 1.0
C      1  0.6137940000000  0.4916350000000  0.5135830000000 1.0
C      1  0.4130210000000  0.4859470000000  0.4251420000000 1.0
C      1  0.5729570000000  0.4420190000000  0.5134680000000 1.0
C      1  0.5234340000000  0.5933350000000  0.5483140000000 1.0
C      1  0.5221830000000  0.4892660000000  0.6232770000000 1.0
C      1  0.5342350000000  0.4541200000000  0.4872720000000 1.0
C      1  0.4300000000000  0.5256310000000  0.4851290000000 1.0
C      1  0.4284190000000  0.5669650000000  0.4578310000000 1.0
C      1  0.6056000000000  0.5320090000000  0.4774070000000 1.0
C      1  0.5646240000000  0.5060290000000  0.6132850000000 1.0
C      1  0.6079730000000  0.5520950000000  0.5381430000000 1.0
C      1  0.5479530000000  0.4946690000000  0.4299480000000 1.0
C      1  0.4615360000000  0.4128430000000  0.4636660000000 1.0
C      1  0.4583790000000  0.3924660000000  0.5126040000000 1.0
C      1  0.4905810000000  0.4441680000000  0.3817730000000 1.0
C      1  0.4206620000000  0.5844880000000  0.4787190000000 1.0
C      1  0.5640100000000  0.5338640000000  0.6007640000000 1.0
C      1  0.5141200000000  0.4315780000000  0.4201390000000 1.0
C      1  0.4554400000000  0.4301420000000  0.5763470000000 1.0
C      1  0.5698620000000  0.4347620000000  0.5610530000000 1.0
C      1  0.4574360000000  0.3913360000000  0.4839490000000 1.0
C      1  0.5902350000000  0.4715280000000  0.5532350000000 1.0
C      1  0.4626580000000  0.4400900000000  0.5220180000000 1.0
C      1  0.4698480000000  0.4808940000000  0.5946080000000 1.0
C      1  0.5511520000000  0.5040340000000  0.4934130000000 1.0
C      1  0.5959480000000  0.5704630000000  0.5165180000000 1.0
C      1  0.4951260000000  0.5377260000000  0.4716550000000 1.0
C      1  0.5954470000000  0.5569350000000  0.4913400000000 1.0
C      1  0.4729290000000  0.4835240000000  0.4400370000000 1.0
C      1  0.4899850000000  0.4647370000000  0.5508790000000 1.0
C      1  0.5350720000000  0.4269270000000  0.5905190000000 1.0
C      1  0.4746090000000  0.4936500000000  0.4876930000000 1.0
C      1  0.5344980000000  0.5493800000000  0.5006200000000 1.0
C      1  0.5145720000000  0.4747620000000  0.4785710000000 1.0
C      1  0.5654510000000  0.5906460000000  0.4354340000000 1.0
C      1  0.5644460000000  0.4915040000000  0.4078460000000 1.0
C      1  0.5177960000000  0.4405250000000  0.3900480000000 1.0
C      1  0.3897220000000  0.4686560000000  0.4770670000000 1.0
C      1  0.4766770000000  0.5222250000000  0.4864200000000 1.0
C      1  0.4620130000000  0.5869350000000  0.5505500000000 1.0
C      1  0.3865060000000  0.5458260000000  0.4922030000000 1.0
C      1  0.4210210000000  0.5275690000000  0.5848290000000 1.0
C      1  0.5522220000000  0.4053730000000  0.4926700000000 1.0
C      1  0.5121140000000  0.4447770000000  0.5552740000000 1.0
C      1  0.4913990000000  0.5974870000000  0.4531350000000 1.0
C      1  0.5716110000000  0.4084150000000  0.5129780000000 1.0
C      1  0.4727300000000  0.4456170000000  0.4968250000000 1.0
C      1  0.5854210000000  0.5092770000000  0.4599230000000 1.0
C      1  0.4896710000000  0.5106670000000  0.5606280000000 1.0
C      1  0.6169180000000  0.5169290000000  0.4993880000000 1.0
C      1  0.4202400000000  0.5637120000000  0.5210270000000 1.0
C      1  0.5935570000000  0.5319020000000  0.5034560000000 1.0
C      1  0.4367720000000  0.4827140000000  0.5059480000000 1.0
C      1  0.4916330000000  0.5328110000000  0.5776750000000 1.0
C      1  0.4346350000000  0.4989550000000  0.4084680000000 1.0
C      1  0.5522640000000  0.5030890000000  0.5639210000000 1.0
C      1  0.5951210000000  0.4676310000000  0.4403170000000 1.0
C      1  0.4575780000000  0.4860810000000  0.3960450000000 1.0
C      1  0.4598110000000  0.4864410000000  0.4649260000000 1.0
C      1  0.4239460000000  0.4914390000000  0.5532740000000 1.0
C      1  0.4637980000000  0.4609190000000  0.5398940000000 1.0
C      1  0.4118190000000  0.5389030000000  0.5608740000000 1.0
C      1  0.5026770000000  0.4774610000000  0.5229340000000 1.0
C      1  0.3885890000000  0.4809000000000  0.5304460000000 1.0
C      1  0.5180690000000  0.4281020000000  0.4885530000000 1.0
C      1  0.5617550000000  0.4306910000000  0.4418300000000 1.0
C      1  0.5849530000000  0.5097620000000  0.4123650000000 1.0
C      1  0.5476550000000  0.4553260000000  0.5126440000000 1.0
C      1  0.4638090000000  0.5689810000000  0.4896860000000 1.0
C      1  0.5207660000000  0.6024600000000  0.4524030000000 1.0
C      1  0.5338370000000  0.4751740000000  0.5278770000000 1.0
C      1  0.5040680000000  0.3899370000000  0.4916190000000 1.0
C      1  0.4058090000000  0.4680320000000  0.5515980000000 1.0
C      1  0.5355500000000  0.4429940000000  0.4370300000000 1.0
C      1  0.4657770000000  0.5635140000000  0.5945110000000 1.0
C      1  0.5519030000000  0.5842050000000  0.5388700000000 1.0
C      1  0.4559630000000  0.4369980000000  0.4764640000000 1.0
C      1  0.5252250000000  0.5648640000000  0.5920010000000 1.0
C      1  0.5386450000000  0.4616710000000  0.3879540000000 1.0
C      1  0.4971860000000  0.4432380000000  0.6186130000000 1.0
C      1  0.4550670000000  0.6130720000000  0.5114990000000 1.0
C      1  0.5479030000000  0.4818770000000  0.6130040000000 1.0
C      1  0.5672820000000  0.4215630000000  0.4694700000000 1.0
C      1  0.5223390000000  0.5303360000000  0.4790980000000 1.0
C      1  0.3975790000000  0.5024580000000  0.4450190000000 1.0
C      1  0.4380290000000  0.5525370000000  0.5582410000000 1.0
C      1  0.4314040000000  0.5271600000000  0.4153940000000 1.0
C      1  0.5864890000000  0.4460840000000  0.5391990000000 1.0
C      1  0.5724050000000  0.5378170000000  0.4113280000000 1.0
C      1  0.4166450000000  0.4601090000000  0.4365560000000 1.0
C      1  0.5767330000000  0.4507910000000  0.4254710000000 1.0
C      1  0.4803250000000  0.4994180000000  0.3889550000000 1.0
C      1  0.4938430000000  0.5051140000000  0.5208800000000 1.0
C      1  0.5856250000000  0.4378010000000  0.4832730000000 1.0
C      1  0.4291880000000  0.5009160000000  0.5832440000000 1.0
C      1  0.5038680000000  0.4682530000000  0.6297040000000 1.0
C      1  0.4614010000000  0.5762210000000  0.4163910000000 1.0
C      1  0.4511190000000  0.4535260000000  0.5912610000000 1.0
C      1  0.5712900000000  0.5348690000000  0.5359790000000 1.0
C      1  0.3986400000000  0.4340420000000  0.5195290000000 1.0
C      1  0.4715750000000  0.5577340000000  0.5173580000000 1.0
C      1  0.4263730000000  0.4343100000000  0.4270360000000 1.0
C      1  0.4790490000000  0.4652280000000  0.6186650000000 1.0
C      1  0.4350970000000  0.4931090000000  0.4780860000000 1.0
C      1  0.5348360000000  0.5763290000000  0.4913250000000 1.0
C      1  0.5101300000000  0.4053430000000  0.4308030000000 1.0
C      1  0.5186830000000  0.4185590000000  0.5424280000000 1.0
C      1  0.5378560000000  0.4803880000000  0.5553050000000 1.0
C      1  0.4074630000000  0.4282320000000  0.4925260000000 1.0
C      1  0.5040550000000  0.6036390000000  0.5296180000000 1.0
C      1  0.5402660000000  0.5333980000000  0.4568130000000 1.0
C      1  0.4480140000000  0.4155080000000  0.4367200000000 1.0
C      1  0.6025350000000  0.4955920000000  0.5415630000000 1.0
C      1  0.5134470000000  0.5867190000000  0.4117740000000 1.0
C      1  0.4855280000000  0.4186650000000  0.5769220000000 1.0
C      1  0.4551790000000  0.5391800000000  0.4811970000000 1.0
C      1  0.5691140000000  0.5948160000000  0.4641790000000 1.0
C      1  0.4350290000000  0.5774030000000  0.5437340000000 1.0
C      1  0.3821090000000  0.5166770000000  0.4945980000000 1.0
C      1  0.5638700000000  0.4643620000000  0.4021460000000 1.0
C      1  0.5066500000000  0.3969620000000  0.4520210000000 1.0
C      1  0.5503100000000  0.5559160000000  0.5383510000000 1.0
C      1  0.5211050000000  0.5465710000000  0.5259880000000 1.0
C      1  0.5415100000000  0.5042980000000  0.5216260000000 1.0
C      1  0.5620930000000  0.5935200000000  0.4912790000000 1.0
C      1  0.5263350000000  0.5003270000000  0.4809720000000 1.0
C      1  0.5729730000000  0.5892080000000  0.5182410000000 1.0
C      1  0.4499670000000  0.4861840000000  0.5347060000000 1.0
C      1  0.4560660000000  0.5599970000000  0.4408890000000 1.0
C      1  0.5123260000000  0.5170120000000  0.6195740000000 1.0
C      1  0.5440160000000  0.5245250000000  0.5821100000000 1.0
C      1  0.4750570000000  0.6067250000000  0.5338130000000 1.0
C      1  0.5594490000000  0.5116190000000  0.5390190000000 1.0
C      1  0.5174990000000  0.5340390000000  0.5914840000000 1.0
C      1  0.3840030000000  0.5096150000000  0.5239050000000 1.0
C      1  0.4156010000000  0.4409130000000  0.5430220000000 1.0
C      1  0.4169250000000  0.4654810000000  0.4667380000000 1.0
C      1  0.5588840000000  0.5150190000000  0.4470230000000 1.0
C      1  0.4277490000000  0.5349010000000  0.5177030000000 1.0
C      1  0.5714830000000  0.4892100000000  0.4796580000000 1.0
C      1  0.5365330000000  0.5980740000000  0.4287920000000 1.0
C      1  0.6015240000000  0.4582290000000  0.4692910000000 1.0
C      1  0.5966020000000  0.4961830000000  0.4348350000000 1.0
C      1  0.4104590000000  0.5270190000000  0.4371640000000 1.0
C      1  0.4879810000000  0.4855330000000  0.5715910000000 1.0
C      1  0.4528230000000  0.5067680000000  0.5981520000000 1.0
C      1  0.4510950000000  0.4306450000000  0.4126240000000 1.0
C      1  0.5185070000000  0.4830530000000  0.3906120000000 1.0
C      1  0.4994370000000  0.4115640000000  0.4748980000000 1.0
C      1  0.5757570000000  0.4580710000000  0.5770780000000 1.0
C      1  0.4506420000000  0.5488150000000  0.4130270000000 1.0
C      1  0.5519310000000  0.5619320000000  0.6036470000000 1.0
C      1  0.4853000000000  0.5454850000000  0.4461400000000 1.0
C      1  0.4875820000000  0.5268970000000  0.6279510000000 1.0
C      1  0.4155720000000  0.5418110000000  0.4622900000000 1.0
C      1  0.4028410000000  0.5701100000000  0.4984270000000 1.0
C      1  0.4091310000000  0.5181020000000  0.5381710000000 1.0
C      1  0.4103070000000  0.4802600000000  0.5123220000000 1.0
C      1  0.4807220000000  0.5726290000000  0.5718350000000 1.0
C      1  0.4548140000000  0.5385310000000  0.5327860000000 1.0
C      1  0.4980460000000  0.5293380000000  0.4266400000000 1.0
C      1  0.5455670000000  0.5380640000000  0.4042180000000 1.0
C      1  0.4455180000000  0.5962190000000  0.4900850000000 1.0
C      1  0.5319680000000  0.5780290000000  0.4633900000000 1.0
C      1  0.5289280000000  0.4616540000000  0.5707460000000 1.0
C      1  0.4936950000000  0.5014170000000  0.4306740000000 1.0
END
