TITL C-4164242-3624-14 18.2923800491212 125000 -19384.2099724185 0 0 131 (C1) n - 1
REM
REM in /home/nfs/bkarasulu/CARBON/AIRSS/Generating-Clusters/ReaxFF-fromJPCA2015/Units_Real/with-SteepDescent/Only-C1/SD-CG/Try1-3A/FIRE-CG
REM
REM
REM
REM
REM
REM ./C.cell (11c1c37f851c82e70ff6c80c92926a4b)
REM
REM compiler GCC version 9.2.1 20190827 (Red Hat 9.2.1-1)
REM options -cpp -mtune=generic -march=x86-64 -g -O0 -fpre-include=/usr/include/finclude/math-vector-fortran.h
REM seed 954046178 -312456872 -110972567 -2010899804 -976686122 1078066473 -294372359 -1385045752 1367021124 26616212 86409429 257150853 -14968102 -1596712514 -679177047 -1691156587 -1128616998 -1308097693 1716394260 -822353518 -699614313 -2127528367 -199539673 818700593 924987456 362150086 -91002611 -804791209 1121060732 -2121051833 1179980133 -1133575371 -1257741220
REM
CELL 1.54180   50.00000   50.00000   50.00000   90.00000   90.00000   90.00000
LATT -1
SFAC C  
C      1  0.5797720000000  0.4532200000000  0.4879040000000 1.0
C      1  0.5356650000000  0.4149010000000  0.4469800000000 1.0
C      1  0.4042240000000  0.5913160000000  0.4696410000000 1.0
C      1  0.4446120000000  0.5292750000000  0.5667040000000 1.0
C      1  0.5590310000000  0.5481720000000  0.5625300000000 1.0
C      1  0.4354050000000  0.5096360000000  0.5114550000000 1.0
C      1  0.4470690000000  0.4929620000000  0.4316950000000 1.0
C      1  0.4839760000000  0.5269310000000  0.6066340000000 1.0
C      1  0.4443070000000  0.4403790000000  0.5636120000000 1.0
C      1  0.4908600000000  0.5633470000000  0.4807010000000 1.0
C      1  0.4677950000000  0.5957280000000  0.5074560000000 1.0
C      1  0.4671350000000  0.5339720000000  0.4142320000000 1.0
C      1  0.5185800000000  0.4070700000000  0.4697590000000 1.0
C      1  0.5448100000000  0.4566070000000  0.5585300000000 1.0
C      1  0.5105630000000  0.5330320000000  0.4428890000000 1.0
C      1  0.4247580000000  0.4626680000000  0.5253610000000 1.0
C      1  0.4684230000000  0.5751620000000  0.4645800000000 1.0
C      1  0.4476250000000  0.4830030000000  0.5111390000000 1.0
C      1  0.4213120000000  0.5869100000000  0.4865260000000 1.0
C      1  0.4653600000000  0.5378350000000  0.5849790000000 1.0
C      1  0.5070720000000  0.5435590000000  0.6040030000000 1.0
C      1  0.5384630000000  0.5743020000000  0.5312700000000 1.0
C      1  0.5881370000000  0.4787970000000  0.5507970000000 1.0
C      1  0.4378560000000  0.4806800000000  0.4574100000000 1.0
C      1  0.4820400000000  0.4131970000000  0.4529380000000 1.0
C      1  0.5079360000000  0.5861280000000  0.4405020000000 1.0
C      1  0.5995640000000  0.5101630000000  0.4896070000000 1.0
C      1  0.4155310000000  0.5221300000000  0.4666100000000 1.0
C      1  0.5564190000000  0.4113470000000  0.5031230000000 1.0
C      1  0.4657630000000  0.5725190000000  0.5536030000000 1.0
C      1  0.5773670000000  0.5256970000000  0.5556420000000 1.0
C      1  0.5025000000000  0.4278750000000  0.4644710000000 1.0
C      1  0.4447570000000  0.4400640000000  0.5356110000000 1.0
C      1  0.4590150000000  0.4033830000000  0.4710020000000 1.0
C      1  0.4597200000000  0.5342750000000  0.4735700000000 1.0
C      1  0.5071170000000  0.4800900000000  0.5999130000000 1.0
C      1  0.4742470000000  0.4741280000000  0.5576740000000 1.0
C      1  0.5109950000000  0.5608800000000  0.5820060000000 1.0
C      1  0.5734690000000  0.4980030000000  0.5659520000000 1.0
C      1  0.4786410000000  0.5141430000000  0.4668240000000 1.0
C      1  0.4113000000000  0.4638520000000  0.4979770000000 1.0
C      1  0.4642820000000  0.5625350000000  0.4201650000000 1.0
C      1  0.4790110000000  0.4169870000000  0.5418370000000 1.0
C      1  0.4950720000000  0.4931610000000  0.4158660000000 1.0
C      1  0.4922150000000  0.5576710000000  0.5236270000000 1.0
C      1  0.5371800000000  0.5824410000000  0.5031920000000 1.0
C      1  0.4674790000000  0.4810770000000  0.5318170000000 1.0
C      1  0.4495240000000  0.4429800000000  0.5914080000000 1.0
C      1  0.4888650000000  0.5759070000000  0.4236570000000 1.0
C      1  0.4298370000000  0.5382480000000  0.4458350000000 1.0
C      1  0.5209790000000  0.5492790000000  0.5256540000000 1.0
C      1  0.4646570000000  0.3954380000000  0.4976150000000 1.0
C      1  0.5299860000000  0.4991210000000  0.5401340000000 1.0
C      1  0.5204960000000  0.4424300000000  0.5679490000000 1.0
C      1  0.4715040000000  0.4385480000000  0.5261710000000 1.0
C      1  0.4818450000000  0.4316180000000  0.4308080000000 1.0
C      1  0.5519520000000  0.4607370000000  0.4828570000000 1.0
C      1  0.5633760000000  0.4173260000000  0.4557680000000 1.0
C      1  0.5195030000000  0.5248590000000  0.5483520000000 1.0
C      1  0.5714500000000  0.5318090000000  0.4585570000000 1.0
C      1  0.5497450000000  0.5080650000000  0.4687640000000 1.0
C      1  0.5282930000000  0.4912020000000  0.5105340000000 1.0
C      1  0.4234280000000  0.4436220000000  0.4762090000000 1.0
C      1  0.4728110000000  0.3983580000000  0.5217290000000 1.0
C      1  0.4489730000000  0.5493580000000  0.5430750000000 1.0
C      1  0.4289290000000  0.5054320000000  0.5628260000000 1.0
C      1  0.4792980000000  0.4645770000000  0.4845880000000 1.0
C      1  0.4696350000000  0.4780430000000  0.4207250000000 1.0
C      1  0.5244030000000  0.5595940000000  0.4407430000000 1.0
C      1  0.4174570000000  0.5104720000000  0.5347170000000 1.0
C      1  0.5086430000000  0.4201850000000  0.5528800000000 1.0
C      1  0.5388890000000  0.5381490000000  0.5025160000000 1.0
C      1  0.5875280000000  0.5365940000000  0.4844730000000 1.0
C      1  0.4488300000000  0.5612880000000  0.4464190000000 1.0
C      1  0.4361510000000  0.4528170000000  0.4506290000000 1.0
C      1  0.4751790000000  0.4605830000000  0.5828770000000 1.0
C      1  0.4620350000000  0.4522880000000  0.4321040000000 1.0
C      1  0.5583320000000  0.4203660000000  0.5311540000000 1.0
C      1  0.5466320000000  0.4860810000000  0.5601250000000 1.0
C      1  0.4751110000000  0.5369340000000  0.5313880000000 1.0
C      1  0.4393190000000  0.4216550000000  0.4789830000000 1.0
C      1  0.4801850000000  0.5839550000000  0.5308430000000 1.0
C      1  0.5312340000000  0.4130920000000  0.5374030000000 1.0
C      1  0.4890510000000  0.6036590000000  0.4879120000000 1.0
C      1  0.4173520000000  0.4841230000000  0.5460700000000 1.0
C      1  0.4406720000000  0.5826290000000  0.5048480000000 1.0
C      1  0.5634880000000  0.4489860000000  0.5373960000000 1.0
C      1  0.6009150000000  0.4948630000000  0.4641470000000 1.0
C      1  0.5105020000000  0.5834420000000  0.4907470000000 1.0
C      1  0.5736930000000  0.4935760000000  0.4256950000000 1.0
C      1  0.4919870000000  0.5182110000000  0.5449500000000 1.0
C      1  0.5524650000000  0.5502000000000  0.4396280000000 1.0
C      1  0.4861250000000  0.5978110000000  0.4584420000000 1.0
C      1  0.5132130000000  0.4384720000000  0.4392690000000 1.0
C      1  0.5849100000000  0.4676920000000  0.5250140000000 1.0
C      1  0.5473180000000  0.5023660000000  0.4148490000000 1.0
C      1  0.5172280000000  0.4379280000000  0.5082830000000 1.0
C      1  0.5553310000000  0.5606030000000  0.4946850000000 1.0
C      1  0.5036060000000  0.4546400000000  0.5894410000000 1.0
C      1  0.4908300000000  0.4910010000000  0.5412920000000 1.0
C      1  0.3974540000000  0.5190580000000  0.4903210000000 1.0
C      1  0.5845070000000  0.5240830000000  0.5274870000000 1.0
C      1  0.5258780000000  0.4651970000000  0.4392870000000 1.0
C      1  0.5740650000000  0.4240430000000  0.4831860000000 1.0
C      1  0.5107050000000  0.5021110000000  0.4876230000000 1.0
C      1  0.5732930000000  0.4704620000000  0.4431570000000 1.0
C      1  0.4090160000000  0.5408770000000  0.5077760000000 1.0
C      1  0.5301950000000  0.4615020000000  0.5019140000000 1.0
C      1  0.5633310000000  0.5616860000000  0.5375960000000 1.0
C      1  0.4890580000000  0.4900310000000  0.4776080000000 1.0
C      1  0.4286150000000  0.5588800000000  0.5184990000000 1.0
C      1  0.5903820000000  0.4990190000000  0.5150480000000 1.0
C      1  0.4031840000000  0.4904630000000  0.4929120000000 1.0
C      1  0.5878660000000  0.5112510000000  0.4439650000000 1.0
C      1  0.5481760000000  0.4739980000000  0.4576460000000 1.0
C      1  0.5805320000000  0.5509470000000  0.5096470000000 1.0
C      1  0.5218360000000  0.5165880000000  0.4653370000000 1.0
C      1  0.5482670000000  0.5114440000000  0.4981480000000 1.0
C      1  0.5312750000000  0.5427030000000  0.5714440000000 1.0
C      1  0.4802960000000  0.5611290000000  0.5755940000000 1.0
C      1  0.4928350000000  0.5216550000000  0.4211300000000 1.0
C      1  0.4432480000000  0.5215990000000  0.4261020000000 1.0
C      1  0.5923100000000  0.4670660000000  0.4644110000000 1.0
C      1  0.5010620000000  0.5041520000000  0.6054640000000 1.0
C      1  0.4374320000000  0.5219770000000  0.4856270000000 1.0
C      1  0.5276770000000  0.4135080000000  0.4966050000000 1.0
C      1  0.4908550000000  0.4486640000000  0.5062940000000 1.0
C      1  0.4868540000000  0.5358750000000  0.4837560000000 1.0
C      1  0.4522650000000  0.4734500000000  0.4823440000000 1.0
C      1  0.5464860000000  0.5296720000000  0.4219000000000 1.0
C      1  0.5229120000000  0.4844880000000  0.4187210000000 1.0
END
