TITL C-4164247-2821-437 -1.28981682060693 125000 -4483.69957604774 0 0 32 (C1) n - 1
REM
REM in /home/nfs/bkarasulu/CARBON/AIRSS/Generating-Clusters/ReaxFF-fromJPCA2015/Units_Real/with-SteepDescent/Only-C1/SD-CG/Try1-3A/FIRE-CG
REM
REM
REM
REM
REM
REM ./C.cell (11c1c37f851c82e70ff6c80c92926a4b)
REM
REM compiler GCC version 9.2.1 20190827 (Red Hat 9.2.1-1)
REM options -cpp -mtune=generic -march=x86-64 -g -O0 -fpre-include=/usr/include/finclude/math-vector-fortran.h
REM seed -2125080946 20905027 -1266495677 2053879157 -1163691524 2026313585 1071090050 2106723334 901302467 -1820287747 515941832 1359958318 1341204453 1602381129 2109864501 -373038896 -709980560 951541862 1794194764 -1243999625 1686516998 1639017362 -1538204330 2108589878 309300560 1070894456 1136247412 2080752577 1457448122 -636632585 1178092823 816516356 2047313881
REM
CELL 1.54180   50.00000   50.00000   50.00000   90.00000   90.00000   90.00000
LATT -1
SFAC C  
C      1  0.4893060000000  0.5006190000000  0.5324610000000 1.0
C      1  0.4774410000000  0.5596530000000  0.4782760000000 1.0
C      1  0.4946600000000  0.5134490000000  0.5057250000000 1.0
C      1  0.4680370000000  0.5227170000000  0.4952630000000 1.0
C      1  0.5035160000000  0.4832020000000  0.5509630000000 1.0
C      1  0.5526550000000  0.5105680000000  0.5122110000000 1.0
C      1  0.4731050000000  0.5501180000000  0.5042910000000 1.0
C      1  0.5180410000000  0.5510650000000  0.4817280000000 1.0
C      1  0.5380780000000  0.4896950000000  0.4980900000000 1.0
C      1  0.5085070000000  0.4501300000000  0.4546580000000 1.0
C      1  0.5152640000000  0.4455850000000  0.5095810000000 1.0
C      1  0.4524970000000  0.4743080000000  0.4866820000000 1.0
C      1  0.5022940000000  0.4803480000000  0.4601570000000 1.0
C      1  0.5323270000000  0.4802500000000  0.5596930000000 1.0
C      1  0.4992680000000  0.5611600000000  0.4605980000000 1.0
C      1  0.5150210000000  0.4997980000000  0.4805770000000 1.0
C      1  0.4835500000000  0.4616480000000  0.5465330000000 1.0
C      1  0.5501110000000  0.4662590000000  0.5403790000000 1.0
C      1  0.4454710000000  0.5027200000000  0.4990020000000 1.0
C      1  0.5072890000000  0.4453800000000  0.4832280000000 1.0
C      1  0.5228190000000  0.5263040000000  0.4666410000000 1.0
C      1  0.5089280000000  0.5372110000000  0.4431050000000 1.0
C      1  0.5230920000000  0.5499720000000  0.5329540000000 1.0
C      1  0.5376330000000  0.4650510000000  0.5128440000000 1.0
C      1  0.5480190000000  0.5346290000000  0.5295020000000 1.0
C      1  0.4372740000000  0.4977160000000  0.5259950000000 1.0
C      1  0.4937490000000  0.5146480000000  0.4371540000000 1.0
C      1  0.5043810000000  0.5456570000000  0.5088320000000 1.0
C      1  0.4879230000000  0.4475530000000  0.5206910000000 1.0
C      1  0.4647980000000  0.4827350000000  0.5348140000000 1.0
C      1  0.4637920000000  0.4608150000000  0.5094780000000 1.0
C      1  0.4811560000000  0.4890390000000  0.4378940000000 1.0
END
