TITL C-4164235-1454-425 0.490762136476311 125000 -9145.10037549532 0 0 61 (C1) n - 1
REM
REM in /home/nfs/bkarasulu/CARBON/AIRSS/Generating-Clusters/ReaxFF-fromJPCA2015/Units_Real/with-SteepDescent/Only-C1/SD-CG/Try1-3A/FIRE-CG
REM
REM
REM
REM
REM
REM ./C.cell (11c1c37f851c82e70ff6c80c92926a4b)
REM
REM compiler GCC version 9.2.1 20190827 (Red Hat 9.2.1-1)
REM options -cpp -mtune=generic -march=x86-64 -g -O0 -fpre-include=/usr/include/finclude/math-vector-fortran.h
REM seed 530472877 -1827143930 -1106427420 -1688745822 -313676324 -1308438004 1045027929 -771563877 1741720233 1806197992 1159740992 -1979497753 1679710182 -1958330331 218100275 202811257 1908714129 -1109471393 1864840638 1258263447 2086928257 -1993976159 1420164907 -2068773573 1338100620 -851549450 -1361232569 1592740938 -1603088476 1391261317 -259034501 2072560230 -517921714
REM
CELL 1.54180   50.00000   50.00000   50.00000   90.00000   90.00000   90.00000
LATT -1
SFAC C  
C      1  0.5060040000000  0.5654840000000  0.4535710000000 1.0
C      1  0.5448580000000  0.5534340000000  0.5121680000000 1.0
C      1  0.5376600000000  0.4882710000000  0.5536790000000 1.0
C      1  0.4594190000000  0.5607720000000  0.5217890000000 1.0
C      1  0.4628750000000  0.4608590000000  0.5455440000000 1.0
C      1  0.5102860000000  0.5454320000000  0.5429690000000 1.0
C      1  0.4555170000000  0.5060760000000  0.4391020000000 1.0
C      1  0.5501970000000  0.5095160000000  0.5369050000000 1.0
C      1  0.4792610000000  0.4557340000000  0.4446170000000 1.0
C      1  0.5238750000000  0.5419550000000  0.4541400000000 1.0
C      1  0.5472140000000  0.4637340000000  0.4740730000000 1.0
C      1  0.5086230000000  0.4443660000000  0.4435230000000 1.0
C      1  0.4458760000000  0.4719620000000  0.4981560000000 1.0
C      1  0.5326160000000  0.4372720000000  0.5112730000000 1.0
C      1  0.5529560000000  0.4857900000000  0.4550220000000 1.0
C      1  0.4840470000000  0.4429010000000  0.5362770000000 1.0
C      1  0.5247760000000  0.5742480000000  0.5052590000000 1.0
C      1  0.5028390000000  0.5246980000000  0.4681430000000 1.0
C      1  0.5111880000000  0.4325060000000  0.4947440000000 1.0
C      1  0.4309550000000  0.5008790000000  0.4860040000000 1.0
C      1  0.5011390000000  0.4998880000000  0.4486980000000 1.0
C      1  0.5189860000000  0.4343060000000  0.4223140000000 1.0
C      1  0.5063390000000  0.5711320000000  0.5291500000000 1.0
C      1  0.4861230000000  0.5316150000000  0.5528420000000 1.0
C      1  0.5519470000000  0.5380520000000  0.4627310000000 1.0
C      1  0.4387290000000  0.5084760000000  0.4604800000000 1.0
C      1  0.4406710000000  0.5204500000000  0.5325760000000 1.0
C      1  0.5081840000000  0.4883650000000  0.5522360000000 1.0
C      1  0.4753710000000  0.5561750000000  0.4493230000000 1.0
C      1  0.4860980000000  0.5043500000000  0.5629290000000 1.0
C      1  0.4757700000000  0.5447800000000  0.4758300000000 1.0
C      1  0.5365220000000  0.5356660000000  0.5338870000000 1.0
C      1  0.4547990000000  0.5457080000000  0.4961940000000 1.0
C      1  0.4626430000000  0.4867650000000  0.5606080000000 1.0
C      1  0.5097780000000  0.5113380000000  0.4942580000000 1.0
C      1  0.4677270000000  0.4442700000000  0.4659800000000 1.0
C      1  0.4405210000000  0.4951250000000  0.5442270000000 1.0
C      1  0.5110160000000  0.4430650000000  0.5531480000000 1.0
C      1  0.4419530000000  0.4715200000000  0.5281110000000 1.0
C      1  0.5261180000000  0.4890460000000  0.4493970000000 1.0
C      1  0.4620120000000  0.5336800000000  0.4383080000000 1.0
C      1  0.4791270000000  0.5831180000000  0.5260080000000 1.0
C      1  0.4846380000000  0.5002130000000  0.5062750000000 1.0
C      1  0.4599720000000  0.5398990000000  0.5423190000000 1.0
C      1  0.4690700000000  0.4862250000000  0.4861530000000 1.0
C      1  0.5246460000000  0.4460700000000  0.4714490000000 1.0
C      1  0.5517410000000  0.4513510000000  0.5250460000000 1.0
C      1  0.5528320000000  0.4750050000000  0.5038290000000 1.0
C      1  0.5242910000000  0.4883400000000  0.5048360000000 1.0
C      1  0.5387160000000  0.4594360000000  0.5496920000000 1.0
C      1  0.5654510000000  0.5119730000000  0.4641620000000 1.0
C      1  0.5741830000000  0.5172600000000  0.4921550000000 1.0
C      1  0.4371910000000  0.5234580000000  0.5038440000000 1.0
C      1  0.4756360000000  0.4845940000000  0.4535940000000 1.0
C      1  0.4836630000000  0.4369250000000  0.5081140000000 1.0
C      1  0.5003270000000  0.4325700000000  0.5732100000000 1.0
C      1  0.5026530000000  0.4826840000000  0.5233260000000 1.0
C      1  0.5658610000000  0.5002780000000  0.5143090000000 1.0
C      1  0.4598750000000  0.4431550000000  0.4920910000000 1.0
C      1  0.5145410000000  0.5734150000000  0.4790440000000 1.0
C      1  0.5620990000000  0.5443690000000  0.4903610000000 1.0
END
