TITL C-4164242-3624-483 14.7361682488903 125000 -23271.9360245884 0 0 155 (C1) n - 1
REM
REM in /home/nfs/bkarasulu/CARBON/AIRSS/Generating-Clusters/ReaxFF-fromJPCA2015/Units_Real/with-SteepDescent/Only-C1/SD-CG/Try1-3A/FIRE-CG
REM
REM
REM
REM
REM
REM ./C.cell (11c1c37f851c82e70ff6c80c92926a4b)
REM
REM compiler GCC version 9.2.1 20190827 (Red Hat 9.2.1-1)
REM options -cpp -mtune=generic -march=x86-64 -g -O0 -fpre-include=/usr/include/finclude/math-vector-fortran.h
REM seed -735521233 1298071730 478655885 454652254 2046411343 -1678789871 1268639571 -869072232 -370854317 -734633988 -1756095825 -320564647 -1386315911 -586886767 -712565461 -1058629900 862348144 1025925425 658759400 -679934637 185583708 -1273949886 -1129092878 -311324468 1193028269 -1887825303 1362370020 -1718182312 136228428 919994701 978811903 -56409942 699068498
REM
CELL 1.54180   50.00000   50.00000   50.00000   90.00000   90.00000   90.00000
LATT -1
SFAC C  
C      1  0.5482250000000  0.4509580000000  0.5179760000000 1.0
C      1  0.4711580000000  0.5497130000000  0.4078470000000 1.0
C      1  0.5528540000000  0.4818170000000  0.5831710000000 1.0
C      1  0.5884560000000  0.4409430000000  0.5489500000000 1.0
C      1  0.4708820000000  0.6058280000000  0.4499470000000 1.0
C      1  0.5937410000000  0.5418080000000  0.4608550000000 1.0
C      1  0.5606790000000  0.5153880000000  0.4043230000000 1.0
C      1  0.4590720000000  0.4922740000000  0.5799540000000 1.0
C      1  0.5057220000000  0.4178250000000  0.5784170000000 1.0
C      1  0.4894640000000  0.4509950000000  0.5958350000000 1.0
C      1  0.5351760000000  0.5922490000000  0.5385290000000 1.0
C      1  0.4476270000000  0.4616370000000  0.4647410000000 1.0
C      1  0.4851480000000  0.4093240000000  0.4399080000000 1.0
C      1  0.5428100000000  0.4243560000000  0.4512770000000 1.0
C      1  0.5150720000000  0.5357940000000  0.6057380000000 1.0
C      1  0.5698360000000  0.5284060000000  0.4286210000000 1.0
C      1  0.5269540000000  0.4056630000000  0.4633610000000 1.0
C      1  0.3917870000000  0.5078260000000  0.5177950000000 1.0
C      1  0.4751540000000  0.3964630000000  0.4646850000000 1.0
C      1  0.5011080000000  0.4959480000000  0.5057300000000 1.0
C      1  0.5016440000000  0.4481550000000  0.5093550000000 1.0
C      1  0.5640960000000  0.5328350000000  0.4987940000000 1.0
C      1  0.4266880000000  0.4193940000000  0.4812440000000 1.0
C      1  0.4997130000000  0.5770500000000  0.5543740000000 1.0
C      1  0.4423960000000  0.5001610000000  0.5295620000000 1.0
C      1  0.4135210000000  0.4970350000000  0.4505930000000 1.0
C      1  0.4812190000000  0.5942470000000  0.5040160000000 1.0
C      1  0.4265650000000  0.5415810000000  0.5043910000000 1.0
C      1  0.5401430000000  0.5338550000000  0.5912500000000 1.0
C      1  0.5468960000000  0.4803750000000  0.4650750000000 1.0
C      1  0.5742360000000  0.4688990000000  0.5638560000000 1.0
C      1  0.5174620000000  0.4538680000000  0.4168360000000 1.0
C      1  0.4981820000000  0.6014820000000  0.4550780000000 1.0
C      1  0.5513620000000  0.5481790000000  0.5501900000000 1.0
C      1  0.4207630000000  0.4502620000000  0.5531770000000 1.0
C      1  0.4939570000000  0.4050150000000  0.5411390000000 1.0
C      1  0.5471160000000  0.4922050000000  0.5304100000000 1.0
C      1  0.3983060000000  0.5036660000000  0.5425810000000 1.0
C      1  0.5407800000000  0.5399560000000  0.4333110000000 1.0
C      1  0.4477110000000  0.5194970000000  0.5491380000000 1.0
C      1  0.5870420000000  0.5151170000000  0.4482600000000 1.0
C      1  0.4673040000000  0.4542590000000  0.4403700000000 1.0
C      1  0.5447460000000  0.4899110000000  0.4029250000000 1.0
C      1  0.5580570000000  0.4248720000000  0.5068490000000 1.0
C      1  0.5320210000000  0.4925820000000  0.5047790000000 1.0
C      1  0.5243210000000  0.5253690000000  0.4572860000000 1.0
C      1  0.4773670000000  0.3965390000000  0.5165630000000 1.0
C      1  0.4293400000000  0.5476110000000  0.5737030000000 1.0
C      1  0.4461800000000  0.4021260000000  0.4678400000000 1.0
C      1  0.4999940000000  0.4769300000000  0.6018010000000 1.0
C      1  0.4945560000000  0.4954850000000  0.4018920000000 1.0
C      1  0.4910230000000  0.3932850000000  0.4907220000000 1.0
C      1  0.4276360000000  0.5471480000000  0.4367350000000 1.0
C      1  0.4689840000000  0.4450200000000  0.5703720000000 1.0
C      1  0.5862080000000  0.4870530000000  0.4579880000000 1.0
C      1  0.4154210000000  0.4410970000000  0.5275810000000 1.0
C      1  0.4745600000000  0.4523570000000  0.5162040000000 1.0
C      1  0.4334520000000  0.5140920000000  0.5754740000000 1.0
C      1  0.5500200000000  0.5804780000000  0.4639810000000 1.0
C      1  0.4472790000000  0.4653230000000  0.5805170000000 1.0
C      1  0.4967800000000  0.5807710000000  0.5243390000000 1.0
C      1  0.4104600000000  0.5286910000000  0.4497220000000 1.0
C      1  0.5080050000000  0.5621540000000  0.5040910000000 1.0
C      1  0.5036230000000  0.6006420000000  0.4852230000000 1.0
C      1  0.5782340000000  0.5364320000000  0.5479360000000 1.0
C      1  0.5196930000000  0.4487770000000  0.5328220000000 1.0
C      1  0.5360360000000  0.5959100000000  0.5126950000000 1.0
C      1  0.5373470000000  0.5347660000000  0.4873740000000 1.0
C      1  0.6070350000000  0.4820930000000  0.5323050000000 1.0
C      1  0.5765700000000  0.5690790000000  0.4661620000000 1.0
C      1  0.5630260000000  0.4702160000000  0.5353880000000 1.0
C      1  0.4355860000000  0.4837870000000  0.4067440000000 1.0
C      1  0.5176180000000  0.5372410000000  0.5158620000000 1.0
C      1  0.5635750000000  0.4654100000000  0.4455990000000 1.0
C      1  0.4192540000000  0.4687350000000  0.5731230000000 1.0
C      1  0.4101120000000  0.5592300000000  0.4873910000000 1.0
C      1  0.4580300000000  0.5094550000000  0.4688880000000 1.0
C      1  0.3899920000000  0.5100970000000  0.4895760000000 1.0
C      1  0.4859620000000  0.5618730000000  0.4308620000000 1.0
C      1  0.3976710000000  0.5354420000000  0.4744280000000 1.0
C      1  0.4274860000000  0.4168000000000  0.5118020000000 1.0
C      1  0.5576680000000  0.5099010000000  0.5846630000000 1.0
C      1  0.6091010000000  0.4957550000000  0.5066830000000 1.0
C      1  0.5132420000000  0.4552660000000  0.4809540000000 1.0
C      1  0.4805970000000  0.4981340000000  0.5990200000000 1.0
C      1  0.5288900000000  0.5020750000000  0.5502680000000 1.0
C      1  0.4619380000000  0.4694110000000  0.4947250000000 1.0
C      1  0.4714760000000  0.5383010000000  0.5497580000000 1.0
C      1  0.4838850000000  0.5326570000000  0.5240700000000 1.0
C      1  0.5286360000000  0.5302710000000  0.5422510000000 1.0
C      1  0.5856130000000  0.5406920000000  0.5191910000000 1.0
C      1  0.5427510000000  0.4671780000000  0.4207480000000 1.0
C      1  0.4855230000000  0.5034310000000  0.5281210000000 1.0
C      1  0.5169640000000  0.4329510000000  0.4593300000000 1.0
C      1  0.5193870000000  0.4184060000000  0.5342550000000 1.0
C      1  0.4793620000000  0.4998620000000  0.4264620000000 1.0
C      1  0.4840790000000  0.5565930000000  0.5682510000000 1.0
C      1  0.5195680000000  0.3956580000000  0.4896170000000 1.0
C      1  0.6105780000000  0.5248030000000  0.5085140000000 1.0
C      1  0.5023150000000  0.4789110000000  0.4670420000000 1.0
C      1  0.4618810000000  0.5825820000000  0.4394820000000 1.0
C      1  0.5437620000000  0.5585410000000  0.5764030000000 1.0
C      1  0.5352820000000  0.4076840000000  0.5118660000000 1.0
C      1  0.5490080000000  0.5119470000000  0.4926480000000 1.0
C      1  0.5327520000000  0.5963480000000  0.4859100000000 1.0
C      1  0.5938740000000  0.4529450000000  0.4956950000000 1.0
C      1  0.4232610000000  0.4464410000000  0.4705160000000 1.0
C      1  0.5354270000000  0.5310360000000  0.4043450000000 1.0
C      1  0.4896520000000  0.5240320000000  0.6077290000000 1.0
C      1  0.4101120000000  0.4833830000000  0.4199880000000 1.0
C      1  0.4771990000000  0.5172730000000  0.4485830000000 1.0
C      1  0.4369170000000  0.5713210000000  0.4506300000000 1.0
C      1  0.3968110000000  0.4873590000000  0.4732970000000 1.0
C      1  0.5756600000000  0.4334380000000  0.4846750000000 1.0
C      1  0.5813410000000  0.5143770000000  0.5660580000000 1.0
C      1  0.4926510000000  0.4379890000000  0.4355350000000 1.0
C      1  0.5158730000000  0.4394620000000  0.5928800000000 1.0
C      1  0.5945530000000  0.4900690000000  0.5573650000000 1.0
C      1  0.4346010000000  0.5652350000000  0.5216550000000 1.0
C      1  0.5654530000000  0.4385100000000  0.4578380000000 1.0
C      1  0.5274440000000  0.5807180000000  0.5638150000000 1.0
C      1  0.5009610000000  0.4655300000000  0.3961300000000 1.0
C      1  0.4046160000000  0.4625690000000  0.4839060000000 1.0
C      1  0.4129510000000  0.4645700000000  0.5103730000000 1.0
C      1  0.4321610000000  0.5593140000000  0.5488870000000 1.0
C      1  0.4729910000000  0.4597910000000  0.5446440000000 1.0
C      1  0.5356700000000  0.5700970000000  0.4412600000000 1.0
C      1  0.4963040000000  0.5377030000000  0.4555320000000 1.0
C      1  0.6065440000000  0.5304780000000  0.4821030000000 1.0
C      1  0.4929160000000  0.5536080000000  0.4807020000000 1.0
C      1  0.4816160000000  0.4158620000000  0.5652490000000 1.0
C      1  0.5135730000000  0.4766640000000  0.5546020000000 1.0
C      1  0.5206150000000  0.5069860000000  0.3960140000000 1.0
C      1  0.4691100000000  0.5488830000000  0.4970990000000 1.0
C      1  0.6005090000000  0.4533140000000  0.5259290000000 1.0
C      1  0.5979650000000  0.4790010000000  0.4833680000000 1.0
C      1  0.4101160000000  0.4980930000000  0.5671670000000 1.0
C      1  0.4540780000000  0.5795330000000  0.5007850000000 1.0
C      1  0.5231140000000  0.4955870000000  0.4570360000000 1.0
C      1  0.4628780000000  0.4753510000000  0.4216320000000 1.0
C      1  0.4435010000000  0.5387710000000  0.4114590000000 1.0
C      1  0.4832040000000  0.4889550000000  0.4848600000000 1.0
C      1  0.4373670000000  0.5116370000000  0.4068820000000 1.0
C      1  0.4517300000000  0.4068930000000  0.5148420000000 1.0
C      1  0.5386250000000  0.4672590000000  0.4900170000000 1.0
C      1  0.5912830000000  0.5741840000000  0.5156990000000 1.0
C      1  0.4373140000000  0.4816740000000  0.5108460000000 1.0
C      1  0.4915100000000  0.5486230000000  0.5955200000000 1.0
C      1  0.5813760000000  0.5776490000000  0.4906500000000 1.0
C      1  0.4833730000000  0.4859910000000  0.5527770000000 1.0
C      1  0.4326410000000  0.5765960000000  0.4790970000000 1.0
C      1  0.5252350000000  0.4704570000000  0.5827560000000 1.0
C      1  0.4482610000000  0.5307160000000  0.4883490000000 1.0
C      1  0.5095860000000  0.5803030000000  0.4370250000000 1.0
C      1  0.4399380000000  0.4892230000000  0.4597620000000 1.0
END
