TITL C-4164246-3563-639 19.1606769780637 125000 -27386.4617755873 0 0 181 (C1) n - 1
REM
REM in /home/nfs/bkarasulu/CARBON/AIRSS/Generating-Clusters/ReaxFF-fromJPCA2015/Units_Real/with-SteepDescent/Only-C1/SD-CG/Try1-3A/FIRE-CG
REM
REM
REM
REM
REM
REM ./C.cell (11c1c37f851c82e70ff6c80c92926a4b)
REM
REM compiler GCC version 9.2.1 20190827 (Red Hat 9.2.1-1)
REM options -cpp -mtune=generic -march=x86-64 -g -O0 -fpre-include=/usr/include/finclude/math-vector-fortran.h
REM seed -295016650 69483276 -851813423 1042071031 -1007982130 -1766658953 -1293179497 -1016162645 -1657192117 1361872189 1039200799 -743925399 -822802676 -1789073853 782774721 1346261696 813056559 917021307 -953943370 1672733906 -1808854766 587564384 28708293 -1276524680 -219681941 -1973862730 -905181413 -1699851696 960360232 -62996877 1195737615 -236456234 2046138721
REM
CELL 1.54180   50.00000   50.00000   50.00000   90.00000   90.00000   90.00000
LATT -1
SFAC C  
C      1  0.4838100000000  0.5748130000000  0.4176370000000 1.0
C      1  0.4425180000000  0.5436050000000  0.5118000000000 1.0
C      1  0.5744290000000  0.4203370000000  0.4769860000000 1.0
C      1  0.5420070000000  0.5178670000000  0.4796430000000 1.0
C      1  0.5382170000000  0.4843780000000  0.4468070000000 1.0
C      1  0.4650400000000  0.5491660000000  0.5830270000000 1.0
C      1  0.5058910000000  0.5790780000000  0.4977170000000 1.0
C      1  0.5308420000000  0.4234050000000  0.4719290000000 1.0
C      1  0.5597060000000  0.5036380000000  0.5897180000000 1.0
C      1  0.5520550000000  0.5756610000000  0.5519380000000 1.0
C      1  0.4646670000000  0.5600280000000  0.4360530000000 1.0
C      1  0.5305720000000  0.5268280000000  0.4084310000000 1.0
C      1  0.4991150000000  0.4869000000000  0.6148440000000 1.0
C      1  0.4406760000000  0.4508830000000  0.4430270000000 1.0
C      1  0.5312260000000  0.5402420000000  0.4377880000000 1.0
C      1  0.4187270000000  0.4358890000000  0.4946590000000 1.0
C      1  0.4186740000000  0.5453130000000  0.4512590000000 1.0
C      1  0.5863230000000  0.4343770000000  0.4981150000000 1.0
C      1  0.4195690000000  0.4986840000000  0.5005940000000 1.0
C      1  0.4403130000000  0.4168260000000  0.4911240000000 1.0
C      1  0.4585450000000  0.5925980000000  0.5420110000000 1.0
C      1  0.5954100000000  0.5234700000000  0.5359260000000 1.0
C      1  0.4829860000000  0.4986000000000  0.4435950000000 1.0
C      1  0.5142060000000  0.4136080000000  0.5703820000000 1.0
C      1  0.4914910000000  0.4140570000000  0.4212970000000 1.0
C      1  0.5481430000000  0.4787390000000  0.4733260000000 1.0
C      1  0.5076810000000  0.5866850000000  0.4322180000000 1.0
C      1  0.5385910000000  0.4735980000000  0.5164170000000 1.0
C      1  0.4207240000000  0.5637080000000  0.5219070000000 1.0
C      1  0.4655060000000  0.4623570000000  0.5405970000000 1.0
C      1  0.5259930000000  0.5676720000000  0.3947650000000 1.0
C      1  0.4257600000000  0.4405590000000  0.5426760000000 1.0
C      1  0.5631450000000  0.4856160000000  0.5660420000000 1.0
C      1  0.5647360000000  0.5418180000000  0.5062980000000 1.0
C      1  0.5157910000000  0.4913350000000  0.5527060000000 1.0
C      1  0.5608740000000  0.5324720000000  0.5872030000000 1.0
C      1  0.4799610000000  0.4478790000000  0.5228840000000 1.0
C      1  0.5736380000000  0.4563030000000  0.5697730000000 1.0
C      1  0.4850870000000  0.5499480000000  0.4573050000000 1.0
C      1  0.5374050000000  0.5031290000000  0.4022760000000 1.0
C      1  0.5717110000000  0.4459420000000  0.4261000000000 1.0
C      1  0.4687910000000  0.3840020000000  0.4643070000000 1.0
C      1  0.5762120000000  0.5440770000000  0.5661790000000 1.0
C      1  0.4528800000000  0.4079740000000  0.4610490000000 1.0
C      1  0.4282440000000  0.4911920000000  0.5709650000000 1.0
C      1  0.4221620000000  0.5217360000000  0.4329100000000 1.0
C      1  0.4025710000000  0.5475970000000  0.4771790000000 1.0
C      1  0.4444400000000  0.4528540000000  0.5855930000000 1.0
C      1  0.4831100000000  0.4711600000000  0.5963200000000 1.0
C      1  0.5321590000000  0.4494660000000  0.6014840000000 1.0
C      1  0.4886330000000  0.5620160000000  0.5702980000000 1.0
C      1  0.4923970000000  0.5151600000000  0.6118870000000 1.0
C      1  0.4577730000000  0.5028330000000  0.4541790000000 1.0
C      1  0.5970060000000  0.4769630000000  0.4521830000000 1.0
C      1  0.5016700000000  0.5056300000000  0.4636650000000 1.0
C      1  0.5734340000000  0.4327580000000  0.4506360000000 1.0
C      1  0.3875650000000  0.5266450000000  0.4914590000000 1.0
C      1  0.5470980000000  0.6000900000000  0.5133810000000 1.0
C      1  0.4304850000000  0.4965930000000  0.4453580000000 1.0
C      1  0.5006840000000  0.6021230000000  0.4808660000000 1.0
C      1  0.5279270000000  0.5126310000000  0.4559400000000 1.0
C      1  0.4691970000000  0.4685890000000  0.4081010000000 1.0
C      1  0.3979720000000  0.4472870000000  0.4777160000000 1.0
C      1  0.4098390000000  0.5099350000000  0.5606280000000 1.0
C      1  0.5250870000000  0.4722890000000  0.4908170000000 1.0
C      1  0.5224090000000  0.4545840000000  0.3950170000000 1.0
C      1  0.4388530000000  0.5557480000000  0.5681800000000 1.0
C      1  0.4847370000000  0.4417880000000  0.5970480000000 1.0
C      1  0.4726260000000  0.4888010000000  0.4978610000000 1.0
C      1  0.3873010000000  0.5061150000000  0.5405060000000 1.0
C      1  0.4804220000000  0.5218160000000  0.5452250000000 1.0
C      1  0.4651740000000  0.4201150000000  0.4312460000000 1.0
C      1  0.5265340000000  0.5676010000000  0.4819470000000 1.0
C      1  0.5463260000000  0.4430610000000  0.4081040000000 1.0
C      1  0.4564590000000  0.6012940000000  0.4885030000000 1.0
C      1  0.5258130000000  0.4758130000000  0.6126360000000 1.0
C      1  0.4377160000000  0.5661590000000  0.4525560000000 1.0
C      1  0.6061670000000  0.4732520000000  0.4763500000000 1.0
C      1  0.4657260000000  0.4535470000000  0.4608160000000 1.0
C      1  0.4530850000000  0.4084430000000  0.5158720000000 1.0
C      1  0.4650370000000  0.4694960000000  0.4789090000000 1.0
C      1  0.4190960000000  0.4516490000000  0.5181760000000 1.0
C      1  0.5319340000000  0.4068380000000  0.5115530000000 1.0
C      1  0.4425020000000  0.4167560000000  0.5415260000000 1.0
C      1  0.4830490000000  0.5782330000000  0.5470400000000 1.0
C      1  0.5784190000000  0.5663870000000  0.5082280000000 1.0
C      1  0.3975780000000  0.4622520000000  0.4539350000000 1.0
C      1  0.5028120000000  0.4044520000000  0.5061660000000 1.0
C      1  0.5109070000000  0.4440480000000  0.4816460000000 1.0
C      1  0.4957430000000  0.6116800000000  0.5213270000000 1.0
C      1  0.4710560000000  0.5044820000000  0.5623840000000 1.0
C      1  0.4593870000000  0.5155310000000  0.4803540000000 1.0
C      1  0.5736530000000  0.5612300000000  0.4556790000000 1.0
C      1  0.5283530000000  0.6244100000000  0.5583680000000 1.0
C      1  0.5404940000000  0.4261810000000  0.5308110000000 1.0
C      1  0.4569650000000  0.4824700000000  0.5227130000000 1.0
C      1  0.6132730000000  0.4934770000000  0.5114710000000 1.0
C      1  0.4828410000000  0.5331900000000  0.3946000000000 1.0
C      1  0.5366670000000  0.4716460000000  0.5581850000000 1.0
C      1  0.4761380000000  0.4079380000000  0.4765650000000 1.0
C      1  0.4209130000000  0.4703260000000  0.4423370000000 1.0
C      1  0.4932600000000  0.5361110000000  0.5265660000000 1.0
C      1  0.5792780000000  0.5125980000000  0.4406310000000 1.0
C      1  0.4356620000000  0.5826110000000  0.4766960000000 1.0
C      1  0.4538450000000  0.4754770000000  0.5996060000000 1.0
C      1  0.4367100000000  0.5205370000000  0.4968510000000 1.0
C      1  0.5309760000000  0.4143160000000  0.4448010000000 1.0
C      1  0.4607850000000  0.4948320000000  0.3995010000000 1.0
C      1  0.4550040000000  0.4442070000000  0.4186410000000 1.0
C      1  0.5852370000000  0.5336340000000  0.4587150000000 1.0
C      1  0.5236740000000  0.6141200000000  0.5264340000000 1.0
C      1  0.4795240000000  0.5375880000000  0.4829610000000 1.0
C      1  0.5627670000000  0.4991500000000  0.4890230000000 1.0
C      1  0.5729360000000  0.5771990000000  0.4802000000000 1.0
C      1  0.5612550000000  0.4188050000000  0.5469030000000 1.0
C      1  0.5837300000000  0.4736080000000  0.4278600000000 1.0
C      1  0.5468050000000  0.5285020000000  0.5338760000000 1.0
C      1  0.4945240000000  0.4781270000000  0.4225720000000 1.0
C      1  0.5481950000000  0.4078550000000  0.4878730000000 1.0
C      1  0.4631000000000  0.4129860000000  0.5626260000000 1.0
C      1  0.5302780000000  0.4400780000000  0.4317060000000 1.0
C      1  0.3948540000000  0.4985550000000  0.4879550000000 1.0
C      1  0.5620740000000  0.4893520000000  0.5164430000000 1.0
C      1  0.4885700000000  0.5655570000000  0.5178480000000 1.0
C      1  0.3998760000000  0.5481390000000  0.5374220000000 1.0
C      1  0.5700610000000  0.5053940000000  0.5392950000000 1.0
C      1  0.4867870000000  0.5039500000000  0.3912700000000 1.0
C      1  0.4598040000000  0.5402690000000  0.4108000000000 1.0
C      1  0.4951570000000  0.4508310000000  0.4588680000000 1.0
C      1  0.5340900000000  0.4534840000000  0.5353200000000 1.0
C      1  0.5211260000000  0.5217770000000  0.6109590000000 1.0
C      1  0.4149830000000  0.5403250000000  0.5610640000000 1.0
C      1  0.4750270000000  0.6121570000000  0.4691550000000 1.0
C      1  0.5118330000000  0.5595990000000  0.4523280000000 1.0
C      1  0.5354160000000  0.5795950000000  0.4196540000000 1.0
C      1  0.5873740000000  0.5508280000000  0.5422180000000 1.0
C      1  0.5011840000000  0.4963910000000  0.4906220000000 1.0
C      1  0.5326330000000  0.5407010000000  0.3897090000000 1.0
C      1  0.5942150000000  0.4453940000000  0.5203430000000 1.0
C      1  0.4487450000000  0.5030100000000  0.5890150000000 1.0
C      1  0.5069020000000  0.5190990000000  0.5076150000000 1.0
C      1  0.4610520000000  0.4305610000000  0.5862780000000 1.0
C      1  0.5131720000000  0.4621610000000  0.4398950000000 1.0
C      1  0.4375030000000  0.4614160000000  0.5602500000000 1.0
C      1  0.5329100000000  0.5415600000000  0.5934330000000 1.0
C      1  0.3856560000000  0.4734710000000  0.4770680000000 1.0
C      1  0.4676890000000  0.6052980000000  0.5160590000000 1.0
C      1  0.5106280000000  0.4310700000000  0.5931870000000 1.0
C      1  0.4947570000000  0.4331740000000  0.5046240000000 1.0
C      1  0.5668450000000  0.5832190000000  0.5277460000000 1.0
C      1  0.6124610000000  0.4666330000000  0.5038150000000 1.0
C      1  0.5436440000000  0.4167680000000  0.5701090000000 1.0
C      1  0.5815230000000  0.4397710000000  0.5471570000000 1.0
C      1  0.5131140000000  0.4869070000000  0.3976760000000 1.0
C      1  0.4992880000000  0.6075780000000  0.4531160000000 1.0
C      1  0.4920600000000  0.4878570000000  0.5670020000000 1.0
C      1  0.6070800000000  0.5201690000000  0.5085980000000 1.0
C      1  0.5540840000000  0.4404370000000  0.5851710000000 1.0
C      1  0.4420770000000  0.5182020000000  0.4118040000000 1.0
C      1  0.4359140000000  0.5753920000000  0.5476320000000 1.0
C      1  0.5168050000000  0.5512410000000  0.5715860000000 1.0
C      1  0.5049470000000  0.4327230000000  0.4008800000000 1.0
C      1  0.3844500000000  0.5286840000000  0.5212370000000 1.0
C      1  0.5397180000000  0.4995760000000  0.6085290000000 1.0
C      1  0.4682300000000  0.5261280000000  0.5997240000000 1.0
C      1  0.5402570000000  0.5999740000000  0.5610240000000 1.0
C      1  0.4967110000000  0.5600410000000  0.3965260000000 1.0
C      1  0.4142580000000  0.5699160000000  0.4912770000000 1.0
C      1  0.5523380000000  0.5617450000000  0.4351240000000 1.0
C      1  0.5246130000000  0.5089610000000  0.5287560000000 1.0
C      1  0.5070740000000  0.3989920000000  0.4415400000000 1.0
C      1  0.5481540000000  0.5899410000000  0.4864760000000 1.0
C      1  0.4899990000000  0.4057130000000  0.5540490000000 1.0
C      1  0.5844390000000  0.5249820000000  0.4886300000000 1.0
C      1  0.4292640000000  0.4777460000000  0.5153730000000 1.0
C      1  0.5612740000000  0.4947910000000  0.4256430000000 1.0
C      1  0.4661560000000  0.5549730000000  0.5016090000000 1.0
C      1  0.5412410000000  0.5431030000000  0.4897070000000 1.0
C      1  0.4971660000000  0.3904030000000  0.4680690000000 1.0
C      1  0.5361270000000  0.5514790000000  0.5496460000000 1.0
C      1  0.4818060000000  0.4000740000000  0.5262890000000 1.0
END
