TITL C-4164243-3780-246 10.8929380813619 125000 -23004.2209874813 0 0 153 (C1) n - 1
REM
REM in /home/nfs/bkarasulu/CARBON/AIRSS/Generating-Clusters/ReaxFF-fromJPCA2015/Units_Real/with-SteepDescent/Only-C1/SD-CG/Try1-3A/FIRE-CG
REM
REM
REM
REM
REM
REM ./C.cell (11c1c37f851c82e70ff6c80c92926a4b)
REM
REM compiler GCC version 9.2.1 20190827 (Red Hat 9.2.1-1)
REM options -cpp -mtune=generic -march=x86-64 -g -O0 -fpre-include=/usr/include/finclude/math-vector-fortran.h
REM seed -1281492107 1323704771 -1188910935 -436703874 -731337381 1543859650 1977030989 -369627638 -1159316860 117431489 -1585790213 -655623549 -329832076 -1042816794 -1504099973 456358578 -1957523846 -1401543875 1030805463 -1394129519 -97364154 448875589 831695466 160543496 -410939348 2136696569 1524808839 1335208322 744217857 1602921177 1795890550 149571940 -1822743066
REM
CELL 1.54180   50.00000   50.00000   50.00000   90.00000   90.00000   90.00000
LATT -1
SFAC C  
C      1  0.4876430000000  0.5572820000000  0.5242230000000 1.0
C      1  0.5043110000000  0.4681300000000  0.4734600000000 1.0
C      1  0.5309840000000  0.4381950000000  0.4157670000000 1.0
C      1  0.4235490000000  0.4830130000000  0.4242860000000 1.0
C      1  0.5992830000000  0.4922400000000  0.5160780000000 1.0
C      1  0.4583530000000  0.4684290000000  0.4577120000000 1.0
C      1  0.4791040000000  0.5330520000000  0.4246200000000 1.0
C      1  0.4089280000000  0.4652390000000  0.5388390000000 1.0
C      1  0.4880580000000  0.6052130000000  0.5243390000000 1.0
C      1  0.5394770000000  0.5664700000000  0.4970910000000 1.0
C      1  0.4722620000000  0.4306430000000  0.4221960000000 1.0
C      1  0.5787560000000  0.5091170000000  0.4293280000000 1.0
C      1  0.5164190000000  0.4435470000000  0.5598380000000 1.0
C      1  0.5926560000000  0.5634360000000  0.4796800000000 1.0
C      1  0.4471510000000  0.4897570000000  0.5942920000000 1.0
C      1  0.5262350000000  0.4882460000000  0.4656290000000 1.0
C      1  0.4755370000000  0.5160410000000  0.5214650000000 1.0
C      1  0.5454190000000  0.5686680000000  0.5543890000000 1.0
C      1  0.4073390000000  0.5412810000000  0.4892730000000 1.0
C      1  0.5387740000000  0.5391530000000  0.4056620000000 1.0
C      1  0.5707140000000  0.4365910000000  0.4624000000000 1.0
C      1  0.4267810000000  0.4719530000000  0.5824880000000 1.0
C      1  0.4328340000000  0.4447830000000  0.5741080000000 1.0
C      1  0.4739540000000  0.4817820000000  0.5865690000000 1.0
C      1  0.5386260000000  0.4445010000000  0.5128550000000 1.0
C      1  0.5575590000000  0.5316200000000  0.4648980000000 1.0
C      1  0.4404180000000  0.5163510000000  0.5836090000000 1.0
C      1  0.5177370000000  0.5089390000000  0.4488450000000 1.0
C      1  0.4914930000000  0.4619600000000  0.5010460000000 1.0
C      1  0.5791820000000  0.4664200000000  0.5116580000000 1.0
C      1  0.4856990000000  0.5290340000000  0.3943280000000 1.0
C      1  0.5866850000000  0.5271920000000  0.4523020000000 1.0
C      1  0.4917520000000  0.4171020000000  0.4400380000000 1.0
C      1  0.4830420000000  0.5019660000000  0.3828760000000 1.0
C      1  0.5259760000000  0.5286420000000  0.5323280000000 1.0
C      1  0.4136750000000  0.4832180000000  0.4728000000000 1.0
C      1  0.5109460000000  0.3954940000000  0.5283860000000 1.0
C      1  0.5752890000000  0.5360990000000  0.5133600000000 1.0
C      1  0.4416900000000  0.5636230000000  0.4378710000000 1.0
C      1  0.4103400000000  0.5700330000000  0.4833690000000 1.0
C      1  0.4622290000000  0.5971790000000  0.5269450000000 1.0
C      1  0.4338340000000  0.5359180000000  0.4789580000000 1.0
C      1  0.5666820000000  0.5778850000000  0.4907360000000 1.0
C      1  0.5746320000000  0.5033260000000  0.5814380000000 1.0
C      1  0.4867120000000  0.5295710000000  0.5936750000000 1.0
C      1  0.5377370000000  0.5291180000000  0.4450330000000 1.0
C      1  0.4352430000000  0.4205520000000  0.4983020000000 1.0
C      1  0.5359880000000  0.5103130000000  0.5086690000000 1.0
C      1  0.4729130000000  0.5993590000000  0.4773850000000 1.0
C      1  0.4721390000000  0.4741470000000  0.5589610000000 1.0
C      1  0.4369830000000  0.5850620000000  0.5290430000000 1.0
C      1  0.5836120000000  0.5436310000000  0.5759790000000 1.0
C      1  0.4580630000000  0.5600830000000  0.5652920000000 1.0
C      1  0.4426270000000  0.5961790000000  0.4776640000000 1.0
C      1  0.4475660000000  0.4750300000000  0.5075150000000 1.0
C      1  0.4915240000000  0.5611230000000  0.4321710000000 1.0
C      1  0.4979970000000  0.4179920000000  0.4900010000000 1.0
C      1  0.4854420000000  0.5094880000000  0.4945260000000 1.0
C      1  0.4424560000000  0.4760390000000  0.4813360000000 1.0
C      1  0.5497640000000  0.5337400000000  0.4940200000000 1.0
C      1  0.4808280000000  0.4359930000000  0.5060590000000 1.0
C      1  0.4678260000000  0.5725480000000  0.4343000000000 1.0
C      1  0.5638850000000  0.4670950000000  0.5624770000000 1.0
C      1  0.5325130000000  0.5101780000000  0.5547360000000 1.0
C      1  0.5340500000000  0.3949660000000  0.5123410000000 1.0
C      1  0.4687520000000  0.4220780000000  0.5291270000000 1.0
C      1  0.4884780000000  0.4039640000000  0.5430910000000 1.0
C      1  0.4520340000000  0.5423660000000  0.4978960000000 1.0
C      1  0.5104970000000  0.4963800000000  0.5642290000000 1.0
C      1  0.4134100000000  0.4855680000000  0.5602310000000 1.0
C      1  0.5110820000000  0.4974250000000  0.5026230000000 1.0
C      1  0.5822840000000  0.4419020000000  0.4885630000000 1.0
C      1  0.4227610000000  0.5131860000000  0.5613070000000 1.0
C      1  0.5373330000000  0.5641260000000  0.4249150000000 1.0
C      1  0.5351830000000  0.5352670000000  0.5954130000000 1.0
C      1  0.5209860000000  0.4181830000000  0.4353430000000 1.0
C      1  0.5060100000000  0.5673080000000  0.5741370000000 1.0
C      1  0.4397360000000  0.4241550000000  0.5272800000000 1.0
C      1  0.5114830000000  0.4867370000000  0.4119000000000 1.0
C      1  0.4489260000000  0.5265170000000  0.5203040000000 1.0
C      1  0.6054750000000  0.5091250000000  0.4929290000000 1.0
C      1  0.4814800000000  0.4110330000000  0.4669330000000 1.0
C      1  0.5597890000000  0.5208880000000  0.4128250000000 1.0
C      1  0.4950450000000  0.4846380000000  0.5467290000000 1.0
C      1  0.5736550000000  0.4528470000000  0.5385880000000 1.0
C      1  0.3983800000000  0.4726600000000  0.5115380000000 1.0
C      1  0.5310490000000  0.5609140000000  0.5811710000000 1.0
C      1  0.4363940000000  0.5617710000000  0.5470380000000 1.0
C      1  0.4204850000000  0.4979340000000  0.4491150000000 1.0
C      1  0.5390160000000  0.4270020000000  0.4583390000000 1.0
C      1  0.4272070000000  0.5784970000000  0.4602110000000 1.0
C      1  0.5176810000000  0.5715060000000  0.4456400000000 1.0
C      1  0.4505390000000  0.5359350000000  0.4338240000000 1.0
C      1  0.5572800000000  0.4957740000000  0.5590560000000 1.0
C      1  0.4808180000000  0.4854960000000  0.4540850000000 1.0
C      1  0.5311110000000  0.5633080000000  0.5292740000000 1.0
C      1  0.4166950000000  0.4332400000000  0.4797800000000 1.0
C      1  0.5180020000000  0.4578540000000  0.5865860000000 1.0
C      1  0.5147520000000  0.5286190000000  0.3898040000000 1.0
C      1  0.5984280000000  0.5055300000000  0.5399300000000 1.0
C      1  0.5024060000000  0.5786140000000  0.5330710000000 1.0
C      1  0.4329990000000  0.4208670000000  0.4561040000000 1.0
C      1  0.5819180000000  0.5802160000000  0.5382860000000 1.0
C      1  0.5639840000000  0.5290000000000  0.5921760000000 1.0
C      1  0.5742530000000  0.5683010000000  0.5618870000000 1.0
C      1  0.4763980000000  0.5562740000000  0.4978230000000 1.0
C      1  0.4028370000000  0.5275100000000  0.5150140000000 1.0
C      1  0.4845270000000  0.5741060000000  0.5605970000000 1.0
C      1  0.4814410000000  0.4522920000000  0.4049350000000 1.0
C      1  0.4240170000000  0.4411270000000  0.5462810000000 1.0
C      1  0.4863250000000  0.6177610000000  0.4964250000000 1.0
C      1  0.5033710000000  0.4884980000000  0.5903300000000 1.0
C      1  0.4965330000000  0.5322210000000  0.5329790000000 1.0
C      1  0.4587310000000  0.4347260000000  0.5864980000000 1.0
C      1  0.5127420000000  0.4993030000000  0.3853860000000 1.0
C      1  0.4526250000000  0.4110910000000  0.4746020000000 1.0
C      1  0.5108790000000  0.5191450000000  0.6004270000000 1.0
C      1  0.5009100000000  0.4197480000000  0.5657710000000 1.0
C      1  0.4524940000000  0.4741050000000  0.5349880000000 1.0
C      1  0.4896380000000  0.5740730000000  0.4782330000000 1.0
C      1  0.5529530000000  0.4848090000000  0.4750090000000 1.0
C      1  0.5991620000000  0.5580940000000  0.4527360000000 1.0
C      1  0.5219200000000  0.4551210000000  0.5336760000000 1.0
C      1  0.4258030000000  0.5881530000000  0.5007840000000 1.0
C      1  0.5554960000000  0.4486440000000  0.4250870000000 1.0
C      1  0.5523590000000  0.4761330000000  0.5024020000000 1.0
C      1  0.4003330000000  0.5007110000000  0.5131470000000 1.0
C      1  0.5051710000000  0.4756150000000  0.5215630000000 1.0
C      1  0.4677210000000  0.4779930000000  0.3937720000000 1.0
C      1  0.5186090000000  0.5724670000000  0.4757630000000 1.0
C      1  0.4253550000000  0.5334930000000  0.5382990000000 1.0
C      1  0.4032030000000  0.4587370000000  0.4849080000000 1.0
C      1  0.5469260000000  0.4570640000000  0.5862290000000 1.0
C      1  0.4440220000000  0.4316570000000  0.4310550000000 1.0
C      1  0.4947220000000  0.5017250000000  0.4315150000000 1.0
C      1  0.5765450000000  0.4168010000000  0.4977810000000 1.0
C      1  0.4391650000000  0.4598550000000  0.4370530000000 1.0
C      1  0.4440000000000  0.4847250000000  0.4051040000000 1.0
C      1  0.5994250000000  0.5380150000000  0.4985760000000 1.0
C      1  0.5988190000000  0.5024980000000  0.4656360000000 1.0
C      1  0.4704920000000  0.5057270000000  0.4706100000000 1.0
C      1  0.4611200000000  0.5378840000000  0.5851000000000 1.0
C      1  0.4869960000000  0.4331180000000  0.5862940000000 1.0
C      1  0.5223380000000  0.4467670000000  0.4656050000000 1.0
C      1  0.5805770000000  0.5838750000000  0.5131430000000 1.0
C      1  0.4431630000000  0.5179080000000  0.4578370000000 1.0
C      1  0.5575160000000  0.4297780000000  0.5323860000000 1.0
C      1  0.5626180000000  0.4042980000000  0.5187040000000 1.0
C      1  0.5092720000000  0.4580530000000  0.4074780000000 1.0
C      1  0.5762470000000  0.4567230000000  0.4419770000000 1.0
C      1  0.5257720000000  0.4195010000000  0.4987600000000 1.0
C      1  0.5772420000000  0.4861680000000  0.4531640000000 1.0
C      1  0.5957980000000  0.5182080000000  0.5654100000000 1.0
END
