TITL C-4164241-3639-416 20.8413936923984 125000 -25801.7074926379 0 0 173 (C1) n - 1
REM
REM in /home/nfs/bkarasulu/CARBON/AIRSS/Generating-Clusters/ReaxFF-fromJPCA2015/Units_Real/with-SteepDescent/Only-C1/SD-CG/Try1-3A/FIRE-CG
REM
REM
REM
REM
REM
REM ./C.cell (11c1c37f851c82e70ff6c80c92926a4b)
REM
REM compiler GCC version 9.2.1 20190827 (Red Hat 9.2.1-1)
REM options -cpp -mtune=generic -march=x86-64 -g -O0 -fpre-include=/usr/include/finclude/math-vector-fortran.h
REM seed 19083310 48087898 -180930644 -2095592323 -1120209676 -1622780270 1451944551 -2042293552 1158800037 637608556 -614170849 1289380301 913592129 -36836354 1904986614 -1282780114 -585366640 -1853600996 -377055852 -1088026064 -1607571610 1610549507 342687104 647731460 1730487546 -1676719883 792410962 685544988 720088760 -198705816 1617038805 1548677029 -519438830
REM
CELL 1.54180   50.00000   50.00000   50.00000   90.00000   90.00000   90.00000
LATT -1
SFAC C  
C      1  0.5425600000000  0.4600970000000  0.4799170000000 1.0
C      1  0.4429000000000  0.4648480000000  0.5813280000000 1.0
C      1  0.5333430000000  0.5841320000000  0.4424390000000 1.0
C      1  0.4709970000000  0.4778930000000  0.4562700000000 1.0
C      1  0.4690680000000  0.5140350000000  0.3888230000000 1.0
C      1  0.5989970000000  0.5409100000000  0.5417260000000 1.0
C      1  0.4761500000000  0.6037070000000  0.5532380000000 1.0
C      1  0.4757630000000  0.5024760000000  0.4970250000000 1.0
C      1  0.5870570000000  0.4663430000000  0.4279160000000 1.0
C      1  0.5066080000000  0.3974450000000  0.5378620000000 1.0
C      1  0.5082000000000  0.5822430000000  0.4779510000000 1.0
C      1  0.5354270000000  0.6005220000000  0.5610220000000 1.0
C      1  0.5154550000000  0.4722470000000  0.4653140000000 1.0
C      1  0.5014240000000  0.5553750000000  0.4703950000000 1.0
C      1  0.4666090000000  0.4411290000000  0.4784560000000 1.0
C      1  0.6009370000000  0.4893290000000  0.5384530000000 1.0
C      1  0.5497800000000  0.5891360000000  0.4795120000000 1.0
C      1  0.4424910000000  0.5154130000000  0.5311160000000 1.0
C      1  0.4963750000000  0.5449940000000  0.5138600000000 1.0
C      1  0.4883120000000  0.4491680000000  0.5375280000000 1.0
C      1  0.5150170000000  0.5478990000000  0.4948250000000 1.0
C      1  0.6044280000000  0.4993960000000  0.4833510000000 1.0
C      1  0.4934690000000  0.4378700000000  0.4879300000000 1.0
C      1  0.4990800000000  0.6179280000000  0.5541150000000 1.0
C      1  0.4939640000000  0.5169530000000  0.5150920000000 1.0
C      1  0.5701240000000  0.4818500000000  0.5758770000000 1.0
C      1  0.5529090000000  0.5226920000000  0.5441210000000 1.0
C      1  0.4401760000000  0.5376180000000  0.5492620000000 1.0
C      1  0.5401360000000  0.5391460000000  0.4188990000000 1.0
C      1  0.4103790000000  0.4506710000000  0.4541540000000 1.0
C      1  0.4269430000000  0.4948090000000  0.4144920000000 1.0
C      1  0.4643890000000  0.4654560000000  0.4062290000000 1.0
C      1  0.5010340000000  0.4803810000000  0.3940090000000 1.0
C      1  0.5023560000000  0.4722580000000  0.5330470000000 1.0
C      1  0.3987830000000  0.5484300000000  0.5356510000000 1.0
C      1  0.5293670000000  0.4015280000000  0.5558930000000 1.0
C      1  0.5423180000000  0.4258960000000  0.4784970000000 1.0
C      1  0.5623540000000  0.5694120000000  0.5514310000000 1.0
C      1  0.4518830000000  0.6086700000000  0.5106890000000 1.0
C      1  0.4505470000000  0.5082350000000  0.4833930000000 1.0
C      1  0.5937010000000  0.5096830000000  0.4582420000000 1.0
C      1  0.5720270000000  0.5417970000000  0.5542050000000 1.0
C      1  0.5652020000000  0.4119920000000  0.5217040000000 1.0
C      1  0.3833390000000  0.5152380000000  0.4743070000000 1.0
C      1  0.4022080000000  0.4575020000000  0.5075080000000 1.0
C      1  0.4297350000000  0.5246230000000  0.4872670000000 1.0
C      1  0.4279490000000  0.4011210000000  0.4916540000000 1.0
C      1  0.4603090000000  0.4355040000000  0.4483890000000 1.0
C      1  0.5418360000000  0.5491280000000  0.5003280000000 1.0
C      1  0.3975230000000  0.4895680000000  0.5475590000000 1.0
C      1  0.4614850000000  0.4945700000000  0.5242230000000 1.0
C      1  0.4498570000000  0.5358810000000  0.4542370000000 1.0
C      1  0.4132930000000  0.5069030000000  0.5648650000000 1.0
C      1  0.4011630000000  0.4430010000000  0.4823080000000 1.0
C      1  0.5079410000000  0.5605130000000  0.5571200000000 1.0
C      1  0.4216830000000  0.5100270000000  0.5107030000000 1.0
C      1  0.5749170000000  0.4850400000000  0.5205630000000 1.0
C      1  0.4501600000000  0.4685040000000  0.5180090000000 1.0
C      1  0.5509600000000  0.5606260000000  0.4357210000000 1.0
C      1  0.4797520000000  0.5680210000000  0.5193580000000 1.0
C      1  0.4074950000000  0.4978840000000  0.4351780000000 1.0
C      1  0.4842790000000  0.5050000000000  0.6008480000000 1.0
C      1  0.4540960000000  0.4053060000000  0.5332610000000 1.0
C      1  0.5516980000000  0.5126050000000  0.4228250000000 1.0
C      1  0.4207480000000  0.6082790000000  0.5116190000000 1.0
C      1  0.4862930000000  0.5350970000000  0.6076680000000 1.0
C      1  0.5364440000000  0.4607840000000  0.5105350000000 1.0
C      1  0.5133570000000  0.5457930000000  0.4049070000000 1.0
C      1  0.5271390000000  0.4193610000000  0.5791870000000 1.0
C      1  0.5154470000000  0.5134480000000  0.4444380000000 1.0
C      1  0.4590800000000  0.4475500000000  0.5376210000000 1.0
C      1  0.4259430000000  0.5541790000000  0.4868150000000 1.0
C      1  0.5668480000000  0.4189880000000  0.4605520000000 1.0
C      1  0.4149320000000  0.4794080000000  0.4559660000000 1.0
C      1  0.4710200000000  0.5886350000000  0.5010460000000 1.0
C      1  0.4869520000000  0.4646500000000  0.5895910000000 1.0
C      1  0.4223450000000  0.6122310000000  0.5413070000000 1.0
C      1  0.5275850000000  0.4895390000000  0.5748500000000 1.0
C      1  0.4890150000000  0.4810740000000  0.4755390000000 1.0
C      1  0.5447770000000  0.4684220000000  0.5640820000000 1.0
C      1  0.4537330000000  0.5814770000000  0.4448300000000 1.0
C      1  0.4374750000000  0.4932330000000  0.5771250000000 1.0
C      1  0.5149140000000  0.5471760000000  0.6092940000000 1.0
C      1  0.4142530000000  0.4191960000000  0.4806000000000 1.0
C      1  0.3831580000000  0.5391650000000  0.5126810000000 1.0
C      1  0.5552040000000  0.5254220000000  0.4962660000000 1.0
C      1  0.5423660000000  0.4087290000000  0.5038300000000 1.0
C      1  0.4650070000000  0.5503550000000  0.5964070000000 1.0
C      1  0.5351010000000  0.5718180000000  0.5669720000000 1.0
C      1  0.4364240000000  0.5719380000000  0.4665030000000 1.0
C      1  0.4856920000000  0.5960500000000  0.4775660000000 1.0
C      1  0.4493550000000  0.4607460000000  0.4903920000000 1.0
C      1  0.6042930000000  0.5490590000000  0.4956220000000 1.0
C      1  0.4768810000000  0.5262460000000  0.5618640000000 1.0
C      1  0.4607690000000  0.5501810000000  0.5647780000000 1.0
C      1  0.4374300000000  0.4671820000000  0.4160960000000 1.0
C      1  0.5236610000000  0.6224110000000  0.5562420000000 1.0
C      1  0.5894260000000  0.4600160000000  0.4557380000000 1.0
C      1  0.5563440000000  0.5751490000000  0.5012780000000 1.0
C      1  0.4912230000000  0.5214300000000  0.4304180000000 1.0
C      1  0.5630690000000  0.4257060000000  0.4338610000000 1.0
C      1  0.3813220000000  0.5113900000000  0.5010570000000 1.0
C      1  0.4046550000000  0.5583960000000  0.5083830000000 1.0
C      1  0.5038070000000  0.3935510000000  0.4834370000000 1.0
C      1  0.4435370000000  0.4838920000000  0.4701770000000 1.0
C      1  0.4434380000000  0.5178160000000  0.4025300000000 1.0
C      1  0.5782810000000  0.5585260000000  0.4458500000000 1.0
C      1  0.3863760000000  0.5189440000000  0.4462920000000 1.0
C      1  0.5696070000000  0.4275890000000  0.5648270000000 1.0
C      1  0.5046130000000  0.5860680000000  0.4328240000000 1.0
C      1  0.5479250000000  0.4886500000000  0.4076830000000 1.0
C      1  0.5940410000000  0.4759510000000  0.4979600000000 1.0
C      1  0.5508130000000  0.4683270000000  0.5315100000000 1.0
C      1  0.5247050000000  0.5115050000000  0.5551730000000 1.0
C      1  0.4670100000000  0.4469990000000  0.5849710000000 1.0
C      1  0.5896660000000  0.4339920000000  0.4707420000000 1.0
C      1  0.3990590000000  0.4894740000000  0.5157660000000 1.0
C      1  0.4749480000000  0.4846590000000  0.3858920000000 1.0
C      1  0.4763980000000  0.4175830000000  0.5742190000000 1.0
C      1  0.5068920000000  0.4483340000000  0.5149930000000 1.0
C      1  0.4936480000000  0.5244190000000  0.4016740000000 1.0
C      1  0.5625280000000  0.4389700000000  0.4126550000000 1.0
C      1  0.5244070000000  0.5003410000000  0.4674530000000 1.0
C      1  0.4990530000000  0.4182500000000  0.5924600000000 1.0
C      1  0.5930600000000  0.4718060000000  0.5598270000000 1.0
C      1  0.4504750000000  0.5426400000000  0.4140400000000 1.0
C      1  0.5977750000000  0.5588210000000  0.4686880000000 1.0
C      1  0.4698420000000  0.5465510000000  0.4700300000000 1.0
C      1  0.5098200000000  0.4583830000000  0.4342490000000 1.0
C      1  0.5884380000000  0.4441800000000  0.5493660000000 1.0
C      1  0.4342560000000  0.4463050000000  0.4373630000000 1.0
C      1  0.4973750000000  0.4085550000000  0.4274990000000 1.0
C      1  0.6110090000000  0.5213480000000  0.5019770000000 1.0
C      1  0.4795620000000  0.4044980000000  0.5479140000000 1.0
C      1  0.6102440000000  0.5159310000000  0.5310970000000 1.0
C      1  0.4801890000000  0.5936960000000  0.4489580000000 1.0
C      1  0.4816420000000  0.5729230000000  0.5492350000000 1.0
C      1  0.5938940000000  0.4467180000000  0.4969550000000 1.0
C      1  0.5735170000000  0.5778880000000  0.5260420000000 1.0
C      1  0.4954850000000  0.5675060000000  0.4140120000000 1.0
C      1  0.5215890000000  0.4739400000000  0.4090020000000 1.0
C      1  0.4736150000000  0.4067900000000  0.4438080000000 1.0
C      1  0.5124460000000  0.4205660000000  0.4743820000000 1.0
C      1  0.5468830000000  0.4402130000000  0.5772000000000 1.0
C      1  0.5386490000000  0.5536760000000  0.5956530000000 1.0
C      1  0.5301100000000  0.5941080000000  0.4677040000000 1.0
C      1  0.5518060000000  0.5294530000000  0.5933660000000 1.0
C      1  0.5652000000000  0.5018350000000  0.4519820000000 1.0
C      1  0.4138720000000  0.5344980000000  0.5565810000000 1.0
C      1  0.5631400000000  0.5062170000000  0.5873620000000 1.0
C      1  0.4787720000000  0.3895130000000  0.4678410000000 1.0
C      1  0.4651840000000  0.5656070000000  0.4212620000000 1.0
C      1  0.4650920000000  0.5055030000000  0.5789610000000 1.0
C      1  0.4780030000000  0.4606280000000  0.4333350000000 1.0
C      1  0.5983930000000  0.5369310000000  0.4493170000000 1.0
C      1  0.5072690000000  0.5395590000000  0.4460850000000 1.0
C      1  0.5631800000000  0.4718500000000  0.4620320000000 1.0
C      1  0.5615200000000  0.5122220000000  0.5191050000000 1.0
C      1  0.5856650000000  0.4336160000000  0.5223110000000 1.0
C      1  0.4378330000000  0.4281930000000  0.5376440000000 1.0
C      1  0.4532880000000  0.6150780000000  0.5386490000000 1.0
C      1  0.5976390000000  0.5619140000000  0.5215330000000 1.0
C      1  0.5061180000000  0.4296920000000  0.4285190000000 1.0
C      1  0.5574770000000  0.4057520000000  0.5489340000000 1.0
C      1  0.5043100000000  0.5334420000000  0.5605890000000 1.0
C      1  0.5171090000000  0.3952200000000  0.5105840000000 1.0
C      1  0.5489980000000  0.5114520000000  0.4737790000000 1.0
C      1  0.5689050000000  0.4663480000000  0.4060150000000 1.0
C      1  0.4103020000000  0.4416750000000  0.5307390000000 1.0
C      1  0.4445500000000  0.3865180000000  0.5095110000000 1.0
C      1  0.5057510000000  0.4851670000000  0.5939930000000 1.0
C      1  0.4025450000000  0.4625260000000  0.5478720000000 1.0
C      1  0.5070580000000  0.5002130000000  0.5329980000000 1.0
END
