TITL C-4164243-3780-33 114.78102556063 125000 -20377.547622996 0 0 139 (C1) n - 1
REM
REM in /home/nfs/bkarasulu/CARBON/AIRSS/Generating-Clusters/ReaxFF-fromJPCA2015/Units_Real/with-SteepDescent/Only-C1/SD-CG/Try1-3A/FIRE-CG
REM
REM
REM
REM
REM
REM ./C.cell (11c1c37f851c82e70ff6c80c92926a4b)
REM
REM compiler GCC version 9.2.1 20190827 (Red Hat 9.2.1-1)
REM options -cpp -mtune=generic -march=x86-64 -g -O0 -fpre-include=/usr/include/finclude/math-vector-fortran.h
REM seed -140884555 1468864148 -1004787595 -937594091 -157391902 546660743 626697910 -1129944831 553231339 1293653263 -402701121 -1129209114 -507938738 1715965267 -407128270 -2055087076 -444826326 821060873 841176903 1855121246 -496713298 1323891211 607924459 -231487331 901193584 736231761 1935966936 -607431825 -408439676 1264563816 1400579724 143369613 337691860
REM
CELL 1.54180   50.00000   50.00000   50.00000   90.00000   90.00000   90.00000
LATT -1
SFAC C  
C      1  0.4874360000000  0.4382960000000  0.5124750000000 1.0
C      1  0.5417240000000  0.4092060000000  0.4869000000000 1.0
C      1  0.4211500000000  0.5543460000000  0.5262350000000 1.0
C      1  0.4754840000000  0.5646250000000  0.4529390000000 1.0
C      1  0.5249980000000  0.5386750000000  0.5829330000000 1.0
C      1  0.4782560000000  0.4896270000000  0.4648940000000 1.0
C      1  0.4836500000000  0.5479720000000  0.4982400000000 1.0
C      1  0.4708420000000  0.4149140000000  0.5049310000000 1.0
C      1  0.5309410000000  0.5286770000000  0.5169460000000 1.0
C      1  0.5427230000000  0.4667170000000  0.5293260000000 1.0
C      1  0.5388980000000  0.4493980000000  0.5073690000000 1.0
C      1  0.4779700000000  0.5626430000000  0.5735020000000 1.0
C      1  0.5637690000000  0.5214930000000  0.4250080000000 1.0
C      1  0.5920860000000  0.5127410000000  0.4954360000000 1.0
C      1  0.5638860000000  0.5570830000000  0.5484370000000 1.0
C      1  0.5667380000000  0.5201290000000  0.4856950000000 1.0
C      1  0.5158430000000  0.5747290000000  0.5475070000000 1.0
C      1  0.4597180000000  0.5595810000000  0.4280790000000 1.0
C      1  0.4190800000000  0.4659400000000  0.5388250000000 1.0
C      1  0.5282640000000  0.5712730000000  0.4653810000000 1.0
C      1  0.5074440000000  0.5599620000000  0.5721470000000 1.0
C      1  0.4614120000000  0.4214750000000  0.4778860000000 1.0
C      1  0.5535290000000  0.4788120000000  0.4644860000000 1.0
C      1  0.4720170000000  0.4818600000000  0.5187480000000 1.0
C      1  0.5347560000000  0.5464510000000  0.4089210000000 1.0
C      1  0.4690390000000  0.5299640000000  0.5175650000000 1.0
C      1  0.4729500000000  0.5204900000000  0.5944280000000 1.0
C      1  0.5809090000000  0.4532820000000  0.5041300000000 1.0
C      1  0.4235180000000  0.4843170000000  0.5601820000000 1.0
C      1  0.5532820000000  0.4239040000000  0.5100590000000 1.0
C      1  0.5024950000000  0.4055230000000  0.4740640000000 1.0
C      1  0.4034700000000  0.5193120000000  0.5099790000000 1.0
C      1  0.5490160000000  0.4934020000000  0.5881360000000 1.0
C      1  0.4012400000000  0.4566020000000  0.4956590000000 1.0
C      1  0.4749550000000  0.4960140000000  0.4065350000000 1.0
C      1  0.6005210000000  0.4958890000000  0.4520360000000 1.0
C      1  0.5025980000000  0.4989620000000  0.4158040000000 1.0
C      1  0.4995440000000  0.4984920000000  0.5650190000000 1.0
C      1  0.4357750000000  0.5408840000000  0.4340900000000 1.0
C      1  0.4628210000000  0.4974970000000  0.5421660000000 1.0
C      1  0.4511080000000  0.5162040000000  0.4324940000000 1.0
C      1  0.5063380000000  0.5230310000000  0.4324470000000 1.0
C      1  0.5153970000000  0.3975900000000  0.4959870000000 1.0
C      1  0.5768270000000  0.4516530000000  0.4428960000000 1.0
C      1  0.5928270000000  0.5190890000000  0.5229130000000 1.0
C      1  0.4683440000000  0.5750290000000  0.5493110000000 1.0
C      1  0.4813270000000  0.5817210000000  0.5053090000000 1.0
C      1  0.5076310000000  0.4756220000000  0.5618430000000 1.0
C      1  0.5654580000000  0.4514030000000  0.4712520000000 1.0
C      1  0.4003720000000  0.4920840000000  0.4560670000000 1.0
C      1  0.5515950000000  0.5385070000000  0.5689550000000 1.0
C      1  0.4954400000000  0.4267370000000  0.5707760000000 1.0
C      1  0.5033990000000  0.4932560000000  0.6063340000000 1.0
C      1  0.5279850000000  0.4750620000000  0.4579240000000 1.0
C      1  0.4844690000000  0.4474690000000  0.5861310000000 1.0
C      1  0.4279070000000  0.5333010000000  0.4609620000000 1.0
C      1  0.5426840000000  0.4682100000000  0.4071270000000 1.0
C      1  0.4582830000000  0.4723250000000  0.4117030000000 1.0
C      1  0.4916730000000  0.5829260000000  0.5338000000000 1.0
C      1  0.5192940000000  0.4938950000000  0.4962910000000 1.0
C      1  0.5318320000000  0.4165830000000  0.5301740000000 1.0
C      1  0.4732020000000  0.5415520000000  0.4703220000000 1.0
C      1  0.5156210000000  0.4384870000000  0.5197180000000 1.0
C      1  0.4372090000000  0.5304070000000  0.5750930000000 1.0
C      1  0.4506810000000  0.5857630000000  0.5083640000000 1.0
C      1  0.5700460000000  0.5483100000000  0.4786750000000 1.0
C      1  0.5034130000000  0.4704510000000  0.4511830000000 1.0
C      1  0.5611750000000  0.4589520000000  0.5501170000000 1.0
C      1  0.5730160000000  0.4980470000000  0.4457040000000 1.0
C      1  0.4824090000000  0.4718290000000  0.6016680000000 1.0
C      1  0.5028260000000  0.5026060000000  0.4756520000000 1.0
C      1  0.4910210000000  0.5226050000000  0.5683600000000 1.0
C      1  0.4040090000000  0.5359050000000  0.4802990000000 1.0
C      1  0.4517290000000  0.4851270000000  0.5671220000000 1.0
C      1  0.4732830000000  0.5233450000000  0.5444810000000 1.0
C      1  0.4149940000000  0.4960250000000  0.5002240000000 1.0
C      1  0.4626690000000  0.4449110000000  0.4192900000000 1.0
C      1  0.5146030000000  0.5240880000000  0.4602390000000 1.0
C      1  0.4628770000000  0.4929140000000  0.5936980000000 1.0
C      1  0.5440480000000  0.5751060000000  0.5377950000000 1.0
C      1  0.4982780000000  0.5822150000000  0.4585430000000 1.0
C      1  0.5443740000000  0.5098400000000  0.5017700000000 1.0
C      1  0.4600340000000  0.4144680000000  0.5318400000000 1.0
C      1  0.5067090000000  0.5481740000000  0.4170940000000 1.0
C      1  0.5819120000000  0.5459620000000  0.5280230000000 1.0
C      1  0.4025120000000  0.4780740000000  0.5169920000000 1.0
C      1  0.5212590000000  0.5460490000000  0.4755750000000 1.0
C      1  0.4657670000000  0.4542530000000  0.5220580000000 1.0
C      1  0.4833330000000  0.4289170000000  0.4316470000000 1.0
C      1  0.4102710000000  0.5296430000000  0.5361650000000 1.0
C      1  0.4591150000000  0.4725290000000  0.4817110000000 1.0
C      1  0.5563880000000  0.5612220000000  0.4564840000000 1.0
C      1  0.4303020000000  0.5810610000000  0.4868550000000 1.0
C      1  0.4416400000000  0.4936000000000  0.4919810000000 1.0
C      1  0.5257340000000  0.4577330000000  0.5820290000000 1.0
C      1  0.4945120000000  0.5975450000000  0.4820600000000 1.0
C      1  0.4811660000000  0.4137130000000  0.4576550000000 1.0
C      1  0.4134860000000  0.5585880000000  0.4976670000000 1.0
C      1  0.5664160000000  0.5104130000000  0.5721350000000 1.0
C      1  0.5283060000000  0.4928100000000  0.4020080000000 1.0
C      1  0.4045640000000  0.5213590000000  0.4533500000000 1.0
C      1  0.5904740000000  0.4759120000000  0.4358730000000 1.0
C      1  0.5401770000000  0.5204850000000  0.5415630000000 1.0
C      1  0.4431490000000  0.5733190000000  0.5331810000000 1.0
C      1  0.5083440000000  0.3996100000000  0.5270250000000 1.0
C      1  0.5570360000000  0.5494260000000  0.4301780000000 1.0
C      1  0.4782420000000  0.5491070000000  0.4087760000000 1.0
C      1  0.4185830000000  0.5152140000000  0.5610880000000 1.0
C      1  0.4175900000000  0.4359500000000  0.5076330000000 1.0
C      1  0.5596090000000  0.5012170000000  0.5471090000000 1.0
C      1  0.5828750000000  0.4654660000000  0.5319520000000 1.0
C      1  0.4385290000000  0.4430720000000  0.5297940000000 1.0
C      1  0.5336140000000  0.4321470000000  0.4394950000000 1.0
C      1  0.5459820000000  0.4286830000000  0.4655570000000 1.0
C      1  0.5257110000000  0.5095270000000  0.5959670000000 1.0
C      1  0.4506670000000  0.4471710000000  0.4738630000000 1.0
C      1  0.5198710000000  0.6136730000000  0.4891040000000 1.0
C      1  0.5446620000000  0.5188280000000  0.4037720000000 1.0
C      1  0.4055540000000  0.4656150000000  0.4660850000000 1.0
C      1  0.4508460000000  0.4630120000000  0.4369550000000 1.0
C      1  0.5506530000000  0.4647970000000  0.5784480000000 1.0
C      1  0.4502410000000  0.5139200000000  0.5048100000000 1.0
C      1  0.5005810000000  0.4851910000000  0.5144040000000 1.0
C      1  0.5187640000000  0.4800700000000  0.5340250000000 1.0
C      1  0.5750050000000  0.5618960000000  0.5046250000000 1.0
C      1  0.5539050000000  0.4466880000000  0.4241360000000 1.0
C      1  0.5982180000000  0.4725860000000  0.4942930000000 1.0
C      1  0.5067520000000  0.4452080000000  0.4361840000000 1.0
C      1  0.4647860000000  0.5166240000000  0.4581870000000 1.0
C      1  0.5390970000000  0.5914940000000  0.4880470000000 1.0
C      1  0.4323620000000  0.4551330000000  0.4565040000000 1.0
C      1  0.5847620000000  0.4955970000000  0.5381120000000 1.0
C      1  0.4627230000000  0.5234520000000  0.4074410000000 1.0
C      1  0.5214750000000  0.4356060000000  0.5761730000000 1.0
C      1  0.5545440000000  0.5816860000000  0.5109470000000 1.0
C      1  0.4579520000000  0.5446890000000  0.5879400000000 1.0
C      1  0.5131580000000  0.5453550000000  0.5024020000000 1.0
C      1  0.6075090000000  0.4947970000000  0.4793300000000 1.0
C      1  0.4861480000000  0.4103230000000  0.5435890000000 1.0
END
