TITL C-4164242-3624-388 -15.6175759121193 125000 -22193.8171533579 0 0 147 (C1) n - 1
REM
REM in /home/nfs/bkarasulu/CARBON/AIRSS/Generating-Clusters/ReaxFF-fromJPCA2015/Units_Real/with-SteepDescent/Only-C1/SD-CG/Try1-3A/FIRE-CG
REM
REM
REM
REM
REM
REM ./C.cell (11c1c37f851c82e70ff6c80c92926a4b)
REM
REM compiler GCC version 9.2.1 20190827 (Red Hat 9.2.1-1)
REM options -cpp -mtune=generic -march=x86-64 -g -O0 -fpre-include=/usr/include/finclude/math-vector-fortran.h
REM seed -1059663247 -1920953413 -148923415 -164341813 1174344585 -1821514555 -966947179 -1436392874 -1175260951 -183823624 -562367361 1307777999 983967014 1203261530 1047647335 1282612992 1167173479 -1885740725 1010211630 -1993216083 -1273393182 493738597 1695542706 1087809639 -548839418 1965896290 -251979035 -2072567956 -1820912285 -2088660641 -1781714522 -1107936209 1901363689
REM
CELL 1.54180   50.00000   50.00000   50.00000   90.00000   90.00000   90.00000
LATT -1
SFAC C  
C      1  0.4615390000000  0.4338460000000  0.5059180000000 1.0
C      1  0.5347220000000  0.4813720000000  0.4805850000000 1.0
C      1  0.4770300000000  0.5140860000000  0.5875190000000 1.0
C      1  0.5255670000000  0.5030510000000  0.4984310000000 1.0
C      1  0.4457570000000  0.5267010000000  0.4821510000000 1.0
C      1  0.4770550000000  0.4699330000000  0.4668330000000 1.0
C      1  0.4557810000000  0.4440330000000  0.5718680000000 1.0
C      1  0.5868270000000  0.4515270000000  0.5099840000000 1.0
C      1  0.4557570000000  0.5476610000000  0.5425760000000 1.0
C      1  0.4562690000000  0.4604390000000  0.5482970000000 1.0
C      1  0.5947370000000  0.4784020000000  0.5132660000000 1.0
C      1  0.5156330000000  0.4835050000000  0.5973550000000 1.0
C      1  0.4609980000000  0.4700700000000  0.5871240000000 1.0
C      1  0.5316840000000  0.5587680000000  0.5907680000000 1.0
C      1  0.4655110000000  0.4224690000000  0.4449520000000 1.0
C      1  0.4411390000000  0.4330860000000  0.4576020000000 1.0
C      1  0.4860640000000  0.5384200000000  0.5984830000000 1.0
C      1  0.5299410000000  0.5063700000000  0.4007010000000 1.0
C      1  0.5304730000000  0.5360100000000  0.4089950000000 1.0
C      1  0.5193840000000  0.5102360000000  0.5609580000000 1.0
C      1  0.5121380000000  0.5880630000000  0.5066870000000 1.0
C      1  0.4571300000000  0.5935340000000  0.4418890000000 1.0
C      1  0.5431660000000  0.5535410000000  0.4294150000000 1.0
C      1  0.4760610000000  0.4806090000000  0.5442310000000 1.0
C      1  0.4822660000000  0.4041010000000  0.5453780000000 1.0
C      1  0.5110690000000  0.4039920000000  0.4724980000000 1.0
C      1  0.5211790000000  0.4284200000000  0.4063320000000 1.0
C      1  0.5528680000000  0.5758250000000  0.4791120000000 1.0
C      1  0.4277670000000  0.5364370000000  0.4438600000000 1.0
C      1  0.5284300000000  0.5909830000000  0.5486320000000 1.0
C      1  0.5258790000000  0.4841370000000  0.4519370000000 1.0
C      1  0.5846360000000  0.4853960000000  0.4349460000000 1.0
C      1  0.5384260000000  0.5709070000000  0.4528550000000 1.0
C      1  0.4788960000000  0.5894410000000  0.5450060000000 1.0
C      1  0.5032190000000  0.4642050000000  0.5049670000000 1.0
C      1  0.4301820000000  0.4829160000000  0.4303870000000 1.0
C      1  0.4381400000000  0.5122840000000  0.4300230000000 1.0
C      1  0.4872940000000  0.5083350000000  0.5606500000000 1.0
C      1  0.5488710000000  0.5289620000000  0.4683290000000 1.0
C      1  0.4495790000000  0.5185250000000  0.5857520000000 1.0
C      1  0.4641040000000  0.5734770000000  0.4232050000000 1.0
C      1  0.5640630000000  0.4816650000000  0.4802710000000 1.0
C      1  0.4274860000000  0.4611840000000  0.4543110000000 1.0
C      1  0.3998230000000  0.5168530000000  0.4870170000000 1.0
C      1  0.5260370000000  0.4280360000000  0.5156650000000 1.0
C      1  0.4111780000000  0.4719260000000  0.5461150000000 1.0
C      1  0.5507820000000  0.5865940000000  0.5291960000000 1.0
C      1  0.4630770000000  0.4949910000000  0.5224360000000 1.0
C      1  0.5551600000000  0.4265070000000  0.5244260000000 1.0
C      1  0.4451110000000  0.4478290000000  0.5263370000000 1.0
C      1  0.5015550000000  0.4994670000000  0.3992760000000 1.0
C      1  0.4178510000000  0.5615990000000  0.4977480000000 1.0
C      1  0.5041280000000  0.5599200000000  0.5068110000000 1.0
C      1  0.4937010000000  0.5673630000000  0.4233380000000 1.0
C      1  0.4673220000000  0.5169300000000  0.4268080000000 1.0
C      1  0.5770280000000  0.5388740000000  0.5316850000000 1.0
C      1  0.4139280000000  0.5046920000000  0.5087450000000 1.0
C      1  0.5112340000000  0.4384780000000  0.5397610000000 1.0
C      1  0.5654160000000  0.4231350000000  0.4738200000000 1.0
C      1  0.5672240000000  0.4908260000000  0.5778650000000 1.0
C      1  0.4416320000000  0.4218450000000  0.4841610000000 1.0
C      1  0.5192060000000  0.4290500000000  0.5667220000000 1.0
C      1  0.5798840000000  0.5285020000000  0.4603480000000 1.0
C      1  0.5700970000000  0.4925810000000  0.5045480000000 1.0
C      1  0.4789180000000  0.5186670000000  0.5125480000000 1.0
C      1  0.4883580000000  0.4759960000000  0.5943830000000 1.0
C      1  0.4729820000000  0.4286350000000  0.4174140000000 1.0
C      1  0.5483790000000  0.5082830000000  0.5130600000000 1.0
C      1  0.5253210000000  0.4524890000000  0.4898570000000 1.0
C      1  0.4621500000000  0.5395160000000  0.5027580000000 1.0
C      1  0.4866440000000  0.5103830000000  0.4478990000000 1.0
C      1  0.4781710000000  0.5619700000000  0.4920960000000 1.0
C      1  0.4813860000000  0.4112100000000  0.5159770000000 1.0
C      1  0.4500550000000  0.4773660000000  0.4657790000000 1.0
C      1  0.4368950000000  0.4985970000000  0.5185460000000 1.0
C      1  0.4951270000000  0.4741740000000  0.4144850000000 1.0
C      1  0.5734790000000  0.5696320000000  0.5250550000000 1.0
C      1  0.4515550000000  0.5013170000000  0.4741290000000 1.0
C      1  0.5308690000000  0.4821830000000  0.5503950000000 1.0
C      1  0.5858870000000  0.4722450000000  0.4627970000000 1.0
C      1  0.4559850000000  0.5752220000000  0.5323130000000 1.0
C      1  0.5056920000000  0.5456740000000  0.5318940000000 1.0
C      1  0.5034310000000  0.5205390000000  0.4949920000000 1.0
C      1  0.4799980000000  0.4556030000000  0.4915730000000 1.0
C      1  0.4151400000000  0.4287040000000  0.4897970000000 1.0
C      1  0.4994910000000  0.4146460000000  0.4203460000000 1.0
C      1  0.5626230000000  0.4494880000000  0.4334190000000 1.0
C      1  0.5341970000000  0.4576020000000  0.4417030000000 1.0
C      1  0.5058840000000  0.4083530000000  0.5015620000000 1.0
C      1  0.5249500000000  0.4412910000000  0.4630730000000 1.0
C      1  0.5576360000000  0.4736910000000  0.5411470000000 1.0
C      1  0.4142330000000  0.4907880000000  0.5672040000000 1.0
C      1  0.5231080000000  0.5109400000000  0.5915870000000 1.0
C      1  0.4157650000000  0.5203710000000  0.5633940000000 1.0
C      1  0.4821370000000  0.5320510000000  0.5414020000000 1.0
C      1  0.5727530000000  0.5117030000000  0.4375590000000 1.0
C      1  0.4015520000000  0.4647820000000  0.4726210000000 1.0
C      1  0.4573290000000  0.5960710000000  0.4661570000000 1.0
C      1  0.4689630000000  0.4220960000000  0.5614180000000 1.0
C      1  0.4703880000000  0.4568680000000  0.4081520000000 1.0
C      1  0.5177490000000  0.5781410000000  0.5721870000000 1.0
C      1  0.5224140000000  0.4589850000000  0.4091250000000 1.0
C      1  0.4119190000000  0.5369710000000  0.5433790000000 1.0
C      1  0.5857430000000  0.5190610000000  0.5535680000000 1.0
C      1  0.5082460000000  0.5712980000000  0.4486120000000 1.0
C      1  0.4713170000000  0.5587170000000  0.5838600000000 1.0
C      1  0.5808690000000  0.4895940000000  0.5517430000000 1.0
C      1  0.5096600000000  0.4015870000000  0.5607250000000 1.0
C      1  0.4187970000000  0.5394970000000  0.4756290000000 1.0
C      1  0.4961050000000  0.5276080000000  0.4678310000000 1.0
C      1  0.4377150000000  0.5807710000000  0.5090200000000 1.0
C      1  0.5984010000000  0.5205860000000  0.4815650000000 1.0
C      1  0.3998950000000  0.4499780000000  0.4984840000000 1.0
C      1  0.4486550000000  0.5450290000000  0.5709760000000 1.0
C      1  0.5043640000000  0.5979090000000  0.5330440000000 1.0
C      1  0.4497470000000  0.4704530000000  0.4191710000000 1.0
C      1  0.4400710000000  0.4915380000000  0.5818060000000 1.0
C      1  0.5409110000000  0.5904370000000  0.5011200000000 1.0
C      1  0.4597030000000  0.5898080000000  0.4922970000000 1.0
C      1  0.5565020000000  0.5447160000000  0.5865670000000 1.0
C      1  0.5147050000000  0.5366750000000  0.6019270000000 1.0
C      1  0.5780260000000  0.4426780000000  0.4567550000000 1.0
C      1  0.5906130000000  0.5408210000000  0.4998930000000 1.0
C      1  0.5595040000000  0.4445820000000  0.5473810000000 1.0
C      1  0.5380320000000  0.4156610000000  0.4657300000000 1.0
C      1  0.5505400000000  0.5300130000000  0.5282010000000 1.0
C      1  0.5729750000000  0.5207180000000  0.5799920000000 1.0
C      1  0.5408990000000  0.4728020000000  0.5800300000000 1.0
C      1  0.5052310000000  0.4671610000000  0.5350140000000 1.0
C      1  0.4111120000000  0.5524270000000  0.5228130000000 1.0
C      1  0.5027260000000  0.5453620000000  0.4067940000000 1.0
C      1  0.3954460000000  0.4920020000000  0.4758340000000 1.0
C      1  0.5434790000000  0.4809280000000  0.4027020000000 1.0
C      1  0.5443550000000  0.4441530000000  0.5721810000000 1.0
C      1  0.6062230000000  0.4898360000000  0.4855360000000 1.0
C      1  0.4438450000000  0.5560800000000  0.4343070000000 1.0
C      1  0.4842470000000  0.5223600000000  0.4033870000000 1.0
C      1  0.5436920000000  0.5102790000000  0.4463400000000 1.0
C      1  0.4922850000000  0.4102580000000  0.4500630000000 1.0
C      1  0.5279980000000  0.5342450000000  0.5443840000000 1.0
C      1  0.4166570000000  0.4538890000000  0.5251450000000 1.0
C      1  0.4883280000000  0.5784430000000  0.5704060000000 1.0
C      1  0.4959660000000  0.4835410000000  0.4476200000000 1.0
C      1  0.5757320000000  0.5657890000000  0.4958370000000 1.0
C      1  0.4917390000000  0.5557990000000  0.4667990000000 1.0
C      1  0.5748970000000  0.4270920000000  0.5028470000000 1.0
C      1  0.5684410000000  0.4716530000000  0.4150160000000 1.0
END
