TITL C-4164235-1454-332 -1.98841992844088 125000 -29160.0550715649 0 0 194 (C1) n - 1
REM
REM in /home/nfs/bkarasulu/CARBON/AIRSS/Generating-Clusters/ReaxFF-fromJPCA2015/Units_Real/with-SteepDescent/Only-C1/SD-CG/Try1-3A/FIRE-CG
REM
REM
REM
REM
REM
REM ./C.cell (11c1c37f851c82e70ff6c80c92926a4b)
REM
REM compiler GCC version 9.2.1 20190827 (Red Hat 9.2.1-1)
REM options -cpp -mtune=generic -march=x86-64 -g -O0 -fpre-include=/usr/include/finclude/math-vector-fortran.h
REM seed 321277273 407084140 1680070980 1821223864 -977917918 876333740 -1607438207 2052027824 1520405864 -198403355 1008123733 -1358911040 -1166089524 -1175253045 -644895621 -438273146 1907673373 -922796624 -1321667504 508404743 752104050 974819242 -633030859 1378014719 426037897 1606927955 -1079455053 854684440 414290280 1702029314 -1717030924 -1314268087 -1585345505
REM
CELL 1.54180   50.00000   50.00000   50.00000   90.00000   90.00000   90.00000
LATT -1
SFAC C  
C      1  0.4453200000000  0.4956980000000  0.5596240000000 1.0
C      1  0.5272720000000  0.5553360000000  0.4825850000000 1.0
C      1  0.4556360000000  0.3958680000000  0.4717370000000 1.0
C      1  0.4785710000000  0.4601450000000  0.4537310000000 1.0
C      1  0.5521680000000  0.4516620000000  0.4876080000000 1.0
C      1  0.5480070000000  0.4835330000000  0.5382340000000 1.0
C      1  0.5164990000000  0.4330430000000  0.5880560000000 1.0
C      1  0.5782990000000  0.4658510000000  0.5782590000000 1.0
C      1  0.5171910000000  0.4576450000000  0.5704880000000 1.0
C      1  0.4727100000000  0.5241410000000  0.3929760000000 1.0
C      1  0.4236960000000  0.5251440000000  0.5785240000000 1.0
C      1  0.4131850000000  0.5189010000000  0.5172260000000 1.0
C      1  0.5513490000000  0.5211870000000  0.4984980000000 1.0
C      1  0.4491190000000  0.4910860000000  0.5876000000000 1.0
C      1  0.4569540000000  0.5927150000000  0.4472090000000 1.0
C      1  0.4856350000000  0.5537260000000  0.4624450000000 1.0
C      1  0.4254750000000  0.4407210000000  0.4278270000000 1.0
C      1  0.5422270000000  0.4935510000000  0.5691960000000 1.0
C      1  0.4485050000000  0.5164720000000  0.4589940000000 1.0
C      1  0.4527410000000  0.4660090000000  0.5986500000000 1.0
C      1  0.5352670000000  0.5124560000000  0.3963560000000 1.0
C      1  0.5156060000000  0.4399660000000  0.4057120000000 1.0
C      1  0.5260560000000  0.4856180000000  0.5119330000000 1.0
C      1  0.5473840000000  0.5561130000000  0.4205160000000 1.0
C      1  0.5682380000000  0.4925570000000  0.5863430000000 1.0
C      1  0.4562470000000  0.5652050000000  0.5292250000000 1.0
C      1  0.4828180000000  0.5220470000000  0.5089420000000 1.0
C      1  0.4219410000000  0.4695110000000  0.4252830000000 1.0
C      1  0.4581090000000  0.4636320000000  0.4745990000000 1.0
C      1  0.4400710000000  0.4817480000000  0.5289550000000 1.0
C      1  0.5442490000000  0.5652740000000  0.5035880000000 1.0
C      1  0.4758740000000  0.5415010000000  0.5850090000000 1.0
C      1  0.5909360000000  0.4578920000000  0.4431850000000 1.0
C      1  0.4744030000000  0.4540690000000  0.5493290000000 1.0
C      1  0.5040500000000  0.5264310000000  0.4553260000000 1.0
C      1  0.4742870000000  0.6074280000000  0.4940010000000 1.0
C      1  0.5286630000000  0.4644960000000  0.3962980000000 1.0
C      1  0.5461740000000  0.5495690000000  0.5825520000000 1.0
C      1  0.4046140000000  0.5687160000000  0.5257610000000 1.0
C      1  0.5006010000000  0.5012630000000  0.4689970000000 1.0
C      1  0.4816090000000  0.4983020000000  0.3847610000000 1.0
C      1  0.4982190000000  0.5689480000000  0.4395830000000 1.0
C      1  0.5116930000000  0.5775610000000  0.5737690000000 1.0
C      1  0.5574940000000  0.4023310000000  0.4485160000000 1.0
C      1  0.4631520000000  0.5197500000000  0.5270550000000 1.0
C      1  0.4241480000000  0.4155110000000  0.5122990000000 1.0
C      1  0.4802120000000  0.4095610000000  0.5650100000000 1.0
C      1  0.5332690000000  0.4072860000000  0.5539270000000 1.0
C      1  0.5727590000000  0.5735130000000  0.4641500000000 1.0
C      1  0.4139350000000  0.4995690000000  0.5618680000000 1.0
C      1  0.3898900000000  0.5181070000000  0.4710620000000 1.0
C      1  0.5018040000000  0.4036180000000  0.4731830000000 1.0
C      1  0.4128250000000  0.5686230000000  0.4963400000000 1.0
C      1  0.4609580000000  0.5759610000000  0.4232660000000 1.0
C      1  0.5536060000000  0.5213310000000  0.4525250000000 1.0
C      1  0.6079460000000  0.4845770000000  0.5096810000000 1.0
C      1  0.5352380000000  0.5355790000000  0.5567710000000 1.0
C      1  0.5069420000000  0.4528470000000  0.4564850000000 1.0
C      1  0.5232630000000  0.5474010000000  0.6007480000000 1.0
C      1  0.3888120000000  0.4924810000000  0.4858770000000 1.0
C      1  0.4683130000000  0.5210630000000  0.6051190000000 1.0
C      1  0.3906160000000  0.4711780000000  0.4658950000000 1.0
C      1  0.6099600000000  0.5250150000000  0.5399380000000 1.0
C      1  0.4015490000000  0.4825520000000  0.4408090000000 1.0
C      1  0.5950110000000  0.5406130000000  0.4956950000000 1.0
C      1  0.4951800000000  0.6009680000000  0.5128620000000 1.0
C      1  0.5174610000000  0.5195580000000  0.6142460000000 1.0
C      1  0.4523820000000  0.4965760000000  0.4819600000000 1.0
C      1  0.4696450000000  0.4539660000000  0.5009250000000 1.0
C      1  0.5290830000000  0.5389310000000  0.4045690000000 1.0
C      1  0.5810760000000  0.4534700000000  0.4872610000000 1.0
C      1  0.5306240000000  0.5332570000000  0.4651840000000 1.0
C      1  0.4121920000000  0.4476860000000  0.5458950000000 1.0
C      1  0.5236670000000  0.4377020000000  0.4331710000000 1.0
C      1  0.5491130000000  0.5741980000000  0.4443220000000 1.0
C      1  0.4398900000000  0.5135670000000  0.5992170000000 1.0
C      1  0.4639000000000  0.4261030000000  0.5114770000000 1.0
C      1  0.5094600000000  0.6073830000000  0.5371940000000 1.0
C      1  0.4444510000000  0.5894920000000  0.5392260000000 1.0
C      1  0.5512820000000  0.4291640000000  0.4344510000000 1.0
C      1  0.4425870000000  0.5059690000000  0.5119930000000 1.0
C      1  0.5043130000000  0.3992010000000  0.5505910000000 1.0
C      1  0.4874360000000  0.4281370000000  0.4024530000000 1.0
C      1  0.4485410000000  0.4043000000000  0.5001300000000 1.0
C      1  0.5702970000000  0.5011270000000  0.5311390000000 1.0
C      1  0.5556250000000  0.4687010000000  0.4053890000000 1.0
C      1  0.5653030000000  0.5357280000000  0.4309110000000 1.0
C      1  0.6181300000000  0.5397790000000  0.5160440000000 1.0
C      1  0.5640360000000  0.5289570000000  0.5393470000000 1.0
C      1  0.3942780000000  0.5115210000000  0.4429760000000 1.0
C      1  0.5600790000000  0.4359270000000  0.5361690000000 1.0
C      1  0.5839030000000  0.5811000000000  0.5180200000000 1.0
C      1  0.5364070000000  0.4757690000000  0.4862680000000 1.0
C      1  0.5132260000000  0.4616700000000  0.5220280000000 1.0
C      1  0.4904010000000  0.4289750000000  0.5237260000000 1.0
C      1  0.4326430000000  0.4527750000000  0.5818720000000 1.0
C      1  0.6001420000000  0.4937400000000  0.5367060000000 1.0
C      1  0.5418990000000  0.4230400000000  0.5784660000000 1.0
C      1  0.5874780000000  0.4161190000000  0.4733440000000 1.0
C      1  0.4786700000000  0.4551440000000  0.5930180000000 1.0
C      1  0.5372750000000  0.4286800000000  0.4883640000000 1.0
C      1  0.5341210000000  0.5997420000000  0.5237140000000 1.0
C      1  0.4473050000000  0.5955390000000  0.5042380000000 1.0
C      1  0.4943350000000  0.5018940000000  0.5623290000000 1.0
C      1  0.5500260000000  0.4096980000000  0.5304250000000 1.0
C      1  0.4929390000000  0.5094400000000  0.6128070000000 1.0
C      1  0.4246260000000  0.5922020000000  0.4846890000000 1.0
C      1  0.3967380000000  0.5030730000000  0.5360110000000 1.0
C      1  0.4207390000000  0.5600500000000  0.4427280000000 1.0
C      1  0.3906360000000  0.4838570000000  0.5145450000000 1.0
C      1  0.4698940000000  0.5842800000000  0.5612540000000 1.0
C      1  0.4977630000000  0.5582540000000  0.5924120000000 1.0
C      1  0.4732210000000  0.4160070000000  0.4268620000000 1.0
C      1  0.5877110000000  0.5101770000000  0.4028360000000 1.0
C      1  0.4957220000000  0.5409380000000  0.4060910000000 1.0
C      1  0.4633350000000  0.4761410000000  0.3897620000000 1.0
C      1  0.5198960000000  0.5116100000000  0.5640860000000 1.0
C      1  0.5217700000000  0.5619940000000  0.5500630000000 1.0
C      1  0.4815050000000  0.5642110000000  0.5408240000000 1.0
C      1  0.5994930000000  0.4570330000000  0.5071740000000 1.0
C      1  0.4864550000000  0.5671910000000  0.4140870000000 1.0
C      1  0.5819650000000  0.5705180000000  0.5459900000000 1.0
C      1  0.4764600000000  0.4766770000000  0.4318660000000 1.0
C      1  0.4568470000000  0.5668970000000  0.5018130000000 1.0
C      1  0.5693770000000  0.4510150000000  0.4252650000000 1.0
C      1  0.4776360000000  0.6047090000000  0.4646220000000 1.0
C      1  0.5773240000000  0.5878130000000  0.4904880000000 1.0
C      1  0.5341070000000  0.4714920000000  0.5876090000000 1.0
C      1  0.5290510000000  0.4921040000000  0.6137420000000 1.0
C      1  0.6043980000000  0.5325640000000  0.4498020000000 1.0
C      1  0.5354870000000  0.4554740000000  0.5410640000000 1.0
C      1  0.6003280000000  0.5059830000000  0.4900850000000 1.0
C      1  0.4582690000000  0.5618170000000  0.5792770000000 1.0
C      1  0.4986700000000  0.4469800000000  0.5037480000000 1.0
C      1  0.4126070000000  0.4638730000000  0.5201200000000 1.0
C      1  0.5601110000000  0.5675430000000  0.5648700000000 1.0
C      1  0.4643550000000  0.4670250000000  0.5260260000000 1.0
C      1  0.5485880000000  0.5947020000000  0.4997640000000 1.0
C      1  0.4786430000000  0.4012410000000  0.4550570000000 1.0
C      1  0.5610690000000  0.4973420000000  0.3988190000000 1.0
C      1  0.4307770000000  0.5843580000000  0.4570870000000 1.0
C      1  0.4364040000000  0.4451830000000  0.4760040000000 1.0
C      1  0.4052570000000  0.5366800000000  0.4526090000000 1.0
C      1  0.5064980000000  0.5344400000000  0.5144590000000 1.0
C      1  0.5981560000000  0.4424370000000  0.4684950000000 1.0
C      1  0.4906920000000  0.4706630000000  0.5687340000000 1.0
C      1  0.4552390000000  0.5432560000000  0.4686810000000 1.0
C      1  0.4508530000000  0.4123400000000  0.5567640000000 1.0
C      1  0.5059480000000  0.5624940000000  0.5253660000000 1.0
C      1  0.4509900000000  0.4293800000000  0.4214690000000 1.0
C      1  0.3957380000000  0.4432660000000  0.4729440000000 1.0
C      1  0.5587910000000  0.4967610000000  0.6143530000000 1.0
C      1  0.5260200000000  0.5150310000000  0.5089080000000 1.0
C      1  0.5057810000000  0.5971560000000  0.4684210000000 1.0
C      1  0.4396640000000  0.5564260000000  0.4208170000000 1.0
C      1  0.5127560000000  0.4910130000000  0.3947950000000 1.0
C      1  0.5649100000000  0.5444170000000  0.5095760000000 1.0
C      1  0.5935060000000  0.5534390000000  0.4682920000000 1.0
C      1  0.5135450000000  0.3928920000000  0.4974710000000 1.0
C      1  0.5659860000000  0.3982730000000  0.4766430000000 1.0
C      1  0.5871830000000  0.4480490000000  0.5335140000000 1.0
C      1  0.4230830000000  0.5719170000000  0.5493410000000 1.0
C      1  0.4130990000000  0.4674600000000  0.5668040000000 1.0
C      1  0.5932060000000  0.4670960000000  0.5535200000000 1.0
C      1  0.4270890000000  0.4214460000000  0.5404320000000 1.0
C      1  0.3994750000000  0.5415610000000  0.5245060000000 1.0
C      1  0.4489310000000  0.5304350000000  0.4094000000000 1.0
C      1  0.4733100000000  0.4506130000000  0.3934350000000 1.0
C      1  0.5907430000000  0.4867310000000  0.4475940000000 1.0
C      1  0.5888960000000  0.5413880000000  0.5511580000000 1.0
C      1  0.4537230000000  0.4398330000000  0.5647670000000 1.0
C      1  0.5176770000000  0.4786500000000  0.4660110000000 1.0
C      1  0.4486190000000  0.4829480000000  0.4185240000000 1.0
C      1  0.4322460000000  0.5518490000000  0.5702280000000 1.0
C      1  0.4157680000000  0.4418240000000  0.4968180000000 1.0
C      1  0.5426810000000  0.4029040000000  0.5001710000000 1.0
C      1  0.5024160000000  0.5699520000000  0.4800650000000 1.0
C      1  0.4183760000000  0.4354260000000  0.4562920000000 1.0
C      1  0.5666020000000  0.4973700000000  0.4613850000000 1.0
C      1  0.5221990000000  0.5855410000000  0.4462450000000 1.0
C      1  0.4802680000000  0.5030920000000  0.4887460000000 1.0
C      1  0.5112170000000  0.4322100000000  0.4794870000000 1.0
C      1  0.5933210000000  0.5320380000000  0.4221460000000 1.0
C      1  0.4959490000000  0.5987970000000  0.5632070000000 1.0
C      1  0.4999200000000  0.5206270000000  0.4273600000000 1.0
C      1  0.5697750000000  0.5005520000000  0.4897540000000 1.0
C      1  0.4461520000000  0.5110400000000  0.4306960000000 1.0
C      1  0.4692090000000  0.5149760000000  0.5552700000000 1.0
C      1  0.6081830000000  0.5061500000000  0.4607930000000 1.0
C      1  0.4364700000000  0.5505880000000  0.4895020000000 1.0
C      1  0.4994630000000  0.4923540000000  0.4226440000000 1.0
C      1  0.4996350000000  0.3997110000000  0.5220410000000 1.0
C      1  0.4877380000000  0.4276400000000  0.5876150000000 1.0
C      1  0.5549000000000  0.4486380000000  0.5850520000000 1.0
END
