TITL C-4164237-1827-332 -21.7604788682139 125000 -18996.0326594106 0 0 126 (C1) n - 1
REM
REM in /home/nfs/bkarasulu/CARBON/AIRSS/Generating-Clusters/ReaxFF-fromJPCA2015/Units_Real/with-SteepDescent/Only-C1/SD-CG/Try1-3A/FIRE-CG
REM
REM
REM
REM
REM
REM ./C.cell (11c1c37f851c82e70ff6c80c92926a4b)
REM
REM compiler GCC version 9.2.1 20190827 (Red Hat 9.2.1-1)
REM options -cpp -mtune=generic -march=x86-64 -g -O0 -fpre-include=/usr/include/finclude/math-vector-fortran.h
REM seed -890140539 1151275800 -1686339156 -24958536 -1984922469 1935117285 -188574848 290560926 -1180705256 358005955 1801366895 -383793820 20080667 372256284 -998591061 1366515004 1095778952 2109754049 343328 2138342649 -437094898 -1951694335 1389115187 -184379685 434846323 -1150906940 537877354 1517985708 309955104 1243852810 -215470289 -296899004 -2002118776
REM
CELL 1.54180   50.00000   50.00000   50.00000   90.00000   90.00000   90.00000
LATT -1
SFAC C  
C      1  0.5694980000000  0.4431880000000  0.5107460000000 1.0
C      1  0.5474350000000  0.4928040000000  0.5126730000000 1.0
C      1  0.4658940000000  0.5327790000000  0.5874410000000 1.0
C      1  0.5929020000000  0.4601560000000  0.4513600000000 1.0
C      1  0.5569280000000  0.4422890000000  0.4845460000000 1.0
C      1  0.4712840000000  0.4287630000000  0.4706080000000 1.0
C      1  0.4559110000000  0.5932910000000  0.4841260000000 1.0
C      1  0.5921480000000  0.5338880000000  0.4712660000000 1.0
C      1  0.4832890000000  0.5199850000000  0.4724370000000 1.0
C      1  0.5497850000000  0.4481910000000  0.4161770000000 1.0
C      1  0.5001380000000  0.5830020000000  0.5094930000000 1.0
C      1  0.4372320000000  0.4599260000000  0.4349070000000 1.0
C      1  0.4406740000000  0.5643190000000  0.5158200000000 1.0
C      1  0.5126330000000  0.5659520000000  0.4361450000000 1.0
C      1  0.4763870000000  0.4393540000000  0.5781270000000 1.0
C      1  0.4247300000000  0.5595940000000  0.4720930000000 1.0
C      1  0.4981610000000  0.5075950000000  0.4505300000000 1.0
C      1  0.5076420000000  0.5120710000000  0.5135450000000 1.0
C      1  0.5185270000000  0.4213180000000  0.5528820000000 1.0
C      1  0.5974610000000  0.4812450000000  0.5000660000000 1.0
C      1  0.5834100000000  0.5251210000000  0.5217220000000 1.0
C      1  0.4541370000000  0.4971900000000  0.5334340000000 1.0
C      1  0.5879230000000  0.5107310000000  0.4959970000000 1.0
C      1  0.5288100000000  0.5101370000000  0.4544320000000 1.0
C      1  0.5634620000000  0.5492770000000  0.4616710000000 1.0
C      1  0.5134410000000  0.5334440000000  0.6012040000000 1.0
C      1  0.5139270000000  0.4667530000000  0.5577870000000 1.0
C      1  0.4270130000000  0.4160240000000  0.4960070000000 1.0
C      1  0.5392410000000  0.5222220000000  0.5991870000000 1.0
C      1  0.5867700000000  0.5536240000000  0.5170190000000 1.0
C      1  0.4056290000000  0.5265580000000  0.5092750000000 1.0
C      1  0.5307100000000  0.4452880000000  0.5648960000000 1.0
C      1  0.4108130000000  0.5371850000000  0.5359670000000 1.0
C      1  0.4585540000000  0.5217320000000  0.4205200000000 1.0
C      1  0.4270150000000  0.5434760000000  0.5602670000000 1.0
C      1  0.4126370000000  0.4646030000000  0.4502710000000 1.0
C      1  0.5191520000000  0.4935530000000  0.5622270000000 1.0
C      1  0.5479350000000  0.5600550000000  0.5424370000000 1.0
C      1  0.4666660000000  0.5415410000000  0.5374720000000 1.0
C      1  0.5204320000000  0.4811000000000  0.5108020000000 1.0
C      1  0.4783230000000  0.4691380000000  0.5864950000000 1.0
C      1  0.4268490000000  0.4923820000000  0.5418870000000 1.0
C      1  0.5054360000000  0.4683910000000  0.4891740000000 1.0
C      1  0.5551890000000  0.4282740000000  0.5317490000000 1.0
C      1  0.5155870000000  0.5605790000000  0.4677260000000 1.0
C      1  0.4238650000000  0.4868970000000  0.4963400000000 1.0
C      1  0.4333930000000  0.4955880000000  0.5703580000000 1.0
C      1  0.4795130000000  0.4813830000000  0.4844410000000 1.0
C      1  0.4569680000000  0.4802430000000  0.4410660000000 1.0
C      1  0.5253080000000  0.5505840000000  0.5254020000000 1.0
C      1  0.4479860000000  0.5375440000000  0.5168770000000 1.0
C      1  0.5367640000000  0.4230240000000  0.4780170000000 1.0
C      1  0.4972520000000  0.4401010000000  0.4207530000000 1.0
C      1  0.5260430000000  0.5325350000000  0.5020880000000 1.0
C      1  0.5190400000000  0.4122340000000  0.4987380000000 1.0
C      1  0.5507850000000  0.5819400000000  0.4979350000000 1.0
C      1  0.4150850000000  0.5339670000000  0.4797290000000 1.0
C      1  0.4494030000000  0.4720090000000  0.5796650000000 1.0
C      1  0.5543960000000  0.4637860000000  0.4633470000000 1.0
C      1  0.5706430000000  0.4727290000000  0.5481120000000 1.0
C      1  0.4540240000000  0.4370630000000  0.5382090000000 1.0
C      1  0.4905710000000  0.4105500000000  0.4911600000000 1.0
C      1  0.5341750000000  0.4675420000000  0.4059520000000 1.0
C      1  0.5230050000000  0.4364700000000  0.4550730000000 1.0
C      1  0.4430550000000  0.5684880000000  0.4495270000000 1.0
C      1  0.4405210000000  0.4220690000000  0.4696300000000 1.0
C      1  0.5986320000000  0.4696940000000  0.4747230000000 1.0
C      1  0.5019740000000  0.4930570000000  0.4050920000000 1.0
C      1  0.4897200000000  0.4692720000000  0.4161670000000 1.0
C      1  0.4397800000000  0.5234130000000  0.5777060000000 1.0
C      1  0.4776470000000  0.5079520000000  0.4957720000000 1.0
C      1  0.4900780000000  0.4196040000000  0.5607540000000 1.0
C      1  0.5573760000000  0.5220060000000  0.5777840000000 1.0
C      1  0.4310210000000  0.5788590000000  0.4939360000000 1.0
C      1  0.4893640000000  0.5200510000000  0.4212470000000 1.0
C      1  0.5593170000000  0.5017000000000  0.4903510000000 1.0
C      1  0.4252040000000  0.4377860000000  0.4504920000000 1.0
C      1  0.4816120000000  0.4296980000000  0.4423290000000 1.0
C      1  0.5264470000000  0.4327920000000  0.4255410000000 1.0
C      1  0.4482320000000  0.5976260000000  0.4550630000000 1.0
C      1  0.5476540000000  0.5497000000000  0.5700070000000 1.0
C      1  0.5648090000000  0.5723660000000  0.5226190000000 1.0
C      1  0.5224470000000  0.5804280000000  0.4905030000000 1.0
C      1  0.4627330000000  0.4577690000000  0.4834620000000 1.0
C      1  0.4749470000000  0.5144910000000  0.5461750000000 1.0
C      1  0.5604870000000  0.5099430000000  0.5322310000000 1.0
C      1  0.4718430000000  0.5587000000000  0.5748580000000 1.0
C      1  0.4704880000000  0.5574260000000  0.4459590000000 1.0
C      1  0.4316530000000  0.4373610000000  0.5161340000000 1.0
C      1  0.4709230000000  0.4101760000000  0.5407170000000 1.0
C      1  0.4810210000000  0.4072450000000  0.5154690000000 1.0
C      1  0.5300490000000  0.4147870000000  0.5266260000000 1.0
C      1  0.5032160000000  0.5105330000000  0.5428210000000 1.0
C      1  0.5692800000000  0.4564440000000  0.4385950000000 1.0
C      1  0.5376770000000  0.5744390000000  0.4234680000000 1.0
C      1  0.4791290000000  0.5763440000000  0.4904540000000 1.0
C      1  0.4434160000000  0.5065000000000  0.4410270000000 1.0
C      1  0.4189930000000  0.5136220000000  0.4596370000000 1.0
C      1  0.4896440000000  0.5506810000000  0.4248930000000 1.0
C      1  0.5935840000000  0.5598610000000  0.4890590000000 1.0
C      1  0.5040650000000  0.4643390000000  0.5304900000000 1.0
C      1  0.4509240000000  0.5601820000000  0.5544020000000 1.0
C      1  0.5829380000000  0.4670370000000  0.5216900000000 1.0
C      1  0.4085800000000  0.4991620000000  0.5192750000000 1.0
C      1  0.5703070000000  0.5734030000000  0.4778770000000 1.0
C      1  0.5339050000000  0.5364150000000  0.4732570000000 1.0
C      1  0.5201690000000  0.5539470000000  0.5803020000000 1.0
C      1  0.4983480000000  0.5654360000000  0.5641200000000 1.0
C      1  0.5460450000000  0.4914180000000  0.4673290000000 1.0
C      1  0.4496820000000  0.5092030000000  0.5064880000000 1.0
C      1  0.5284450000000  0.4919180000000  0.4036370000000 1.0
C      1  0.4978810000000  0.4908990000000  0.5861700000000 1.0
C      1  0.5606970000000  0.5555160000000  0.4314690000000 1.0
C      1  0.4887680000000  0.4780180000000  0.4444990000000 1.0
C      1  0.4496300000000  0.4448610000000  0.5684950000000 1.0
C      1  0.4112540000000  0.4874960000000  0.4684020000000 1.0
C      1  0.5531930000000  0.5311630000000  0.4215010000000 1.0
C      1  0.5080210000000  0.4593150000000  0.4625580000000 1.0
C      1  0.5033810000000  0.5674510000000  0.5350100000000 1.0
C      1  0.4789190000000  0.4536870000000  0.5286670000000 1.0
C      1  0.5577340000000  0.4476130000000  0.5547130000000 1.0
C      1  0.4843250000000  0.5509490000000  0.4722700000000 1.0
C      1  0.4387710000000  0.4600320000000  0.4989420000000 1.0
C      1  0.4890120000000  0.5168180000000  0.5964580000000 1.0
C      1  0.5543080000000  0.4980510000000  0.5587630000000 1.0
C      1  0.5407800000000  0.5085150000000  0.4245090000000 1.0
END
