TITL C-4164237-1827-581 29.6557188169779 125000 -14046.5016187934 0 0 96 (C1) n - 1
REM
REM in /home/nfs/bkarasulu/CARBON/AIRSS/Generating-Clusters/ReaxFF-fromJPCA2015/Units_Real/with-SteepDescent/Only-C1/SD-CG/Try1-3A/FIRE-CG
REM
REM
REM
REM
REM
REM ./C.cell (11c1c37f851c82e70ff6c80c92926a4b)
REM
REM compiler GCC version 9.2.1 20190827 (Red Hat 9.2.1-1)
REM options -cpp -mtune=generic -march=x86-64 -g -O0 -fpre-include=/usr/include/finclude/math-vector-fortran.h
REM seed 974171499 829347816 851291934 1016736172 1775490829 -279743908 531030990 770159932 -1101526956 518027155 -1524192863 1647441619 -1126776067 -415294166 -802915681 480413688 628470753 -1148118655 -1109062271 817759134 -221645027 -1354231501 2084231203 -276323885 1178656753 2077765554 -51722011 569812875 -668178274 -1798477671 328472103 882854505 1255568741
REM
CELL 1.54180   50.00000   50.00000   50.00000   90.00000   90.00000   90.00000
LATT -1
SFAC C  
C      1  0.5290220000000  0.5347660000000  0.4386050000000 1.0
C      1  0.5605190000000  0.4346240000000  0.4537640000000 1.0
C      1  0.5197930000000  0.4248730000000  0.5496220000000 1.0
C      1  0.5708450000000  0.4902260000000  0.4645260000000 1.0
C      1  0.5551200000000  0.5359550000000  0.4491770000000 1.0
C      1  0.4861700000000  0.4577120000000  0.4555550000000 1.0
C      1  0.4629430000000  0.4729640000000  0.4451120000000 1.0
C      1  0.5556540000000  0.4845170000000  0.5708720000000 1.0
C      1  0.5029880000000  0.4902680000000  0.5565350000000 1.0
C      1  0.4996410000000  0.4551970000000  0.4819820000000 1.0
C      1  0.5241190000000  0.5323990000000  0.5330480000000 1.0
C      1  0.5726910000000  0.5272770000000  0.5183680000000 1.0
C      1  0.4130010000000  0.4740310000000  0.4419370000000 1.0
C      1  0.5375880000000  0.4180010000000  0.4692660000000 1.0
C      1  0.5613000000000  0.4267290000000  0.5197250000000 1.0
C      1  0.5499100000000  0.5307360000000  0.4968560000000 1.0
C      1  0.5365630000000  0.5741460000000  0.5164590000000 1.0
C      1  0.4415560000000  0.5023770000000  0.5445530000000 1.0
C      1  0.4669540000000  0.5506660000000  0.5052760000000 1.0
C      1  0.4615320000000  0.5718490000000  0.5457290000000 1.0
C      1  0.5096840000000  0.5788480000000  0.4509970000000 1.0
C      1  0.4296230000000  0.5441210000000  0.5426190000000 1.0
C      1  0.4366420000000  0.4466440000000  0.4798150000000 1.0
C      1  0.5758640000000  0.4794710000000  0.5219930000000 1.0
C      1  0.4830330000000  0.5736200000000  0.4643220000000 1.0
C      1  0.4740830000000  0.5276260000000  0.5214620000000 1.0
C      1  0.4996740000000  0.5411780000000  0.5760600000000 1.0
C      1  0.5386540000000  0.5564670000000  0.5411290000000 1.0
C      1  0.4844990000000  0.4528610000000  0.5304360000000 1.0
C      1  0.5348780000000  0.4950110000000  0.4321410000000 1.0
C      1  0.5190590000000  0.5383230000000  0.5063700000000 1.0
C      1  0.5182580000000  0.5189570000000  0.5825380000000 1.0
C      1  0.5437160000000  0.4582890000000  0.5625050000000 1.0
C      1  0.4111520000000  0.5021070000000  0.4476200000000 1.0
C      1  0.5712930000000  0.4531150000000  0.5100210000000 1.0
C      1  0.4877610000000  0.5131880000000  0.4308410000000 1.0
C      1  0.5479230000000  0.4333870000000  0.5453460000000 1.0
C      1  0.5064700000000  0.4445040000000  0.4394680000000 1.0
C      1  0.5187690000000  0.5119750000000  0.5530550000000 1.0
C      1  0.4853990000000  0.5690750000000  0.4925460000000 1.0
C      1  0.4843090000000  0.4171600000000  0.4773910000000 1.0
C      1  0.4245420000000  0.5182340000000  0.5289660000000 1.0
C      1  0.5313370000000  0.5789620000000  0.4687570000000 1.0
C      1  0.4373030000000  0.5161540000000  0.4414610000000 1.0
C      1  0.5105150000000  0.5553470000000  0.4329080000000 1.0
C      1  0.5093750000000  0.4926820000000  0.5043090000000 1.0
C      1  0.5235050000000  0.4943290000000  0.4782790000000 1.0
C      1  0.4738200000000  0.5035970000000  0.4877540000000 1.0
C      1  0.3991230000000  0.4956000000000  0.4756910000000 1.0
C      1  0.4366730000000  0.5686010000000  0.5285790000000 1.0
C      1  0.4635080000000  0.4336120000000  0.5235840000000 1.0
C      1  0.5592070000000  0.5077810000000  0.4424880000000 1.0
C      1  0.5016190000000  0.4160000000000  0.5288200000000 1.0
C      1  0.4279470000000  0.5164160000000  0.4990560000000 1.0
C      1  0.5484710000000  0.5027160000000  0.4879900000000 1.0
C      1  0.4663220000000  0.5556550000000  0.4484900000000 1.0
C      1  0.4724750000000  0.5317180000000  0.5687710000000 1.0
C      1  0.5304100000000  0.4654480000000  0.4775070000000 1.0
C      1  0.4949170000000  0.4792820000000  0.4179080000000 1.0
C      1  0.4731730000000  0.4636130000000  0.5534910000000 1.0
C      1  0.4615200000000  0.5002950000000  0.4342480000000 1.0
C      1  0.4848420000000  0.5428810000000  0.4301120000000 1.0
C      1  0.5454610000000  0.5082460000000  0.5850560000000 1.0
C      1  0.5899320000000  0.5036590000000  0.5107050000000 1.0
C      1  0.4112860000000  0.4895800000000  0.5012810000000 1.0
C      1  0.4418350000000  0.4542540000000  0.5244240000000 1.0
C      1  0.5632340000000  0.5336970000000  0.5437560000000 1.0
C      1  0.5590640000000  0.5490380000000  0.4748450000000 1.0
C      1  0.4289190000000  0.5423010000000  0.4824310000000 1.0
C      1  0.4812200000000  0.4141080000000  0.5091570000000 1.0
C      1  0.5435220000000  0.4607030000000  0.5044820000000 1.0
C      1  0.5945090000000  0.4981510000000  0.4823900000000 1.0
C      1  0.4390430000000  0.4716920000000  0.4629530000000 1.0
C      1  0.4909160000000  0.5724480000000  0.5415030000000 1.0
C      1  0.4415180000000  0.5408760000000  0.4561700000000 1.0
C      1  0.4667050000000  0.5130790000000  0.5462310000000 1.0
C      1  0.5485680000000  0.4871550000000  0.5139990000000 1.0
C      1  0.4401920000000  0.5622160000000  0.4998150000000 1.0
C      1  0.5073880000000  0.5707880000000  0.5136630000000 1.0
C      1  0.5104560000000  0.5612940000000  0.5581620000000 1.0
C      1  0.4486350000000  0.4968680000000  0.4825590000000 1.0
C      1  0.5558650000000  0.4614470000000  0.4609490000000 1.0
C      1  0.5099960000000  0.4225870000000  0.4589770000000 1.0
C      1  0.5147210000000  0.5100770000000  0.4479470000000 1.0
C      1  0.5494690000000  0.5739660000000  0.4889790000000 1.0
C      1  0.4932250000000  0.4681500000000  0.5069370000000 1.0
C      1  0.4257740000000  0.4615090000000  0.5028650000000 1.0
C      1  0.5651540000000  0.5125590000000  0.5636490000000 1.0
C      1  0.5202270000000  0.4689280000000  0.4246940000000 1.0
C      1  0.4948650000000  0.4675250000000  0.5708890000000 1.0
C      1  0.4509270000000  0.5505340000000  0.5632860000000 1.0
C      1  0.4954270000000  0.5186900000000  0.5048420000000 1.0
C      1  0.4491660000000  0.4761420000000  0.5443800000000 1.0
C      1  0.4600110000000  0.4306660000000  0.4773470000000 1.0
C      1  0.5461180000000  0.4147770000000  0.4964810000000 1.0
C      1  0.5173900000000  0.4481260000000  0.5693820000000 1.0
END
