TITL C-4164244-2836-404 55.0806786281998 125000 -18561.5195485461 0 0 125 (C1) n - 1
REM
REM in /home/nfs/bkarasulu/CARBON/AIRSS/Generating-Clusters/ReaxFF-fromJPCA2015/Units_Real/with-SteepDescent/Only-C1/SD-CG/Try1-3A/FIRE-CG
REM
REM
REM
REM
REM
REM ./C.cell (11c1c37f851c82e70ff6c80c92926a4b)
REM
REM compiler GCC version 9.2.1 20190827 (Red Hat 9.2.1-1)
REM options -cpp -mtune=generic -march=x86-64 -g -O0 -fpre-include=/usr/include/finclude/math-vector-fortran.h
REM seed 1369675165 -1667533991 -404870727 -1118257640 963101879 -20232880 -734266954 910914407 300836500 238546246 172332792 -1654320332 1729464537 -913436628 -1727692685 1626061136 741999320 616675572 1262780021 1876213830 1654390096 -333640285 1123176012 2121134206 -1343244569 -1847529387 -1980643733 -597334478 -2111039100 259533402 20096549 1498479946 -179565541
REM
CELL 1.54180   50.00000   50.00000   50.00000   90.00000   90.00000   90.00000
LATT -1
SFAC C  
C      1  0.4966470000000  0.5932520000000  0.5067230000000 1.0
C      1  0.4696900000000  0.5323590000000  0.5216200000000 1.0
C      1  0.4621930000000  0.4657210000000  0.5823030000000 1.0
C      1  0.5878200000000  0.5409140000000  0.5037390000000 1.0
C      1  0.4384950000000  0.4413480000000  0.4339150000000 1.0
C      1  0.4519240000000  0.4996740000000  0.4553880000000 1.0
C      1  0.5025340000000  0.4996240000000  0.4460840000000 1.0
C      1  0.4227380000000  0.5312660000000  0.4531760000000 1.0
C      1  0.5005310000000  0.4445310000000  0.4606040000000 1.0
C      1  0.5865280000000  0.4863840000000  0.4957960000000 1.0
C      1  0.4480300000000  0.4738230000000  0.4678090000000 1.0
C      1  0.5101230000000  0.4602110000000  0.5498630000000 1.0
C      1  0.4663710000000  0.4835750000000  0.5359170000000 1.0
C      1  0.5778470000000  0.4455560000000  0.5232560000000 1.0
C      1  0.5110310000000  0.5547630000000  0.5194340000000 1.0
C      1  0.5616720000000  0.4563800000000  0.4490200000000 1.0
C      1  0.4260730000000  0.4542430000000  0.4620430000000 1.0
C      1  0.5024870000000  0.5853230000000  0.4790690000000 1.0
C      1  0.5109750000000  0.5090690000000  0.5497590000000 1.0
C      1  0.4413490000000  0.5809900000000  0.5113740000000 1.0
C      1  0.5150970000000  0.5509830000000  0.5726630000000 1.0
C      1  0.5878910000000  0.4729000000000  0.5243480000000 1.0
C      1  0.5444840000000  0.5475230000000  0.4284020000000 1.0
C      1  0.4494040000000  0.5728080000000  0.4635570000000 1.0
C      1  0.5216400000000  0.5042660000000  0.5999610000000 1.0
C      1  0.4066330000000  0.4735790000000  0.4736130000000 1.0
C      1  0.5012180000000  0.4170840000000  0.5372170000000 1.0
C      1  0.4823150000000  0.4914620000000  0.4837920000000 1.0
C      1  0.4477380000000  0.5327180000000  0.4943340000000 1.0
C      1  0.5498280000000  0.4930900000000  0.4762550000000 1.0
C      1  0.4938590000000  0.5152030000000  0.4015890000000 1.0
C      1  0.5551260000000  0.4809010000000  0.5670680000000 1.0
C      1  0.5507780000000  0.4511590000000  0.5658870000000 1.0
C      1  0.4578950000000  0.4344760000000  0.5282010000000 1.0
C      1  0.4161940000000  0.4646470000000  0.5251450000000 1.0
C      1  0.5441940000000  0.4102570000000  0.4749500000000 1.0
C      1  0.5268520000000  0.5761570000000  0.4647820000000 1.0
C      1  0.4551300000000  0.4587780000000  0.4201190000000 1.0
C      1  0.4964370000000  0.5502820000000  0.4344010000000 1.0
C      1  0.5528890000000  0.5713570000000  0.4787210000000 1.0
C      1  0.4833180000000  0.5054010000000  0.5300020000000 1.0
C      1  0.5220690000000  0.5641580000000  0.4385670000000 1.0
C      1  0.5821480000000  0.4879600000000  0.5480130000000 1.0
C      1  0.4787010000000  0.5726860000000  0.4667530000000 1.0
C      1  0.5021810000000  0.4774810000000  0.4649640000000 1.0
C      1  0.5223040000000  0.4524620000000  0.4179960000000 1.0
C      1  0.4156400000000  0.5148910000000  0.5403130000000 1.0
C      1  0.4685430000000  0.5938610000000  0.5122400000000 1.0
C      1  0.5137360000000  0.5812690000000  0.5319080000000 1.0
C      1  0.5497150000000  0.5019790000000  0.5908220000000 1.0
C      1  0.4642150000000  0.4618700000000  0.5180430000000 1.0
C      1  0.5596000000000  0.4278440000000  0.4553970000000 1.0
C      1  0.4220980000000  0.5233740000000  0.4817900000000 1.0
C      1  0.4402360000000  0.5619460000000  0.4893020000000 1.0
C      1  0.4555130000000  0.5534030000000  0.5714620000000 1.0
C      1  0.4092080000000  0.4980740000000  0.4914670000000 1.0
C      1  0.5601820000000  0.5116850000000  0.4509280000000 1.0
C      1  0.5452530000000  0.4676380000000  0.4273520000000 1.0
C      1  0.4684970000000  0.4153400000000  0.4926640000000 1.0
C      1  0.5450640000000  0.5803840000000  0.5313390000000 1.0
C      1  0.4772000000000  0.4138710000000  0.5205460000000 1.0
C      1  0.4760350000000  0.4745750000000  0.4103330000000 1.0
C      1  0.5038430000000  0.5227320000000  0.5799990000000 1.0
C      1  0.4509280000000  0.5250560000000  0.5777600000000 1.0
C      1  0.5350760000000  0.4123350000000  0.5005860000000 1.0
C      1  0.5058700000000  0.4806980000000  0.6075090000000 1.0
C      1  0.5941310000000  0.5166220000000  0.4886320000000 1.0
C      1  0.4667100000000  0.5197730000000  0.4716190000000 1.0
C      1  0.4641980000000  0.4716590000000  0.4906220000000 1.0
C      1  0.4397590000000  0.4274580000000  0.4900710000000 1.0
C      1  0.4830090000000  0.5003700000000  0.4245020000000 1.0
C      1  0.5258580000000  0.4575280000000  0.5252160000000 1.0
C      1  0.5275790000000  0.4748010000000  0.4779580000000 1.0
C      1  0.5164790000000  0.4961950000000  0.3993610000000 1.0
C      1  0.5547490000000  0.5095800000000  0.5271030000000 1.0
C      1  0.5313200000000  0.5407800000000  0.5104000000000 1.0
C      1  0.4241610000000  0.5700480000000  0.5344030000000 1.0
C      1  0.4372400000000  0.5135680000000  0.4340440000000 1.0
C      1  0.5079410000000  0.4333370000000  0.4359960000000 1.0
C      1  0.4232680000000  0.4479050000000  0.5022030000000 1.0
C      1  0.5451640000000  0.5523790000000  0.5709720000000 1.0
C      1  0.4728470000000  0.5559620000000  0.5464040000000 1.0
C      1  0.4114750000000  0.5436710000000  0.5343500000000 1.0
C      1  0.4707830000000  0.4401020000000  0.5729660000000 1.0
C      1  0.4461500000000  0.5729660000000  0.5530870000000 1.0
C      1  0.5311340000000  0.5242640000000  0.5335790000000 1.0
C      1  0.5819850000000  0.5271680000000  0.4642050000000 1.0
C      1  0.4991250000000  0.4971470000000  0.5057380000000 1.0
C      1  0.5511550000000  0.5282560000000  0.5825980000000 1.0
C      1  0.4904390000000  0.5421540000000  0.5043890000000 1.0
C      1  0.4582060000000  0.4213020000000  0.4346670000000 1.0
C      1  0.4841310000000  0.4125110000000  0.4405310000000 1.0
C      1  0.5678780000000  0.4718760000000  0.4729350000000 1.0
C      1  0.5402180000000  0.5308760000000  0.4519880000000 1.0
C      1  0.4808170000000  0.5446850000000  0.4586260000000 1.0
C      1  0.4995550000000  0.5667680000000  0.5552940000000 1.0
C      1  0.5247030000000  0.4841800000000  0.5580560000000 1.0
C      1  0.4334600000000  0.5085450000000  0.5621270000000 1.0
C      1  0.4775730000000  0.4856580000000  0.5962620000000 1.0
C      1  0.5741460000000  0.4145710000000  0.4764100000000 1.0
C      1  0.4764140000000  0.5137450000000  0.5875060000000 1.0
C      1  0.4804980000000  0.5395380000000  0.4119320000000 1.0
C      1  0.4467910000000  0.4813050000000  0.5582650000000 1.0
C      1  0.4466310000000  0.4367800000000  0.5555660000000 1.0
C      1  0.5048600000000  0.4699620000000  0.4022230000000 1.0
C      1  0.4524490000000  0.5368850000000  0.4232540000000 1.0
C      1  0.5287550000000  0.4159710000000  0.5264980000000 1.0
C      1  0.5842630000000  0.4282100000000  0.5009880000000 1.0
C      1  0.5421360000000  0.4961990000000  0.4163920000000 1.0
C      1  0.5493310000000  0.5660210000000  0.5070340000000 1.0
C      1  0.5607530000000  0.4979830000000  0.5027630000000 1.0
C      1  0.4384970000000  0.5543570000000  0.4425450000000 1.0
C      1  0.5611380000000  0.5616080000000  0.5462840000000 1.0
C      1  0.5156580000000  0.5212420000000  0.4601680000000 1.0
C      1  0.5186920000000  0.4749090000000  0.5049890000000 1.0
C      1  0.4866050000000  0.4205490000000  0.4699560000000 1.0
C      1  0.5491070000000  0.4408640000000  0.5368120000000 1.0
C      1  0.5510440000000  0.5234930000000  0.4143800000000 1.0
C      1  0.5103520000000  0.5245070000000  0.4893890000000 1.0
C      1  0.4284820000000  0.4587600000000  0.5506650000000 1.0
C      1  0.5802990000000  0.5429300000000  0.5327340000000 1.0
C      1  0.4966730000000  0.4357930000000  0.5593540000000 1.0
C      1  0.5763050000000  0.5528010000000  0.4780960000000 1.0
C      1  0.5784190000000  0.5164300000000  0.5449710000000 1.0
C      1  0.4106740000000  0.4928780000000  0.5199720000000 1.0
END
