TITL C-4164238-4211-565 17.1179955531123 125000 -27032.3284174871 0 0 182 (C1) n - 1
REM
REM in /home/nfs/bkarasulu/CARBON/AIRSS/Generating-Clusters/ReaxFF-fromJPCA2015/Units_Real/with-SteepDescent/Only-C1/SD-CG/Try1-3A/FIRE-CG
REM
REM
REM
REM
REM
REM ./C.cell (11c1c37f851c82e70ff6c80c92926a4b)
REM
REM compiler GCC version 9.2.1 20190827 (Red Hat 9.2.1-1)
REM options -cpp -mtune=generic -march=x86-64 -g -O0 -fpre-include=/usr/include/finclude/math-vector-fortran.h
REM seed -1341234263 -958013452 1894880849 1346912095 -1997790681 -1115892089 1146872621 224069006 1782742255 2123083921 -1301788177 -856905722 1097669268 -924210133 -1266952398 1824863151 -1004207223 -899601854 -866889950 -2146307331 1327285994 -1811991895 -1976724188 -2082936629 283895426 -343396531 -1737651388 1035001820 -2139928280 -1496347793 1931078454 1561563035 1603674841
REM
CELL 1.54180   50.00000   50.00000   50.00000   90.00000   90.00000   90.00000
LATT -1
SFAC C  
C      1  0.5268930000000  0.3973020000000  0.5423300000000 1.0
C      1  0.5966430000000  0.5620050000000  0.5008350000000 1.0
C      1  0.5722580000000  0.4169660000000  0.5249190000000 1.0
C      1  0.4215610000000  0.5550390000000  0.4808360000000 1.0
C      1  0.5979800000000  0.5239870000000  0.5380520000000 1.0
C      1  0.4633480000000  0.4531020000000  0.5571930000000 1.0
C      1  0.4371580000000  0.4493750000000  0.5716600000000 1.0
C      1  0.4601990000000  0.4234180000000  0.5470740000000 1.0
C      1  0.5823300000000  0.5729010000000  0.4789780000000 1.0
C      1  0.4984840000000  0.4113200000000  0.5718450000000 1.0
C      1  0.4430400000000  0.4516910000000  0.4231620000000 1.0
C      1  0.5412380000000  0.4400860000000  0.4201580000000 1.0
C      1  0.5520000000000  0.4002100000000  0.5088840000000 1.0
C      1  0.5469050000000  0.5484870000000  0.4845470000000 1.0
C      1  0.5698530000000  0.4319050000000  0.5494870000000 1.0
C      1  0.4187900000000  0.5275280000000  0.4338280000000 1.0
C      1  0.4222940000000  0.5549990000000  0.4305380000000 1.0
C      1  0.5668950000000  0.4284400000000  0.4645580000000 1.0
C      1  0.5221000000000  0.4496150000000  0.4357960000000 1.0
C      1  0.4411680000000  0.5818790000000  0.5317010000000 1.0
C      1  0.4292380000000  0.5989500000000  0.4886220000000 1.0
C      1  0.5607710000000  0.5072650000000  0.4059510000000 1.0
C      1  0.4490970000000  0.5608760000000  0.4742890000000 1.0
C      1  0.4673510000000  0.5209410000000  0.5021010000000 1.0
C      1  0.4881690000000  0.4167430000000  0.5451410000000 1.0
C      1  0.5357130000000  0.4518260000000  0.5847070000000 1.0
C      1  0.5363960000000  0.4765420000000  0.6013200000000 1.0
C      1  0.5951380000000  0.4744220000000  0.5680960000000 1.0
C      1  0.6125830000000  0.4726780000000  0.4956430000000 1.0
C      1  0.5095100000000  0.4900270000000  0.6028020000000 1.0
C      1  0.5565620000000  0.4961000000000  0.5916810000000 1.0
C      1  0.4955600000000  0.5897300000000  0.4956120000000 1.0
C      1  0.4706920000000  0.3935810000000  0.5018480000000 1.0
C      1  0.4109030000000  0.5284960000000  0.5839380000000 1.0
C      1  0.5281120000000  0.4086080000000  0.5678530000000 1.0
C      1  0.4785920000000  0.4514460000000  0.4742780000000 1.0
C      1  0.4715140000000  0.4966730000000  0.4022450000000 1.0
C      1  0.4048490000000  0.4629370000000  0.4860730000000 1.0
C      1  0.4941070000000  0.4639790000000  0.5250860000000 1.0
C      1  0.3935560000000  0.4900350000000  0.4948060000000 1.0
C      1  0.4479350000000  0.4577370000000  0.5130320000000 1.0
C      1  0.4393400000000  0.5740820000000  0.4322640000000 1.0
C      1  0.4882570000000  0.5588220000000  0.6025500000000 1.0
C      1  0.4385190000000  0.5139170000000  0.5440730000000 1.0
C      1  0.4802320000000  0.5569860000000  0.5164610000000 1.0
C      1  0.5198270000000  0.5412540000000  0.4881630000000 1.0
C      1  0.5880190000000  0.5369950000000  0.4407910000000 1.0
C      1  0.4964990000000  0.5647470000000  0.5392990000000 1.0
C      1  0.4024400000000  0.5110050000000  0.4787040000000 1.0
C      1  0.5035310000000  0.4384220000000  0.5314860000000 1.0
C      1  0.4777910000000  0.5044110000000  0.5799950000000 1.0
C      1  0.4146890000000  0.4641090000000  0.5591020000000 1.0
C      1  0.5169820000000  0.5208430000000  0.3791930000000 1.0
C      1  0.4628740000000  0.5452260000000  0.5938930000000 1.0
C      1  0.4267400000000  0.5402490000000  0.5607110000000 1.0
C      1  0.4895640000000  0.4540230000000  0.3935640000000 1.0
C      1  0.5873100000000  0.4867960000000  0.4564480000000 1.0
C      1  0.4813060000000  0.4818320000000  0.5988060000000 1.0
C      1  0.5080810000000  0.6043150000000  0.5439670000000 1.0
C      1  0.5272320000000  0.5339860000000  0.5407860000000 1.0
C      1  0.5358960000000  0.5832820000000  0.4559950000000 1.0
C      1  0.4051560000000  0.5450110000000  0.5391620000000 1.0
C      1  0.5829580000000  0.5500130000000  0.5690720000000 1.0
C      1  0.5140260000000  0.4624960000000  0.5683870000000 1.0
C      1  0.5039970000000  0.5130710000000  0.5873160000000 1.0
C      1  0.4741410000000  0.4490100000000  0.4203660000000 1.0
C      1  0.4329030000000  0.4709730000000  0.4917360000000 1.0
C      1  0.5812600000000  0.4467250000000  0.4820930000000 1.0
C      1  0.4446580000000  0.5008020000000  0.4071670000000 1.0
C      1  0.5220370000000  0.5259550000000  0.4637220000000 1.0
C      1  0.4875710000000  0.4776710000000  0.4840490000000 1.0
C      1  0.4596350000000  0.4395280000000  0.4924310000000 1.0
C      1  0.4453760000000  0.4890980000000  0.4746160000000 1.0
C      1  0.4062540000000  0.5077710000000  0.4507810000000 1.0
C      1  0.4211380000000  0.4929860000000  0.5647140000000 1.0
C      1  0.4950310000000  0.5675370000000  0.4052590000000 1.0
C      1  0.4707970000000  0.6036960000000  0.4919280000000 1.0
C      1  0.5509920000000  0.5775950000000  0.4823290000000 1.0
C      1  0.5090810000000  0.5535110000000  0.6205840000000 1.0
C      1  0.4942000000000  0.5578350000000  0.4889340000000 1.0
C      1  0.5108350000000  0.5731250000000  0.4446010000000 1.0
C      1  0.4677870000000  0.4714000000000  0.5345190000000 1.0
C      1  0.4111870000000  0.4567300000000  0.4557420000000 1.0
C      1  0.4021610000000  0.4646570000000  0.5328040000000 1.0
C      1  0.5375630000000  0.6015170000000  0.5523930000000 1.0
C      1  0.5822810000000  0.5637990000000  0.4513130000000 1.0
C      1  0.6039890000000  0.5522360000000  0.5265100000000 1.0
C      1  0.4820460000000  0.4747460000000  0.4404190000000 1.0
C      1  0.5637250000000  0.4978410000000  0.4776760000000 1.0
C      1  0.4210320000000  0.4210570000000  0.5097220000000 1.0
C      1  0.4117100000000  0.5693650000000  0.5254380000000 1.0
C      1  0.5157020000000  0.5026470000000  0.4745080000000 1.0
C      1  0.4532560000000  0.5907440000000  0.4689890000000 1.0
C      1  0.5759510000000  0.4680170000000  0.4364490000000 1.0
C      1  0.5491080000000  0.4156390000000  0.4839850000000 1.0
C      1  0.5324810000000  0.4427410000000  0.5278340000000 1.0
C      1  0.3918500000000  0.5178560000000  0.5383860000000 1.0
C      1  0.4297340000000  0.5078290000000  0.5911530000000 1.0
C      1  0.6000930000000  0.4647040000000  0.4698040000000 1.0
C      1  0.5139880000000  0.5998390000000  0.5151580000000 1.0
C      1  0.5235220000000  0.5303460000000  0.5744180000000 1.0
C      1  0.5944430000000  0.5237920000000  0.5675590000000 1.0
C      1  0.6098320000000  0.5003280000000  0.4933910000000 1.0
C      1  0.5334480000000  0.4617000000000  0.4869380000000 1.0
C      1  0.5106710000000  0.4707380000000  0.3854250000000 1.0
C      1  0.6052970000000  0.4537800000000  0.5188170000000 1.0
C      1  0.5189410000000  0.5033900000000  0.5026900000000 1.0
C      1  0.5565480000000  0.5720920000000  0.4389910000000 1.0
C      1  0.4111240000000  0.5774480000000  0.4972620000000 1.0
C      1  0.4494320000000  0.5590660000000  0.5728130000000 1.0
C      1  0.5607790000000  0.4801560000000  0.4151660000000 1.0
C      1  0.5361330000000  0.4366500000000  0.4993620000000 1.0
C      1  0.4309980000000  0.4771340000000  0.4186350000000 1.0
C      1  0.5384100000000  0.5809540000000  0.5155900000000 1.0
C      1  0.4656850000000  0.5024480000000  0.5469090000000 1.0
C      1  0.5250310000000  0.4870490000000  0.5533530000000 1.0
C      1  0.4443400000000  0.5222940000000  0.4249730000000 1.0
C      1  0.4673730000000  0.4944450000000  0.4920660000000 1.0
C      1  0.3957960000000  0.5105450000000  0.5664070000000 1.0
C      1  0.5228370000000  0.4488870000000  0.4631440000000 1.0
C      1  0.5526610000000  0.5257320000000  0.5327990000000 1.0
C      1  0.5448730000000  0.5499310000000  0.4241920000000 1.0
C      1  0.5236040000000  0.5602660000000  0.5311860000000 1.0
C      1  0.5495880000000  0.4296710000000  0.5701020000000 1.0
C      1  0.4872980000000  0.4225490000000  0.4285090000000 1.0
C      1  0.4677820000000  0.5237180000000  0.4455870000000 1.0
C      1  0.5999050000000  0.5158830000000  0.4564180000000 1.0
C      1  0.4607570000000  0.5900430000000  0.4383560000000 1.0
C      1  0.5658870000000  0.5445120000000  0.5193330000000 1.0
C      1  0.5400540000000  0.5027070000000  0.4618680000000 1.0
C      1  0.5101920000000  0.5114670000000  0.5294490000000 1.0
C      1  0.5877970000000  0.4575690000000  0.5433100000000 1.0
C      1  0.5157810000000  0.4246950000000  0.4246610000000 1.0
C      1  0.4111930000000  0.4808320000000  0.4402990000000 1.0
C      1  0.4583500000000  0.5818180000000  0.5581530000000 1.0
C      1  0.4519680000000  0.5555510000000  0.5199340000000 1.0
C      1  0.4511970000000  0.4302030000000  0.5906800000000 1.0
C      1  0.4475380000000  0.4167700000000  0.4601860000000 1.0
C      1  0.4947630000000  0.4956930000000  0.4249500000000 1.0
C      1  0.3937960000000  0.4920980000000  0.5228940000000 1.0
C      1  0.4805590000000  0.4278210000000  0.5896410000000 1.0
C      1  0.4174990000000  0.5295190000000  0.4936040000000 1.0
C      1  0.5001800000000  0.4978520000000  0.3726180000000 1.0
C      1  0.5687670000000  0.5306040000000  0.4938320000000 1.0
C      1  0.5006470000000  0.4329580000000  0.4722680000000 1.0
C      1  0.5388440000000  0.4731590000000  0.3964030000000 1.0
C      1  0.4976810000000  0.3913630000000  0.4974420000000 1.0
C      1  0.4476480000000  0.6032920000000  0.5098370000000 1.0
C      1  0.4960340000000  0.4041160000000  0.4702410000000 1.0
C      1  0.6003560000000  0.5248110000000  0.4842570000000 1.0
C      1  0.4882440000000  0.5838490000000  0.4291090000000 1.0
C      1  0.5091870000000  0.4761280000000  0.5028610000000 1.0
C      1  0.4866750000000  0.4572110000000  0.5813330000000 1.0
C      1  0.4381800000000  0.4309910000000  0.5301080000000 1.0
C      1  0.4571770000000  0.5160970000000  0.5970870000000 1.0
C      1  0.4461600000000  0.4131550000000  0.4902160000000 1.0
C      1  0.5853030000000  0.4969740000000  0.5821710000000 1.0
C      1  0.4030500000000  0.4436350000000  0.5115890000000 1.0
C      1  0.4819130000000  0.5169840000000  0.5275900000000 1.0
C      1  0.5794680000000  0.5647750000000  0.5409430000000 1.0
C      1  0.5250900000000  0.3908080000000  0.5160660000000 1.0
C      1  0.5742440000000  0.5076140000000  0.5317260000000 1.0
C      1  0.5675340000000  0.4789860000000  0.5247720000000 1.0
C      1  0.5377900000000  0.5023260000000  0.3890550000000 1.0
C      1  0.4727130000000  0.4997730000000  0.3784460000000 1.0
C      1  0.5668610000000  0.5318460000000  0.4204570000000 1.0
C      1  0.5584330000000  0.5885600000000  0.5369700000000 1.0
C      1  0.4943220000000  0.5235000000000  0.4321830000000 1.0
C      1  0.5166080000000  0.5442980000000  0.4346780000000 1.0
C      1  0.4314870000000  0.4381770000000  0.4462120000000 1.0
C      1  0.4704410000000  0.5417640000000  0.4753120000000 1.0
C      1  0.4869120000000  0.5872100000000  0.5559050000000 1.0
C      1  0.5169830000000  0.5538420000000  0.5942430000000 1.0
C      1  0.4382770000000  0.5278050000000  0.5155170000000 1.0
C      1  0.5063420000000  0.5463390000000  0.3889240000000 1.0
C      1  0.5910180000000  0.4320110000000  0.5081550000000 1.0
C      1  0.5421930000000  0.4688000000000  0.5365320000000 1.0
C      1  0.4740320000000  0.4086940000000  0.4503290000000 1.0
C      1  0.5404190000000  0.5065980000000  0.5704240000000 1.0
C      1  0.5640220000000  0.4419050000000  0.4394200000000 1.0
C      1  0.5614650000000  0.4728420000000  0.4932370000000 1.0
C      1  0.4633160000000  0.4931310000000  0.4517090000000 1.0
END
