TITL C-4164238-4211-305 -23.0708914743557 125000 -16552.6282952924 0 0 112 (C1) n - 1
REM
REM in /home/nfs/bkarasulu/CARBON/AIRSS/Generating-Clusters/ReaxFF-fromJPCA2015/Units_Real/with-SteepDescent/Only-C1/SD-CG/Try1-3A/FIRE-CG
REM
REM
REM
REM
REM
REM ./C.cell (11c1c37f851c82e70ff6c80c92926a4b)
REM
REM compiler GCC version 9.2.1 20190827 (Red Hat 9.2.1-1)
REM options -cpp -mtune=generic -march=x86-64 -g -O0 -fpre-include=/usr/include/finclude/math-vector-fortran.h
REM seed -616460394 585578312 -1343670099 -1040974564 650204771 202379765 806512460 -1947329772 -376800314 -1387305052 -718158559 -672142321 -1932497616 -833683964 1355214207 1464638824 1309481917 -748641545 620647379 459157539 -651815742 -1307824992 1319184524 -674621185 -259296874 1016818889 -280984245 -846957480 1251922111 900441436 2018536872 1250057558 -379204644
REM
CELL 1.54180   50.00000   50.00000   50.00000   90.00000   90.00000   90.00000
LATT -1
SFAC C  
C      1  0.5120120000000  0.4161240000000  0.5213220000000 1.0
C      1  0.5364260000000  0.4334660000000  0.4447800000000 1.0
C      1  0.4398530000000  0.4777250000000  0.5557110000000 1.0
C      1  0.4517640000000  0.4283210000000  0.5220260000000 1.0
C      1  0.5174970000000  0.5279250000000  0.4460620000000 1.0
C      1  0.5052990000000  0.5830500000000  0.4602000000000 1.0
C      1  0.4663940000000  0.4080330000000  0.5034430000000 1.0
C      1  0.4451930000000  0.5571380000000  0.4415490000000 1.0
C      1  0.5858730000000  0.5184450000000  0.5416520000000 1.0
C      1  0.5367480000000  0.4871190000000  0.5556640000000 1.0
C      1  0.4764510000000  0.5117080000000  0.4635160000000 1.0
C      1  0.5682750000000  0.4535050000000  0.4688530000000 1.0
C      1  0.4804680000000  0.5723150000000  0.5175270000000 1.0
C      1  0.4748690000000  0.5213710000000  0.5082190000000 1.0
C      1  0.5402220000000  0.5624270000000  0.4703410000000 1.0
C      1  0.4443060000000  0.5766790000000  0.4584290000000 1.0
C      1  0.5305370000000  0.5778530000000  0.5331770000000 1.0
C      1  0.4564310000000  0.4390100000000  0.4697160000000 1.0
C      1  0.5478860000000  0.4541120000000  0.4296130000000 1.0
C      1  0.4980080000000  0.5308090000000  0.4668560000000 1.0
C      1  0.4654720000000  0.5678450000000  0.5457150000000 1.0
C      1  0.5728290000000  0.4950830000000  0.4462230000000 1.0
C      1  0.4217170000000  0.4720780000000  0.4641070000000 1.0
C      1  0.5578340000000  0.5183570000000  0.5835230000000 1.0
C      1  0.4475700000000  0.5331440000000  0.4265720000000 1.0
C      1  0.5062580000000  0.5388970000000  0.5508630000000 1.0
C      1  0.6145820000000  0.5258120000000  0.4973750000000 1.0
C      1  0.4677600000000  0.4335600000000  0.5436520000000 1.0
C      1  0.5612510000000  0.5337120000000  0.5400580000000 1.0
C      1  0.5075500000000  0.4293920000000  0.4449160000000 1.0
C      1  0.4953100000000  0.4535250000000  0.4316210000000 1.0
C      1  0.4866860000000  0.4373360000000  0.5620790000000 1.0
C      1  0.4317180000000  0.4850430000000  0.4391710000000 1.0
C      1  0.4530860000000  0.4078430000000  0.4781980000000 1.0
C      1  0.4324460000000  0.4518530000000  0.4824590000000 1.0
C      1  0.4622870000000  0.5022910000000  0.5911800000000 1.0
C      1  0.4569820000000  0.4779900000000  0.4265160000000 1.0
C      1  0.5771590000000  0.4881020000000  0.5018220000000 1.0
C      1  0.4696340000000  0.4591620000000  0.4447530000000 1.0
C      1  0.5776060000000  0.4806840000000  0.4709220000000 1.0
C      1  0.5158430000000  0.5647840000000  0.5526510000000 1.0
C      1  0.4653110000000  0.5709170000000  0.4933350000000 1.0
C      1  0.4396380000000  0.5697750000000  0.5358000000000 1.0
C      1  0.4348520000000  0.5279380000000  0.5626520000000 1.0
C      1  0.4899650000000  0.5689710000000  0.4394260000000 1.0
C      1  0.4751740000000  0.4731080000000  0.5192970000000 1.0
C      1  0.4847150000000  0.4396430000000  0.4821400000000 1.0
C      1  0.5032570000000  0.4734440000000  0.5944350000000 1.0
C      1  0.5285960000000  0.5189770000000  0.5891320000000 1.0
C      1  0.5219240000000  0.5786280000000  0.4841450000000 1.0
C      1  0.5454620000000  0.5265340000000  0.4902240000000 1.0
C      1  0.5045770000000  0.4754740000000  0.4735570000000 1.0
C      1  0.4329900000000  0.4494960000000  0.5120430000000 1.0
C      1  0.5630270000000  0.5223090000000  0.4411960000000 1.0
C      1  0.4775940000000  0.5262800000000  0.5784820000000 1.0
C      1  0.4774330000000  0.4835800000000  0.4700120000000 1.0
C      1  0.4605470000000  0.5247550000000  0.4836250000000 1.0
C      1  0.4674010000000  0.4811160000000  0.5471730000000 1.0
C      1  0.4572570000000  0.5468960000000  0.5652110000000 1.0
C      1  0.5648870000000  0.4279790000000  0.4841110000000 1.0
C      1  0.5452110000000  0.5226410000000  0.4176680000000 1.0
C      1  0.5165270000000  0.5181000000000  0.4871790000000 1.0
C      1  0.4937680000000  0.5471950000000  0.4196520000000 1.0
C      1  0.5409510000000  0.5094430000000  0.5331520000000 1.0
C      1  0.4235830000000  0.5531890000000  0.5204530000000 1.0
C      1  0.5095130000000  0.5765900000000  0.5129180000000 1.0
C      1  0.4288730000000  0.5249870000000  0.5326790000000 1.0
C      1  0.4197900000000  0.4976490000000  0.5200110000000 1.0
C      1  0.4844360000000  0.5620640000000  0.4681490000000 1.0
C      1  0.5326720000000  0.4913370000000  0.4188350000000 1.0
C      1  0.4758210000000  0.4775440000000  0.5980650000000 1.0
C      1  0.4795100000000  0.4954860000000  0.4167010000000 1.0
C      1  0.5563700000000  0.5393980000000  0.4661160000000 1.0
C      1  0.5018650000000  0.5080470000000  0.5109890000000 1.0
C      1  0.5157910000000  0.5193960000000  0.5314870000000 1.0
C      1  0.5028950000000  0.4786370000000  0.4184230000000 1.0
C      1  0.5092630000000  0.4557240000000  0.4909860000000 1.0
C      1  0.4745790000000  0.5251380000000  0.4178480000000 1.0
C      1  0.5765860000000  0.5029830000000  0.5665870000000 1.0
C      1  0.5782750000000  0.5608230000000  0.5141500000000 1.0
C      1  0.4277020000000  0.5139130000000  0.4379410000000 1.0
C      1  0.4757990000000  0.5085770000000  0.5520830000000 1.0
C      1  0.5574960000000  0.5610700000000  0.5306650000000 1.0
C      1  0.5229790000000  0.5413760000000  0.4208890000000 1.0
C      1  0.5068560000000  0.5372370000000  0.5804230000000 1.0
C      1  0.4253290000000  0.4713900000000  0.5307740000000 1.0
C      1  0.4976850000000  0.4054540000000  0.4996200000000 1.0
C      1  0.5207630000000  0.4916780000000  0.5794330000000 1.0
C      1  0.5770590000000  0.4608600000000  0.5199260000000 1.0
C      1  0.5640610000000  0.4518220000000  0.5458430000000 1.0
C      1  0.4162010000000  0.5209130000000  0.4636300000000 1.0
C      1  0.4140130000000  0.4956150000000  0.4794790000000 1.0
C      1  0.5277680000000  0.5018330000000  0.4479120000000 1.0
C      1  0.5963110000000  0.5086210000000  0.5160010000000 1.0
C      1  0.5969310000000  0.5480620000000  0.5037920000000 1.0
C      1  0.4859510000000  0.4532690000000  0.5863380000000 1.0
C      1  0.4347710000000  0.4929180000000  0.4981710000000 1.0
C      1  0.4978480000000  0.4171820000000  0.4699070000000 1.0
C      1  0.5030220000000  0.4748030000000  0.5130260000000 1.0
C      1  0.4610570000000  0.5219760000000  0.5308430000000 1.0
C      1  0.5624420000000  0.4767840000000  0.5630400000000 1.0
C      1  0.5498330000000  0.5014310000000  0.5037290000000 1.0
C      1  0.4357790000000  0.5627020000000  0.4947900000000 1.0
C      1  0.5393080000000  0.4370090000000  0.5430730000000 1.0
C      1  0.5596880000000  0.4778870000000  0.4242240000000 1.0
C      1  0.4344040000000  0.5370160000000  0.4793510000000 1.0
C      1  0.5727620000000  0.4379740000000  0.5083250000000 1.0
C      1  0.5143800000000  0.4265680000000  0.5468450000000 1.0
C      1  0.4384560000000  0.5010450000000  0.5743160000000 1.0
C      1  0.4607870000000  0.4816960000000  0.4958550000000 1.0
C      1  0.5405380000000  0.4422800000000  0.4737690000000 1.0
C      1  0.5250370000000  0.4932230000000  0.4749110000000 1.0
END
