TITL C-4164238-4211-691 8.91230125059693 125000 -28861.9384372903 0 0 193 (C1) n - 1
REM
REM in /home/nfs/bkarasulu/CARBON/AIRSS/Generating-Clusters/ReaxFF-fromJPCA2015/Units_Real/with-SteepDescent/Only-C1/SD-CG/Try1-3A/FIRE-CG
REM
REM
REM
REM
REM
REM ./C.cell (11c1c37f851c82e70ff6c80c92926a4b)
REM
REM compiler GCC version 9.2.1 20190827 (Red Hat 9.2.1-1)
REM options -cpp -mtune=generic -march=x86-64 -g -O0 -fpre-include=/usr/include/finclude/math-vector-fortran.h
REM seed -2142947348 -188944159 1069284289 576195366 -2144108139 1148701529 222831701 1180770144 -1323129906 1713026615 524789253 -1016293821 -1313531665 -1340277347 -1122319363 1079478597 -400926056 -222230250 1206005369 -601989169 726657603 1096277490 -1180908024 1219443099 -2075199188 -727739495 -1096616831 581892833 2047800766 1747656335 1080441474 1567549655 -1914476961
REM
CELL 1.54180   50.00000   50.00000   50.00000   90.00000   90.00000   90.00000
LATT -1
SFAC C  
C      1  0.4605370000000  0.5870760000000  0.5778630000000 1.0
C      1  0.5984600000000  0.4546250000000  0.5493710000000 1.0
C      1  0.3771210000000  0.5124080000000  0.5073660000000 1.0
C      1  0.4687020000000  0.4162420000000  0.5752870000000 1.0
C      1  0.5990930000000  0.5522830000000  0.4951810000000 1.0
C      1  0.5416820000000  0.6152150000000  0.5255300000000 1.0
C      1  0.4269800000000  0.5033300000000  0.3831800000000 1.0
C      1  0.3997140000000  0.4437420000000  0.5084990000000 1.0
C      1  0.4913810000000  0.4634720000000  0.4566160000000 1.0
C      1  0.4095490000000  0.5388580000000  0.5702080000000 1.0
C      1  0.4584830000000  0.4894190000000  0.4355120000000 1.0
C      1  0.4376670000000  0.4842950000000  0.4567390000000 1.0
C      1  0.5244100000000  0.4935720000000  0.6053580000000 1.0
C      1  0.5293600000000  0.5116860000000  0.4990340000000 1.0
C      1  0.4174840000000  0.5391900000000  0.4426510000000 1.0
C      1  0.5163890000000  0.4712590000000  0.4509380000000 1.0
C      1  0.4437090000000  0.5624980000000  0.4832520000000 1.0
C      1  0.4228370000000  0.5047430000000  0.4733360000000 1.0
C      1  0.5347820000000  0.3884780000000  0.4722460000000 1.0
C      1  0.4519990000000  0.5607490000000  0.4178820000000 1.0
C      1  0.4821200000000  0.5936720000000  0.5602530000000 1.0
C      1  0.5432320000000  0.5371700000000  0.5915910000000 1.0
C      1  0.5536820000000  0.5095970000000  0.4786980000000 1.0
C      1  0.4823250000000  0.4382650000000  0.4487060000000 1.0
C      1  0.5744530000000  0.5054620000000  0.5421290000000 1.0
C      1  0.4364770000000  0.5968120000000  0.5060900000000 1.0
C      1  0.5305490000000  0.4357810000000  0.5098410000000 1.0
C      1  0.4175340000000  0.4422920000000  0.4488980000000 1.0
C      1  0.5148910000000  0.5445010000000  0.4368720000000 1.0
C      1  0.5076280000000  0.5255390000000  0.4838050000000 1.0
C      1  0.4661400000000  0.5967640000000  0.5376270000000 1.0
C      1  0.5012850000000  0.4387390000000  0.5084370000000 1.0
C      1  0.4436360000000  0.4582240000000  0.5397840000000 1.0
C      1  0.5629220000000  0.4077100000000  0.5065850000000 1.0
C      1  0.5032840000000  0.5178130000000  0.4285610000000 1.0
C      1  0.5458650000000  0.4521050000000  0.4918450000000 1.0
C      1  0.4830140000000  0.4655990000000  0.5461130000000 1.0
C      1  0.5321150000000  0.5342160000000  0.3810860000000 1.0
C      1  0.4348160000000  0.5435290000000  0.5096130000000 1.0
C      1  0.4372200000000  0.4185900000000  0.5101780000000 1.0
C      1  0.3944720000000  0.4848060000000  0.5520280000000 1.0
C      1  0.4566830000000  0.5901860000000  0.4881080000000 1.0
C      1  0.4205280000000  0.5595330000000  0.4633560000000 1.0
C      1  0.4908130000000  0.5651780000000  0.4632720000000 1.0
C      1  0.6098180000000  0.5275420000000  0.5687870000000 1.0
C      1  0.4140060000000  0.4748180000000  0.5692480000000 1.0
C      1  0.5692760000000  0.5534320000000  0.5534170000000 1.0
C      1  0.4127420000000  0.4217670000000  0.5251280000000 1.0
C      1  0.5796080000000  0.5747160000000  0.5021520000000 1.0
C      1  0.4918170000000  0.5472880000000  0.5643870000000 1.0
C      1  0.4648640000000  0.4881920000000  0.5835600000000 1.0
C      1  0.4654020000000  0.4338820000000  0.4261200000000 1.0
C      1  0.5342700000000  0.4192750000000  0.5556670000000 1.0
C      1  0.5268280000000  0.5637830000000  0.4203740000000 1.0
C      1  0.5636050000000  0.5868540000000  0.4535820000000 1.0
C      1  0.4557950000000  0.4420180000000  0.5180330000000 1.0
C      1  0.4517220000000  0.4915500000000  0.5114560000000 1.0
C      1  0.4273280000000  0.4494860000000  0.5619820000000 1.0
C      1  0.4797880000000  0.5270770000000  0.5209010000000 1.0
C      1  0.5748950000000  0.4871410000000  0.5844690000000 1.0
C      1  0.4348730000000  0.4653750000000  0.4791720000000 1.0
C      1  0.4391020000000  0.4242820000000  0.4410640000000 1.0
C      1  0.4824580000000  0.4392990000000  0.5322210000000 1.0
C      1  0.4874270000000  0.5426210000000  0.4991780000000 1.0
C      1  0.4860830000000  0.4376660000000  0.5853450000000 1.0
C      1  0.4892700000000  0.4981850000000  0.5715720000000 1.0
C      1  0.5038530000000  0.5229080000000  0.5674970000000 1.0
C      1  0.4336220000000  0.5078420000000  0.5465770000000 1.0
C      1  0.5663700000000  0.5098170000000  0.4087820000000 1.0
C      1  0.4909210000000  0.5648920000000  0.5139450000000 1.0
C      1  0.5824590000000  0.5387310000000  0.4358950000000 1.0
C      1  0.5551110000000  0.4700640000000  0.5124790000000 1.0
C      1  0.4603100000000  0.5680530000000  0.6028100000000 1.0
C      1  0.5366540000000  0.4090520000000  0.5237120000000 1.0
C      1  0.5492150000000  0.4989350000000  0.4522740000000 1.0
C      1  0.3972700000000  0.4599320000000  0.4592620000000 1.0
C      1  0.5516930000000  0.5955650000000  0.5459390000000 1.0
C      1  0.5849660000000  0.4250540000000  0.5130980000000 1.0
C      1  0.4907050000000  0.3881620000000  0.5356370000000 1.0
C      1  0.4687930000000  0.5489910000000  0.4731060000000 1.0
C      1  0.5107380000000  0.4235370000000  0.5721050000000 1.0
C      1  0.4167980000000  0.4672730000000  0.5023250000000 1.0
C      1  0.5829800000000  0.4615340000000  0.5743550000000 1.0
C      1  0.5932190000000  0.4393850000000  0.4653070000000 1.0
C      1  0.5615960000000  0.4260040000000  0.5605660000000 1.0
C      1  0.4866190000000  0.5057370000000  0.4774040000000 1.0
C      1  0.4702600000000  0.5783060000000  0.4182390000000 1.0
C      1  0.4981220000000  0.6145210000000  0.4689210000000 1.0
C      1  0.5582000000000  0.5850980000000  0.4829440000000 1.0
C      1  0.5777800000000  0.4867480000000  0.5211630000000 1.0
C      1  0.4771280000000  0.4510250000000  0.4058290000000 1.0
C      1  0.4972370000000  0.4272390000000  0.4862020000000 1.0
C      1  0.3963520000000  0.5443710000000  0.4641090000000 1.0
C      1  0.5057080000000  0.4722880000000  0.6001010000000 1.0
C      1  0.5526680000000  0.5612200000000  0.5783570000000 1.0
C      1  0.5366640000000  0.5822830000000  0.5670760000000 1.0
C      1  0.4488160000000  0.3921960000000  0.5082490000000 1.0
C      1  0.5345590000000  0.6062060000000  0.4982250000000 1.0
C      1  0.4195580000000  0.5633000000000  0.5574090000000 1.0
C      1  0.4233840000000  0.4217960000000  0.5524860000000 1.0
C      1  0.4861010000000  0.3802120000000  0.4848780000000 1.0
C      1  0.5647270000000  0.5741150000000  0.5287320000000 1.0
C      1  0.4819860000000  0.5922300000000  0.4553440000000 1.0
C      1  0.5156520000000  0.5496480000000  0.4657310000000 1.0
C      1  0.4224210000000  0.5666340000000  0.5285910000000 1.0
C      1  0.3806660000000  0.5299020000000  0.4845700000000 1.0
C      1  0.6047460000000  0.5246550000000  0.4843080000000 1.0
C      1  0.4534180000000  0.5307400000000  0.5345070000000 1.0
C      1  0.4744150000000  0.5130500000000  0.4375930000000 1.0
C      1  0.6072280000000  0.4968590000000  0.4790290000000 1.0
C      1  0.5220550000000  0.4974620000000  0.4426300000000 1.0
C      1  0.5589650000000  0.4510130000000  0.4200080000000 1.0
C      1  0.4671940000000  0.5213960000000  0.4641180000000 1.0
C      1  0.4639010000000  0.4774080000000  0.4086420000000 1.0
C      1  0.5609150000000  0.4244340000000  0.4331480000000 1.0
C      1  0.4592870000000  0.4670890000000  0.4945310000000 1.0
C      1  0.5250610000000  0.5232540000000  0.6108350000000 1.0
C      1  0.5134190000000  0.5676150000000  0.5286830000000 1.0
C      1  0.4960080000000  0.5128070000000  0.3940230000000 1.0
C      1  0.5454650000000  0.4888360000000  0.3980140000000 1.0
C      1  0.4806140000000  0.5914200000000  0.5084010000000 1.0
C      1  0.5054370000000  0.6081760000000  0.4961230000000 1.0
C      1  0.4955010000000  0.5050750000000  0.5277880000000 1.0
C      1  0.5202500000000  0.5904270000000  0.4252130000000 1.0
C      1  0.4898700000000  0.4132630000000  0.5532350000000 1.0
C      1  0.4420040000000  0.5186640000000  0.3966320000000 1.0
C      1  0.5380280000000  0.4606540000000  0.4029740000000 1.0
C      1  0.5609810000000  0.4704440000000  0.4450320000000 1.0
C      1  0.6036100000000  0.4735230000000  0.5270210000000 1.0
C      1  0.4668800000000  0.5012950000000  0.3920320000000 1.0
C      1  0.5082060000000  0.5742350000000  0.5571080000000 1.0
C      1  0.5559070000000  0.4507960000000  0.5739310000000 1.0
C      1  0.5900980000000  0.4650890000000  0.4505460000000 1.0
C      1  0.5192960000000  0.4958590000000  0.3923460000000 1.0
C      1  0.4816870000000  0.5537560000000  0.6147210000000 1.0
C      1  0.5546100000000  0.5252320000000  0.5442260000000 1.0
C      1  0.5980520000000  0.5454760000000  0.5477120000000 1.0
C      1  0.3981030000000  0.4900810000000  0.4683630000000 1.0
C      1  0.5193090000000  0.4939180000000  0.5184740000000 1.0
C      1  0.6088330000000  0.4705840000000  0.4987470000000 1.0
C      1  0.5996080000000  0.4918630000000  0.4517550000000 1.0
C      1  0.5730040000000  0.5655080000000  0.4354180000000 1.0
C      1  0.5914720000000  0.5394920000000  0.5195690000000 1.0
C      1  0.5134670000000  0.3774090000000  0.4911220000000 1.0
C      1  0.5137510000000  0.3883970000000  0.5185510000000 1.0
C      1  0.5426300000000  0.6031960000000  0.4407800000000 1.0
C      1  0.4586800000000  0.3857420000000  0.4797200000000 1.0
C      1  0.4614050000000  0.3901010000000  0.5344380000000 1.0
C      1  0.5536640000000  0.5588790000000  0.4136910000000 1.0
C      1  0.4074440000000  0.5226790000000  0.5458410000000 1.0
C      1  0.4736770000000  0.4889150000000  0.5319020000000 1.0
C      1  0.4343880000000  0.5162540000000  0.4980620000000 1.0
C      1  0.5349580000000  0.4759320000000  0.5322600000000 1.0
C      1  0.5753730000000  0.4175660000000  0.4579240000000 1.0
C      1  0.4909300000000  0.5948920000000  0.4271590000000 1.0
C      1  0.5083000000000  0.4477870000000  0.3985070000000 1.0
C      1  0.3768940000000  0.5017410000000  0.4816650000000 1.0
C      1  0.5361600000000  0.5195990000000  0.5688100000000 1.0
C      1  0.4329470000000  0.5424180000000  0.4180430000000 1.0
C      1  0.3850100000000  0.5057440000000  0.5355410000000 1.0
C      1  0.4356150000000  0.5930220000000  0.5336510000000 1.0
C      1  0.4934320000000  0.4151730000000  0.4626750000000 1.0
C      1  0.4364580000000  0.4973160000000  0.5759950000000 1.0
C      1  0.4830330000000  0.4769760000000  0.4791110000000 1.0
C      1  0.5046320000000  0.4727540000000  0.5665610000000 1.0
C      1  0.4310500000000  0.4803800000000  0.5266480000000 1.0
C      1  0.5910270000000  0.5039370000000  0.5664540000000 1.0
C      1  0.4473800000000  0.4035400000000  0.4590670000000 1.0
C      1  0.5042710000000  0.4250220000000  0.3891810000000 1.0
C      1  0.5440870000000  0.5312640000000  0.5170000000000 1.0
C      1  0.5344970000000  0.4273760000000  0.4446720000000 1.0
C      1  0.3926530000000  0.4421490000000  0.4811180000000 1.0
C      1  0.4637240000000  0.5475850000000  0.5567260000000 1.0
C      1  0.4485580000000  0.4068610000000  0.5559580000000 1.0
C      1  0.5440420000000  0.4920930000000  0.5821690000000 1.0
C      1  0.5990990000000  0.4437770000000  0.4933090000000 1.0
C      1  0.4465620000000  0.5672290000000  0.5643010000000 1.0
C      1  0.5605220000000  0.4013930000000  0.4784670000000 1.0
C      1  0.5246020000000  0.6145130000000  0.4592140000000 1.0
C      1  0.5024880000000  0.5392630000000  0.6145560000000 1.0
C      1  0.4780000000000  0.4646910000000  0.5966260000000 1.0
C      1  0.5429330000000  0.5572590000000  0.4848990000000 1.0
C      1  0.5370420000000  0.5600150000000  0.5160150000000 1.0
C      1  0.5068560000000  0.5347470000000  0.3703730000000 1.0
C      1  0.4455560000000  0.5443320000000  0.6000270000000 1.0
C      1  0.4279750000000  0.5260140000000  0.5890170000000 1.0
C      1  0.5852980000000  0.4306090000000  0.5414780000000 1.0
C      1  0.5617490000000  0.5342260000000  0.4923270000000 1.0
C      1  0.5561070000000  0.5343040000000  0.3972270000000 1.0
C      1  0.5201020000000  0.4039360000000  0.4532050000000 1.0
C      1  0.5861750000000  0.5121700000000  0.4306010000000 1.0
C      1  0.5383570000000  0.4540150000000  0.4613600000000 1.0
C      1  0.5341210000000  0.4710870000000  0.5609930000000 1.0
END
