TITL C-4164234-2335-317 7.70450937328235 125000 -16583.8086995476 0 0 112 (C1) n - 1
REM
REM in /home/nfs/bkarasulu/CARBON/AIRSS/Generating-Clusters/ReaxFF-fromJPCA2015/Units_Real/with-SteepDescent/Only-C1/SD-CG/Try1-3A/FIRE-CG
REM
REM
REM
REM
REM
REM ./C.cell (11c1c37f851c82e70ff6c80c92926a4b)
REM
REM compiler GCC version 9.2.1 20190827 (Red Hat 9.2.1-1)
REM options -cpp -mtune=generic -march=x86-64 -g -O0 -fpre-include=/usr/include/finclude/math-vector-fortran.h
REM seed -719869927 1971016610 -1387060954 -439521984 -662943830 -1659219441 1957296353 2018513488 1629606548 -1982462083 164161108 -1013726646 714448252 1151144340 -1266312071 1048574847 362639727 1503306714 785866802 -903478808 1763333809 -1052286278 1478756163 -354253875 1340085506 806322990 735907000 -1961129166 680365194 2055453264 28154493 -568351172 -1304526879
REM
CELL 1.54180   50.00000   50.00000   50.00000   90.00000   90.00000   90.00000
LATT -1
SFAC C  
C      1  0.5223500000000  0.4830320000000  0.5824210000000 1.0
C      1  0.5793160000000  0.5618290000000  0.4862220000000 1.0
C      1  0.4322320000000  0.4669200000000  0.4921770000000 1.0
C      1  0.5116680000000  0.4536580000000  0.5798140000000 1.0
C      1  0.5249520000000  0.5265290000000  0.4822900000000 1.0
C      1  0.4661590000000  0.4339720000000  0.4364990000000 1.0
C      1  0.4839420000000  0.5856090000000  0.4674890000000 1.0
C      1  0.5158990000000  0.3997230000000  0.4842990000000 1.0
C      1  0.4607640000000  0.4596380000000  0.4964240000000 1.0
C      1  0.4219650000000  0.4662280000000  0.5411630000000 1.0
C      1  0.5553690000000  0.5400350000000  0.5612490000000 1.0
C      1  0.5429340000000  0.4378930000000  0.4815630000000 1.0
C      1  0.5260490000000  0.4829600000000  0.4270560000000 1.0
C      1  0.4897240000000  0.5593430000000  0.4283570000000 1.0
C      1  0.5353240000000  0.4407150000000  0.4315540000000 1.0
C      1  0.5650820000000  0.4891140000000  0.4385250000000 1.0
C      1  0.5213020000000  0.5698810000000  0.5124510000000 1.0
C      1  0.5721460000000  0.4891360000000  0.5400610000000 1.0
C      1  0.5063150000000  0.4085220000000  0.4599860000000 1.0
C      1  0.4732750000000  0.5022390000000  0.4886160000000 1.0
C      1  0.5657690000000  0.4609580000000  0.5417520000000 1.0
C      1  0.5259980000000  0.5222340000000  0.5392400000000 1.0
C      1  0.4128750000000  0.5449410000000  0.4591150000000 1.0
C      1  0.5107290000000  0.5013880000000  0.5259560000000 1.0
C      1  0.4092310000000  0.5072370000000  0.5264320000000 1.0
C      1  0.4829900000000  0.5589710000000  0.4816130000000 1.0
C      1  0.4692260000000  0.4867810000000  0.5304950000000 1.0
C      1  0.5827460000000  0.4941750000000  0.5131390000000 1.0
C      1  0.4887510000000  0.4452030000000  0.4247980000000 1.0
C      1  0.5092470000000  0.5929520000000  0.4783190000000 1.0
C      1  0.4990160000000  0.5003990000000  0.5760680000000 1.0
C      1  0.4377650000000  0.5077700000000  0.5656390000000 1.0
C      1  0.4603490000000  0.5140930000000  0.4114470000000 1.0
C      1  0.4764180000000  0.4140690000000  0.4564350000000 1.0
C      1  0.4374230000000  0.5128860000000  0.4269600000000 1.0
C      1  0.4433660000000  0.4480470000000  0.5508110000000 1.0
C      1  0.4444870000000  0.4965920000000  0.4497580000000 1.0
C      1  0.4493230000000  0.5599380000000  0.5504360000000 1.0
C      1  0.5673410000000  0.4505980000000  0.4935450000000 1.0
C      1  0.4926260000000  0.5166760000000  0.4473810000000 1.0
C      1  0.5908500000000  0.5197680000000  0.5009450000000 1.0
C      1  0.5176400000000  0.4858400000000  0.4549860000000 1.0
C      1  0.5306520000000  0.4857610000000  0.5099560000000 1.0
C      1  0.4735910000000  0.5789090000000  0.4394860000000 1.0
C      1  0.4920150000000  0.5157090000000  0.5101830000000 1.0
C      1  0.5644940000000  0.5511560000000  0.5310560000000 1.0
C      1  0.5771220000000  0.4770550000000  0.4898200000000 1.0
C      1  0.5491990000000  0.4397600000000  0.5553240000000 1.0
C      1  0.4768950000000  0.5694610000000  0.5551430000000 1.0
C      1  0.5492720000000  0.5746760000000  0.5181280000000 1.0
C      1  0.4795740000000  0.5130890000000  0.5939140000000 1.0
C      1  0.4480660000000  0.5312140000000  0.5476450000000 1.0
C      1  0.5359620000000  0.5338570000000  0.4313930000000 1.0
C      1  0.5040360000000  0.4480000000000  0.5154960000000 1.0
C      1  0.5482370000000  0.5269380000000  0.5233660000000 1.0
C      1  0.5476030000000  0.5516390000000  0.4499250000000 1.0
C      1  0.4254200000000  0.5327920000000  0.5316360000000 1.0
C      1  0.4524460000000  0.5586980000000  0.4451240000000 1.0
C      1  0.4777410000000  0.4608440000000  0.5200480000000 1.0
C      1  0.4792310000000  0.5582520000000  0.5117720000000 1.0
C      1  0.5135150000000  0.5111620000000  0.4625610000000 1.0
C      1  0.4786700000000  0.4747410000000  0.4807390000000 1.0
C      1  0.5171480000000  0.4505400000000  0.4909380000000 1.0
C      1  0.5042020000000  0.4669020000000  0.4721090000000 1.0
C      1  0.4310110000000  0.5191080000000  0.5077330000000 1.0
C      1  0.4998010000000  0.5565370000000  0.5692840000000 1.0
C      1  0.4597720000000  0.4594520000000  0.5719010000000 1.0
C      1  0.4852540000000  0.4518360000000  0.5739740000000 1.0
C      1  0.5559980000000  0.5790810000000  0.4905350000000 1.0
C      1  0.4672700000000  0.5156320000000  0.4618240000000 1.0
C      1  0.4475310000000  0.4448350000000  0.4585650000000 1.0
C      1  0.4579110000000  0.4925580000000  0.5799320000000 1.0
C      1  0.5632120000000  0.5103810000000  0.5607620000000 1.0
C      1  0.4165250000000  0.4759800000000  0.5148240000000 1.0
C      1  0.5777190000000  0.4928460000000  0.4647000000000 1.0
C      1  0.5028950000000  0.5917600000000  0.5066600000000 1.0
C      1  0.4515640000000  0.4243270000000  0.5348670000000 1.0
C      1  0.4770660000000  0.4131820000000  0.5281730000000 1.0
C      1  0.5732080000000  0.5453620000000  0.4624390000000 1.0
C      1  0.4841960000000  0.5174330000000  0.3999940000000 1.0
C      1  0.4296520000000  0.5421260000000  0.4360950000000 1.0
C      1  0.4168880000000  0.4933590000000  0.5525810000000 1.0
C      1  0.5314520000000  0.4247500000000  0.4551170000000 1.0
C      1  0.4599380000000  0.5441750000000  0.4685510000000 1.0
C      1  0.4537910000000  0.5018380000000  0.5098730000000 1.0
C      1  0.4586340000000  0.4155700000000  0.5065590000000 1.0
C      1  0.4348830000000  0.5672930000000  0.5044270000000 1.0
C      1  0.4308080000000  0.5460570000000  0.4855190000000 1.0
C      1  0.5403650000000  0.4080140000000  0.4934420000000 1.0
C      1  0.4581560000000  0.4232580000000  0.4767000000000 1.0
C      1  0.4846480000000  0.5386670000000  0.5834130000000 1.0
C      1  0.5861760000000  0.5466330000000  0.5101270000000 1.0
C      1  0.4458050000000  0.5785890000000  0.5275160000000 1.0
C      1  0.5080830000000  0.4235430000000  0.5327410000000 1.0
C      1  0.5456440000000  0.5072310000000  0.4256420000000 1.0
C      1  0.5030520000000  0.5344080000000  0.4240760000000 1.0
C      1  0.5322660000000  0.4078830000000  0.5213500000000 1.0
C      1  0.4773460000000  0.4946700000000  0.5571470000000 1.0
C      1  0.5552460000000  0.4216790000000  0.5332250000000 1.0
C      1  0.5207900000000  0.4355150000000  0.5596850000000 1.0
C      1  0.5846040000000  0.5198370000000  0.4719910000000 1.0
C      1  0.4745220000000  0.5332860000000  0.5248820000000 1.0
C      1  0.4777430000000  0.5831820000000  0.5278250000000 1.0
C      1  0.5333250000000  0.5727450000000  0.4708740000000 1.0
C      1  0.5448310000000  0.4939960000000  0.5714620000000 1.0
C      1  0.5266080000000  0.5424140000000  0.5605590000000 1.0
C      1  0.5417310000000  0.5123670000000  0.5000090000000 1.0
C      1  0.5166170000000  0.5534770000000  0.4860240000000 1.0
C      1  0.5513260000000  0.4654000000000  0.4279930000000 1.0
C      1  0.4354110000000  0.4716020000000  0.4621740000000 1.0
C      1  0.5126870000000  0.4537970000000  0.4167370000000 1.0
C      1  0.5700140000000  0.4426820000000  0.5202650000000 1.0
END
