TITL C-4164241-3639-9 23.6222482612143 125000 -26243.3201172346 0 0 175 (C1) n - 1
REM
REM in /home/nfs/bkarasulu/CARBON/AIRSS/Generating-Clusters/ReaxFF-fromJPCA2015/Units_Real/with-SteepDescent/Only-C1/SD-CG/Try1-3A/FIRE-CG
REM
REM
REM
REM
REM
REM ./C.cell (11c1c37f851c82e70ff6c80c92926a4b)
REM
REM compiler GCC version 9.2.1 20190827 (Red Hat 9.2.1-1)
REM options -cpp -mtune=generic -march=x86-64 -g -O0 -fpre-include=/usr/include/finclude/math-vector-fortran.h
REM seed 852944075 -722561252 440653284 -1681178415 -1967149055 -1468296177 1055960717 -1397472826 1567110332 -1855072605 1810535112 2005241945 -1573975074 -85929699 901737146 387351798 620659127 -2079468342 504279195 283727488 1615701088 -821347405 -1837883287 1038405796 -1204287724 -218545920 1998688717 649824104 1668322165 182661886 -1516837365 1051435437 590433849
REM
CELL 1.54180   50.00000   50.00000   50.00000   90.00000   90.00000   90.00000
LATT -1
SFAC C  
C      1  0.4088500000000  0.5087620000000  0.4812200000000 1.0
C      1  0.4576180000000  0.4104820000000  0.5380840000000 1.0
C      1  0.4863750000000  0.4113210000000  0.4648610000000 1.0
C      1  0.4908290000000  0.5297330000000  0.5528300000000 1.0
C      1  0.4655910000000  0.4090550000000  0.4855640000000 1.0
C      1  0.4840720000000  0.5927220000000  0.4827430000000 1.0
C      1  0.4309820000000  0.4278450000000  0.5382220000000 1.0
C      1  0.5557470000000  0.4492460000000  0.4278480000000 1.0
C      1  0.5022300000000  0.4912480000000  0.5101390000000 1.0
C      1  0.5883010000000  0.4272310000000  0.4676820000000 1.0
C      1  0.5119540000000  0.6020700000000  0.4916020000000 1.0
C      1  0.4931150000000  0.5968590000000  0.5447610000000 1.0
C      1  0.4761880000000  0.4845500000000  0.3996300000000 1.0
C      1  0.5220350000000  0.4425250000000  0.5167360000000 1.0
C      1  0.5519690000000  0.4788690000000  0.4333660000000 1.0
C      1  0.5566870000000  0.5703570000000  0.4432790000000 1.0
C      1  0.5970300000000  0.5310620000000  0.5274010000000 1.0
C      1  0.5298690000000  0.4887610000000  0.5006750000000 1.0
C      1  0.4082740000000  0.4819790000000  0.4352980000000 1.0
C      1  0.4301480000000  0.4568210000000  0.4673290000000 1.0
C      1  0.5175370000000  0.4846300000000  0.5548790000000 1.0
C      1  0.4933250000000  0.5087180000000  0.6066780000000 1.0
C      1  0.4999420000000  0.4659100000000  0.5657730000000 1.0
C      1  0.5227050000000  0.5803440000000  0.5075460000000 1.0
C      1  0.4663410000000  0.5132380000000  0.4414140000000 1.0
C      1  0.5599370000000  0.5034030000000  0.4183270000000 1.0
C      1  0.5800170000000  0.4598630000000  0.5050870000000 1.0
C      1  0.4821670000000  0.4998830000000  0.4671040000000 1.0
C      1  0.4354190000000  0.5225710000000  0.4883750000000 1.0
C      1  0.4048960000000  0.5624620000000  0.4919060000000 1.0
C      1  0.5309960000000  0.4424990000000  0.4123850000000 1.0
C      1  0.4858160000000  0.4310730000000  0.5947790000000 1.0
C      1  0.3859650000000  0.4397030000000  0.5150970000000 1.0
C      1  0.5715880000000  0.4721710000000  0.5782350000000 1.0
C      1  0.5357130000000  0.5623670000000  0.5747950000000 1.0
C      1  0.3990100000000  0.4956200000000  0.5291260000000 1.0
C      1  0.4370030000000  0.5796350000000  0.4579700000000 1.0
C      1  0.6065690000000  0.5150390000000  0.4752130000000 1.0
C      1  0.5316040000000  0.5642420000000  0.4288320000000 1.0
C      1  0.4792290000000  0.4584750000000  0.4927580000000 1.0
C      1  0.5438820000000  0.5248830000000  0.4068030000000 1.0
C      1  0.4695460000000  0.6070060000000  0.5267760000000 1.0
C      1  0.4656200000000  0.4348000000000  0.5004230000000 1.0
C      1  0.4777250000000  0.4843170000000  0.6035370000000 1.0
C      1  0.6046380000000  0.5019740000000  0.5285660000000 1.0
C      1  0.5144640000000  0.5123370000000  0.5526750000000 1.0
C      1  0.5597980000000  0.4857820000000  0.4659480000000 1.0
C      1  0.6069900000000  0.4817700000000  0.5509430000000 1.0
C      1  0.4539790000000  0.4778830000000  0.5882950000000 1.0
C      1  0.5032280000000  0.3967560000000  0.5126400000000 1.0
C      1  0.4636730000000  0.6046530000000  0.4981070000000 1.0
C      1  0.5297780000000  0.5248110000000  0.5935320000000 1.0
C      1  0.5718710000000  0.4060940000000  0.4807200000000 1.0
C      1  0.4790370000000  0.4268650000000  0.4172590000000 1.0
C      1  0.5594700000000  0.5869230000000  0.5433360000000 1.0
C      1  0.5052580000000  0.5699040000000  0.4182460000000 1.0
C      1  0.4860140000000  0.4694390000000  0.5171610000000 1.0
C      1  0.5545090000000  0.4051910000000  0.4568310000000 1.0
C      1  0.4747710000000  0.4062180000000  0.4385450000000 1.0
C      1  0.5443970000000  0.4755500000000  0.5210860000000 1.0
C      1  0.5287390000000  0.3967310000000  0.4963970000000 1.0
C      1  0.4469800000000  0.4925660000000  0.4429330000000 1.0
C      1  0.4123850000000  0.4541120000000  0.4441160000000 1.0
C      1  0.5555180000000  0.4048790000000  0.5055800000000 1.0
C      1  0.5024100000000  0.4230080000000  0.5243650000000 1.0
C      1  0.4491830000000  0.5975990000000  0.5448020000000 1.0
C      1  0.5060550000000  0.5092540000000  0.4144400000000 1.0
C      1  0.4505580000000  0.5450240000000  0.4746050000000 1.0
C      1  0.5003890000000  0.5469280000000  0.4821940000000 1.0
C      1  0.4218870000000  0.5839460000000  0.5030500000000 1.0
C      1  0.4611910000000  0.5404290000000  0.4495490000000 1.0
C      1  0.5723880000000  0.5754070000000  0.4936980000000 1.0
C      1  0.4903270000000  0.5825040000000  0.5702600000000 1.0
C      1  0.4000370000000  0.5437830000000  0.5120370000000 1.0
C      1  0.4210700000000  0.4527570000000  0.4946230000000 1.0
C      1  0.4412320000000  0.4519870000000  0.5799680000000 1.0
C      1  0.5779490000000  0.4432450000000  0.5325390000000 1.0
C      1  0.4617750000000  0.5579320000000  0.5170720000000 1.0
C      1  0.5331650000000  0.5325080000000  0.5171530000000 1.0
C      1  0.4507810000000  0.4738440000000  0.4050400000000 1.0
C      1  0.5092500000000  0.5760310000000  0.5327850000000 1.0
C      1  0.4587100000000  0.4284980000000  0.5853830000000 1.0
C      1  0.5997390000000  0.5337470000000  0.4985810000000 1.0
C      1  0.5416510000000  0.4432360000000  0.5641200000000 1.0
C      1  0.4522980000000  0.4650660000000  0.4501700000000 1.0
C      1  0.5609720000000  0.4956320000000  0.5321170000000 1.0
C      1  0.4897040000000  0.5518240000000  0.5333910000000 1.0
C      1  0.4279680000000  0.5278330000000  0.4199680000000 1.0
C      1  0.4264170000000  0.5340170000000  0.5438360000000 1.0
C      1  0.5320580000000  0.6052330000000  0.4704860000000 1.0
C      1  0.4796180000000  0.4623510000000  0.5453400000000 1.0
C      1  0.5219430000000  0.5007660000000  0.6071850000000 1.0
C      1  0.5162290000000  0.5211000000000  0.4417020000000 1.0
C      1  0.4403590000000  0.5950430000000  0.4829100000000 1.0
C      1  0.5739830000000  0.5740320000000  0.5239920000000 1.0
C      1  0.5126270000000  0.6038610000000  0.4506040000000 1.0
C      1  0.5199640000000  0.4674530000000  0.4268990000000 1.0
C      1  0.4392200000000  0.5778210000000  0.5259410000000 1.0
C      1  0.4132910000000  0.5327590000000  0.4432840000000 1.0
C      1  0.4000420000000  0.5253970000000  0.5338560000000 1.0
C      1  0.5321990000000  0.4460170000000  0.4905250000000 1.0
C      1  0.5590000000000  0.5471040000000  0.5644530000000 1.0
C      1  0.5348260000000  0.5374170000000  0.4304860000000 1.0
C      1  0.4976400000000  0.4611930000000  0.5957480000000 1.0
C      1  0.4472270000000  0.5481770000000  0.4118490000000 1.0
C      1  0.4760080000000  0.5130350000000  0.4121670000000 1.0
C      1  0.4302790000000  0.4942040000000  0.4181560000000 1.0
C      1  0.5559130000000  0.5252500000000  0.5836000000000 1.0
C      1  0.5762780000000  0.5007240000000  0.5844520000000 1.0
C      1  0.4725740000000  0.5602080000000  0.4885530000000 1.0
C      1  0.4153180000000  0.4301890000000  0.5137760000000 1.0
C      1  0.5394680000000  0.5153950000000  0.5380810000000 1.0
C      1  0.5515080000000  0.5809470000000  0.4725130000000 1.0
C      1  0.5023140000000  0.5221510000000  0.4654980000000 1.0
C      1  0.5067360000000  0.4567050000000  0.4522610000000 1.0
C      1  0.4671340000000  0.4080090000000  0.5662600000000 1.0
C      1  0.4573220000000  0.4997710000000  0.4881410000000 1.0
C      1  0.4705280000000  0.5286080000000  0.5731310000000 1.0
C      1  0.5682030000000  0.4291590000000  0.4451850000000 1.0
C      1  0.5864640000000  0.4604980000000  0.5548600000000 1.0
C      1  0.5072120000000  0.5591370000000  0.5817940000000 1.0
C      1  0.3930820000000  0.4620190000000  0.4959600000000 1.0
C      1  0.5433360000000  0.5049790000000  0.4811120000000 1.0
C      1  0.4861430000000  0.5993550000000  0.4535220000000 1.0
C      1  0.5764930000000  0.5477480000000  0.4887940000000 1.0
C      1  0.4261430000000  0.4509640000000  0.5548560000000 1.0
C      1  0.5791190000000  0.5199110000000  0.4343470000000 1.0
C      1  0.5857500000000  0.5035080000000  0.4581760000000 1.0
C      1  0.4476740000000  0.5628140000000  0.5749300000000 1.0
C      1  0.4739580000000  0.3959750000000  0.5108700000000 1.0
C      1  0.5216380000000  0.4079600000000  0.5659670000000 1.0
C      1  0.4551360000000  0.4497060000000  0.4212960000000 1.0
C      1  0.5564260000000  0.4606390000000  0.4848250000000 1.0
C      1  0.4911910000000  0.5360290000000  0.5933580000000 1.0
C      1  0.5285930000000  0.5600370000000  0.4862830000000 1.0
C      1  0.6013270000000  0.4475450000000  0.4841470000000 1.0
C      1  0.4190260000000  0.5577670000000  0.4636500000000 1.0
C      1  0.4403910000000  0.5368400000000  0.5698450000000 1.0
C      1  0.5630870000000  0.4187710000000  0.5308180000000 1.0
C      1  0.4620200000000  0.4824010000000  0.5604440000000 1.0
C      1  0.4498030000000  0.4164310000000  0.4466140000000 1.0
C      1  0.4607360000000  0.5871580000000  0.5716890000000 1.0
C      1  0.4313650000000  0.4328560000000  0.4319840000000 1.0
C      1  0.5181530000000  0.5280920000000  0.3943740000000 1.0
C      1  0.5309220000000  0.4605960000000  0.5394270000000 1.0
C      1  0.4893060000000  0.5127640000000  0.5167250000000 1.0
C      1  0.4957060000000  0.4088950000000  0.5776880000000 1.0
C      1  0.5825340000000  0.4888070000000  0.5151200000000 1.0
C      1  0.5256540000000  0.4718490000000  0.6025100000000 1.0
C      1  0.3950020000000  0.4917970000000  0.5006560000000 1.0
C      1  0.5440270000000  0.5925620000000  0.5660750000000 1.0
C      1  0.5471560000000  0.4589580000000  0.5884700000000 1.0
C      1  0.4038900000000  0.5064570000000  0.4525000000000 1.0
C      1  0.5125670000000  0.4315140000000  0.4673130000000 1.0
C      1  0.5041650000000  0.5352830000000  0.5128520000000 1.0
C      1  0.4904780000000  0.4709240000000  0.4683630000000 1.0
C      1  0.5473700000000  0.4152940000000  0.5574080000000 1.0
C      1  0.4445220000000  0.4907660000000  0.5398910000000 1.0
C      1  0.5779570000000  0.5495850000000  0.5406160000000 1.0
C      1  0.5031100000000  0.4816320000000  0.4088470000000 1.0
C      1  0.4744370000000  0.4320560000000  0.5279020000000 1.0
C      1  0.5053460000000  0.4322580000000  0.4133310000000 1.0
C      1  0.4439940000000  0.5339500000000  0.5193200000000 1.0
C      1  0.4833950000000  0.5821200000000  0.4319520000000 1.0
C      1  0.5272370000000  0.4048810000000  0.4681580000000 1.0
C      1  0.4572880000000  0.5671820000000  0.4363360000000 1.0
C      1  0.4608670000000  0.5089880000000  0.5193950000000 1.0
C      1  0.5478510000000  0.5337820000000  0.4913130000000 1.0
C      1  0.4714140000000  0.5394760000000  0.3984370000000 1.0
C      1  0.5719370000000  0.5474420000000  0.4393110000000 1.0
C      1  0.6159600000000  0.4684200000000  0.4756910000000 1.0
C      1  0.4190670000000  0.4787920000000  0.5426800000000 1.0
C      1  0.4988500000000  0.5496580000000  0.3982900000000 1.0
C      1  0.5992130000000  0.5015790000000  0.5688840000000 1.0
C      1  0.6216880000000  0.4916890000000  0.4712430000000 1.0
END
