TITL C-4164234-2335-527 -1.78750797186147 125000 -18689.5632149057 0 0 124 (C1) n - 1
REM
REM in /home/nfs/bkarasulu/CARBON/AIRSS/Generating-Clusters/ReaxFF-fromJPCA2015/Units_Real/with-SteepDescent/Only-C1/SD-CG/Try1-3A/FIRE-CG
REM
REM
REM
REM
REM
REM ./C.cell (11c1c37f851c82e70ff6c80c92926a4b)
REM
REM compiler GCC version 9.2.1 20190827 (Red Hat 9.2.1-1)
REM options -cpp -mtune=generic -march=x86-64 -g -O0 -fpre-include=/usr/include/finclude/math-vector-fortran.h
REM seed 1227763757 1243816376 -118829404 -468488896 -912704784 -2085895903 -1054766832 676621981 1191121991 -2066989529 -1342039898 -1664180193 267389749 127021933 -2113184065 -1710516101 817734416 -1952890879 1976157771 -2000050433 -1476352982 -1136367054 -30547674 1994528714 -2017665827 -2140834032 1008696502 1611406122 1468663085 -1002978100 -1002991499 -294423563 -1010604723
REM
CELL 1.54180   50.00000   50.00000   50.00000   90.00000   90.00000   90.00000
LATT -1
SFAC C  
C      1  0.5448510000000  0.4230660000000  0.4771580000000 1.0
C      1  0.5024110000000  0.5745120000000  0.4605770000000 1.0
C      1  0.4405000000000  0.4818150000000  0.5698430000000 1.0
C      1  0.4665790000000  0.5457900000000  0.5290070000000 1.0
C      1  0.4957640000000  0.5472700000000  0.5244880000000 1.0
C      1  0.5476650000000  0.4883400000000  0.4100180000000 1.0
C      1  0.4395560000000  0.4978260000000  0.4639450000000 1.0
C      1  0.5060460000000  0.4221070000000  0.4439880000000 1.0
C      1  0.4529740000000  0.4342410000000  0.5543190000000 1.0
C      1  0.4535700000000  0.5504180000000  0.5539700000000 1.0
C      1  0.4525050000000  0.4305440000000  0.4387490000000 1.0
C      1  0.4164100000000  0.4693760000000  0.5021250000000 1.0
C      1  0.4420900000000  0.5075730000000  0.5825280000000 1.0
C      1  0.4155800000000  0.5005910000000  0.5049850000000 1.0
C      1  0.5095700000000  0.5322730000000  0.4324210000000 1.0
C      1  0.4781850000000  0.4177400000000  0.4476720000000 1.0
C      1  0.5342170000000  0.4891120000000  0.4930900000000 1.0
C      1  0.5776970000000  0.5576660000000  0.4645030000000 1.0
C      1  0.4629600000000  0.5732180000000  0.4973150000000 1.0
C      1  0.4409020000000  0.5386500000000  0.4369940000000 1.0
C      1  0.5045930000000  0.5397450000000  0.5516070000000 1.0
C      1  0.5079370000000  0.4023660000000  0.5097960000000 1.0
C      1  0.5195160000000  0.5501600000000  0.5979350000000 1.0
C      1  0.5037250000000  0.5136400000000  0.4106240000000 1.0
C      1  0.4185380000000  0.5814950000000  0.4688380000000 1.0
C      1  0.4984920000000  0.4527260000000  0.4778560000000 1.0
C      1  0.5466960000000  0.4567860000000  0.5368290000000 1.0
C      1  0.4634430000000  0.4619050000000  0.5672410000000 1.0
C      1  0.5801160000000  0.4616640000000  0.4742270000000 1.0
C      1  0.4292370000000  0.4931420000000  0.4369590000000 1.0
C      1  0.5106370000000  0.4955490000000  0.5118460000000 1.0
C      1  0.5393390000000  0.5348900000000  0.4713640000000 1.0
C      1  0.4353590000000  0.5667610000000  0.4800370000000 1.0
C      1  0.5927890000000  0.4851930000000  0.4891040000000 1.0
C      1  0.4772660000000  0.5288350000000  0.4060530000000 1.0
C      1  0.4997090000000  0.5244810000000  0.5008800000000 1.0
C      1  0.4058080000000  0.5266950000000  0.5519100000000 1.0
C      1  0.4344250000000  0.5163940000000  0.4214330000000 1.0
C      1  0.5739010000000  0.5726640000000  0.4893320000000 1.0
C      1  0.4639360000000  0.4155150000000  0.4964260000000 1.0
C      1  0.4255720000000  0.5462000000000  0.5590290000000 1.0
C      1  0.5462090000000  0.4146980000000  0.5241870000000 1.0
C      1  0.4679810000000  0.5478630000000  0.4268550000000 1.0
C      1  0.4991480000000  0.4813800000000  0.4239760000000 1.0
C      1  0.5323640000000  0.4292810000000  0.4491550000000 1.0
C      1  0.4944650000000  0.4787320000000  0.4589700000000 1.0
C      1  0.5146620000000  0.4988910000000  0.5977160000000 1.0
C      1  0.4806120000000  0.4029200000000  0.5183230000000 1.0
C      1  0.5211800000000  0.5174520000000  0.4548900000000 1.0
C      1  0.5567390000000  0.5270640000000  0.4199640000000 1.0
C      1  0.5935680000000  0.4772700000000  0.5148670000000 1.0
C      1  0.5220940000000  0.4857820000000  0.4629670000000 1.0
C      1  0.5315300000000  0.5793920000000  0.4625330000000 1.0
C      1  0.4205030000000  0.5260160000000  0.5762950000000 1.0
C      1  0.4924420000000  0.4671460000000  0.5041900000000 1.0
C      1  0.4963780000000  0.5577720000000  0.5756710000000 1.0
C      1  0.4060290000000  0.5025520000000  0.5359650000000 1.0
C      1  0.4890610000000  0.5794630000000  0.4858220000000 1.0
C      1  0.4669340000000  0.5204520000000  0.5879250000000 1.0
C      1  0.5354040000000  0.5153670000000  0.4052220000000 1.0
C      1  0.5787390000000  0.5160630000000  0.5372050000000 1.0
C      1  0.5368770000000  0.5725320000000  0.5569050000000 1.0
C      1  0.5404920000000  0.4833110000000  0.5549780000000 1.0
C      1  0.5474560000000  0.5858790000000  0.4864570000000 1.0
C      1  0.5044330000000  0.4399900000000  0.5502470000000 1.0
C      1  0.5857050000000  0.5159540000000  0.4889310000000 1.0
C      1  0.5190460000000  0.4970490000000  0.5398720000000 1.0
C      1  0.5395060000000  0.4633550000000  0.5061560000000 1.0
C      1  0.4215250000000  0.5158960000000  0.4769590000000 1.0
C      1  0.4281020000000  0.4494280000000  0.4846900000000 1.0
C      1  0.4552850000000  0.5345480000000  0.5065560000000 1.0
C      1  0.5890200000000  0.4734370000000  0.5421110000000 1.0
C      1  0.4581190000000  0.4880460000000  0.5202320000000 1.0
C      1  0.4706180000000  0.4162150000000  0.5422660000000 1.0
C      1  0.5068870000000  0.5781050000000  0.5112140000000 1.0
C      1  0.5386210000000  0.5557870000000  0.5787280000000 1.0
C      1  0.4408120000000  0.5118100000000  0.5173650000000 1.0
C      1  0.5319380000000  0.4316200000000  0.5432200000000 1.0
C      1  0.4694710000000  0.4966730000000  0.4734170000000 1.0
C      1  0.4671030000000  0.5887920000000  0.5228460000000 1.0
C      1  0.4694910000000  0.4801720000000  0.4967040000000 1.0
C      1  0.5384450000000  0.4604570000000  0.4445940000000 1.0
C      1  0.4939130000000  0.5913170000000  0.5355630000000 1.0
C      1  0.5770390000000  0.5179520000000  0.4372990000000 1.0
C      1  0.4891780000000  0.5038440000000  0.5830190000000 1.0
C      1  0.4691700000000  0.5466040000000  0.5782590000000 1.0
C      1  0.5269880000000  0.4455610000000  0.4877990000000 1.0
C      1  0.5867360000000  0.5300910000000  0.4629930000000 1.0
C      1  0.5715900000000  0.4294830000000  0.5148520000000 1.0
C      1  0.4800290000000  0.4275430000000  0.4753380000000 1.0
C      1  0.4280330000000  0.5412090000000  0.4642430000000 1.0
C      1  0.4929820000000  0.5550330000000  0.4400690000000 1.0
C      1  0.4763220000000  0.4662190000000  0.4175340000000 1.0
C      1  0.5698420000000  0.4946570000000  0.5523260000000 1.0
C      1  0.5679840000000  0.4675480000000  0.4484670000000 1.0
C      1  0.5497330000000  0.5582210000000  0.4558170000000 1.0
C      1  0.4975660000000  0.4590000000000  0.5714360000000 1.0
C      1  0.4336120000000  0.4465050000000  0.4546110000000 1.0
C      1  0.5498890000000  0.5652500000000  0.5280230000000 1.0
C      1  0.5888040000000  0.5331720000000  0.5166760000000 1.0
C      1  0.4293380000000  0.4644130000000  0.4319890000000 1.0
C      1  0.4337190000000  0.4351400000000  0.5320250000000 1.0
C      1  0.4396530000000  0.4297760000000  0.5032810000000 1.0
C      1  0.5273010000000  0.4702250000000  0.4192300000000 1.0
C      1  0.5779470000000  0.5605220000000  0.5152890000000 1.0
C      1  0.5764270000000  0.4472570000000  0.5373250000000 1.0
C      1  0.5457010000000  0.5335590000000  0.5198730000000 1.0
C      1  0.5331330000000  0.4029650000000  0.5008550000000 1.0
C      1  0.4538280000000  0.5160920000000  0.4055610000000 1.0
C      1  0.5713690000000  0.4365600000000  0.4867360000000 1.0
C      1  0.4187160000000  0.4804400000000  0.5504240000000 1.0
C      1  0.5088150000000  0.5811080000000  0.5590410000000 1.0
C      1  0.4528880000000  0.4513910000000  0.4167170000000 1.0
C      1  0.4175300000000  0.4595250000000  0.5293540000000 1.0
C      1  0.4695770000000  0.4705620000000  0.5396220000000 1.0
C      1  0.5276910000000  0.5238590000000  0.5985770000000 1.0
C      1  0.5118290000000  0.5332990000000  0.4771860000000 1.0
C      1  0.5708140000000  0.4894390000000  0.4298860000000 1.0
C      1  0.4872420000000  0.4516740000000  0.5285750000000 1.0
C      1  0.5193730000000  0.4754480000000  0.5792560000000 1.0
C      1  0.5345680000000  0.5808910000000  0.5101100000000 1.0
C      1  0.5528280000000  0.5174920000000  0.4964860000000 1.0
C      1  0.4740080000000  0.5237760000000  0.4875210000000 1.0
C      1  0.5002320000000  0.5118350000000  0.5565890000000 1.0
END
