TITL C-4164238-4211-598 54.2155114689356 125000 -20382.7003627652 0 0 135 (C1) n - 1
REM
REM in /home/nfs/bkarasulu/CARBON/AIRSS/Generating-Clusters/ReaxFF-fromJPCA2015/Units_Real/with-SteepDescent/Only-C1/SD-CG/Try1-3A/FIRE-CG
REM
REM
REM
REM
REM
REM ./C.cell (11c1c37f851c82e70ff6c80c92926a4b)
REM
REM compiler GCC version 9.2.1 20190827 (Red Hat 9.2.1-1)
REM options -cpp -mtune=generic -march=x86-64 -g -O0 -fpre-include=/usr/include/finclude/math-vector-fortran.h
REM seed 1466592507 386551661 1690010186 -646300460 948631075 -1367001193 2130909738 -1536984000 -1085391509 -835841324 -2129140549 1666561266 -830490095 1268880271 558888880 1401817838 -389383487 -289119719 -1880807681 -1510161230 2053185982 -973588516 31045095 1987742626 1301469574 -526913481 -2146195988 -367836175 -1731626879 -1316268103 -1059623850 1036091419 -1156780266
REM
CELL 1.54180   50.00000   50.00000   50.00000   90.00000   90.00000   90.00000
LATT -1
SFAC C  
C      1  0.4787900000000  0.4076540000000  0.4968850000000 1.0
C      1  0.6009230000000  0.5108380000000  0.5186810000000 1.0
C      1  0.4742530000000  0.5353440000000  0.4961040000000 1.0
C      1  0.4853730000000  0.4762390000000  0.5961770000000 1.0
C      1  0.5610940000000  0.4366250000000  0.5317500000000 1.0
C      1  0.5425080000000  0.5023270000000  0.4148670000000 1.0
C      1  0.5382610000000  0.4719290000000  0.4166420000000 1.0
C      1  0.5133790000000  0.4223620000000  0.5607360000000 1.0
C      1  0.4266040000000  0.5196510000000  0.4866070000000 1.0
C      1  0.5058970000000  0.5976390000000  0.4599620000000 1.0
C      1  0.4279090000000  0.4638560000000  0.5502200000000 1.0
C      1  0.5139730000000  0.4167640000000  0.4506010000000 1.0
C      1  0.5030490000000  0.5317240000000  0.5822420000000 1.0
C      1  0.4654230000000  0.4515020000000  0.4306730000000 1.0
C      1  0.4450080000000  0.5730160000000  0.5082450000000 1.0
C      1  0.4023030000000  0.4925400000000  0.5152160000000 1.0
C      1  0.5958760000000  0.4817320000000  0.5246090000000 1.0
C      1  0.4206450000000  0.5445010000000  0.4513190000000 1.0
C      1  0.5821770000000  0.4902270000000  0.4537210000000 1.0
C      1  0.4549580000000  0.4948690000000  0.4429130000000 1.0
C      1  0.5194250000000  0.4372160000000  0.5831320000000 1.0
C      1  0.4546230000000  0.5143690000000  0.5818110000000 1.0
C      1  0.4615870000000  0.4140180000000  0.5201280000000 1.0
C      1  0.5777940000000  0.4753810000000  0.5465010000000 1.0
C      1  0.4734810000000  0.4194620000000  0.5469010000000 1.0
C      1  0.5638640000000  0.4512340000000  0.4663550000000 1.0
C      1  0.4675320000000  0.4697820000000  0.5218640000000 1.0
C      1  0.5158020000000  0.4827950000000  0.5099620000000 1.0
C      1  0.5122770000000  0.4670920000000  0.5522130000000 1.0
C      1  0.5351930000000  0.4124060000000  0.4938130000000 1.0
C      1  0.5440810000000  0.4799880000000  0.5856500000000 1.0
C      1  0.4684220000000  0.4387640000000  0.5708060000000 1.0
C      1  0.5480580000000  0.5206570000000  0.5937280000000 1.0
C      1  0.5030190000000  0.4858160000000  0.4380920000000 1.0
C      1  0.5192870000000  0.5665280000000  0.5155350000000 1.0
C      1  0.5777420000000  0.5235850000000  0.5574840000000 1.0
C      1  0.4490800000000  0.4619400000000  0.5704200000000 1.0
C      1  0.5597770000000  0.5100120000000  0.4576820000000 1.0
C      1  0.4911200000000  0.4481770000000  0.5869230000000 1.0
C      1  0.5386480000000  0.5482230000000  0.5282860000000 1.0
C      1  0.4271780000000  0.4438380000000  0.5290110000000 1.0
C      1  0.4498540000000  0.4854930000000  0.3980390000000 1.0
C      1  0.5002220000000  0.4123590000000  0.5392680000000 1.0
C      1  0.4165980000000  0.5169250000000  0.4583340000000 1.0
C      1  0.4949000000000  0.6007830000000  0.5112410000000 1.0
C      1  0.4272220000000  0.4934430000000  0.4441080000000 1.0
C      1  0.4532830000000  0.4959360000000  0.5212270000000 1.0
C      1  0.5290590000000  0.4950820000000  0.4600460000000 1.0
C      1  0.4465910000000  0.5467230000000  0.4912660000000 1.0
C      1  0.5077880000000  0.4153640000000  0.5060460000000 1.0
C      1  0.5328550000000  0.5949040000000  0.4672260000000 1.0
C      1  0.4676470000000  0.5179190000000  0.4479000000000 1.0
C      1  0.4597690000000  0.4853750000000  0.5841420000000 1.0
C      1  0.4862550000000  0.5801490000000  0.4703410000000 1.0
C      1  0.4733140000000  0.4750060000000  0.4493780000000 1.0
C      1  0.4340650000000  0.5297650000000  0.5679590000000 1.0
C      1  0.4362540000000  0.5621780000000  0.4697150000000 1.0
C      1  0.5144630000000  0.5570450000000  0.5712320000000 1.0
C      1  0.5010340000000  0.5506600000000  0.4428480000000 1.0
C      1  0.5592960000000  0.4243890000000  0.5068500000000 1.0
C      1  0.4106630000000  0.5398040000000  0.5292910000000 1.0
C      1  0.4382460000000  0.5536750000000  0.4296170000000 1.0
C      1  0.5765670000000  0.4444670000000  0.4929670000000 1.0
C      1  0.4935140000000  0.5734730000000  0.5594760000000 1.0
C      1  0.5854530000000  0.5597860000000  0.5224880000000 1.0
C      1  0.4775330000000  0.4604190000000  0.4970280000000 1.0
C      1  0.4871820000000  0.4189860000000  0.4468620000000 1.0
C      1  0.4984080000000  0.5024520000000  0.4133480000000 1.0
C      1  0.4694830000000  0.5888590000000  0.5096380000000 1.0
C      1  0.4809470000000  0.5717060000000  0.4441130000000 1.0
C      1  0.4523690000000  0.5148580000000  0.4012870000000 1.0
C      1  0.5595600000000  0.5388030000000  0.5751040000000 1.0
C      1  0.4378850000000  0.4265120000000  0.5078860000000 1.0
C      1  0.4994070000000  0.5180270000000  0.5326290000000 1.0
C      1  0.4732680000000  0.5193800000000  0.5216050000000 1.0
C      1  0.5120080000000  0.4615110000000  0.4245010000000 1.0
C      1  0.5206870000000  0.5093080000000  0.5105150000000 1.0
C      1  0.4424840000000  0.4924340000000  0.4930000000000 1.0
C      1  0.4303800000000  0.5618170000000  0.5313860000000 1.0
C      1  0.4759100000000  0.4988000000000  0.3947450000000 1.0
C      1  0.5422220000000  0.5861740000000  0.5097860000000 1.0
C      1  0.5375190000000  0.4122220000000  0.4643370000000 1.0
C      1  0.5485100000000  0.5077600000000  0.5218160000000 1.0
C      1  0.4533490000000  0.5713690000000  0.4479460000000 1.0
C      1  0.5573140000000  0.4520550000000  0.4261790000000 1.0
C      1  0.5534620000000  0.4310830000000  0.4470960000000 1.0
C      1  0.5395340000000  0.5522080000000  0.5571030000000 1.0
C      1  0.5939660000000  0.5347490000000  0.5355370000000 1.0
C      1  0.5239680000000  0.4881250000000  0.5655660000000 1.0
C      1  0.4429300000000  0.4626130000000  0.4155780000000 1.0
C      1  0.5211050000000  0.5467350000000  0.4221590000000 1.0
C      1  0.5388950000000  0.4708480000000  0.4719750000000 1.0
C      1  0.4157520000000  0.4757070000000  0.4954330000000 1.0
C      1  0.5246050000000  0.4614980000000  0.4947840000000 1.0
C      1  0.5502680000000  0.5704520000000  0.4577720000000 1.0
C      1  0.4046780000000  0.5206310000000  0.5081300000000 1.0
C      1  0.4849840000000  0.4632060000000  0.5436000000000 1.0
C      1  0.4682550000000  0.4823440000000  0.4789460000000 1.0
C      1  0.5240780000000  0.6025610000000  0.4951920000000 1.0
C      1  0.5550700000000  0.5326130000000  0.5104000000000 1.0
C      1  0.5950830000000  0.5153460000000  0.4911450000000 1.0
C      1  0.5696450000000  0.5753460000000  0.5035040000000 1.0
C      1  0.5685100000000  0.5610680000000  0.4773280000000 1.0
C      1  0.5452990000000  0.4516580000000  0.5799660000000 1.0
C      1  0.5625760000000  0.5006180000000  0.5465060000000 1.0
C      1  0.4425080000000  0.5560770000000  0.5570690000000 1.0
C      1  0.5028350000000  0.5852660000000  0.5342480000000 1.0
C      1  0.4104710000000  0.4568180000000  0.4760410000000 1.0
C      1  0.4221530000000  0.4917880000000  0.5375810000000 1.0
C      1  0.5209230000000  0.5200810000000  0.4072840000000 1.0
C      1  0.5695780000000  0.5312980000000  0.4830370000000 1.0
C      1  0.5085120000000  0.5126190000000  0.5601090000000 1.0
C      1  0.5785750000000  0.4639720000000  0.4421820000000 1.0
C      1  0.4688100000000  0.5603410000000  0.5684090000000 1.0
C      1  0.5014210000000  0.4433320000000  0.4948510000000 1.0
C      1  0.5041200000000  0.4772190000000  0.5313020000000 1.0
C      1  0.5108690000000  0.5430040000000  0.4689990000000 1.0
C      1  0.4807250000000  0.5129710000000  0.4741180000000 1.0
C      1  0.4674360000000  0.4171660000000  0.4720930000000 1.0
C      1  0.4741650000000  0.5360390000000  0.5840470000000 1.0
C      1  0.5129530000000  0.5144880000000  0.4774540000000 1.0
C      1  0.5637210000000  0.4498060000000  0.5557150000000 1.0
C      1  0.4911630000000  0.4395370000000  0.4246470000000 1.0
C      1  0.4232360000000  0.4648380000000  0.4374410000000 1.0
C      1  0.5347580000000  0.4998110000000  0.6072570000000 1.0
C      1  0.4419750000000  0.4290420000000  0.4774240000000 1.0
C      1  0.5966310000000  0.4891070000000  0.4790770000000 1.0
C      1  0.4146880000000  0.5190300000000  0.5494680000000 1.0
C      1  0.5926140000000  0.4672670000000  0.4993650000000 1.0
C      1  0.4572890000000  0.5318820000000  0.4245440000000 1.0
C      1  0.4230270000000  0.4416440000000  0.4569600000000 1.0
C      1  0.5463520000000  0.5516210000000  0.4353430000000 1.0
C      1  0.4972620000000  0.5582620000000  0.4896170000000 1.0
C      1  0.5560110000000  0.5231520000000  0.4315070000000 1.0
C      1  0.5048250000000  0.4963340000000  0.6059090000000 1.0
END
