TITL C-4164246-3563-246 133.537721268668 125000 -27842.2402726181 0 0 190 (C1) n - 1
REM
REM in /home/nfs/bkarasulu/CARBON/AIRSS/Generating-Clusters/ReaxFF-fromJPCA2015/Units_Real/with-SteepDescent/Only-C1/SD-CG/Try1-3A/FIRE-CG
REM
REM
REM
REM
REM
REM ./C.cell (11c1c37f851c82e70ff6c80c92926a4b)
REM
REM compiler GCC version 9.2.1 20190827 (Red Hat 9.2.1-1)
REM options -cpp -mtune=generic -march=x86-64 -g -O0 -fpre-include=/usr/include/finclude/math-vector-fortran.h
REM seed -1578315845 -431255551 1561931490 1905498864 1488258421 -153725985 1586293483 -87227682 -2107843309 -2099165637 1608871947 -1235007656 -1308321897 1695441677 -550023494 -1082131154 -711247851 2059909359 -2024311741 -2019419657 1857942254 1675020940 -11679657 -95640473 1300358921 -346382573 -778375128 -1978771858 938661428 1865628780 867191751 2004815247 1333080371
REM
CELL 1.54180   50.00000   50.00000   50.00000   90.00000   90.00000   90.00000
LATT -1
SFAC C  
C      1  0.4738170000000  0.5342760000000  0.5032790000000 1.0
C      1  0.5131240000000  0.4295910000000  0.5735310000000 1.0
C      1  0.4563300000000  0.4661960000000  0.5804100000000 1.0
C      1  0.4808730000000  0.4018770000000  0.5522360000000 1.0
C      1  0.4876580000000  0.4611360000000  0.3970450000000 1.0
C      1  0.4791680000000  0.5544550000000  0.4521810000000 1.0
C      1  0.4906350000000  0.4360780000000  0.4136550000000 1.0
C      1  0.5592360000000  0.4364070000000  0.5439880000000 1.0
C      1  0.4314500000000  0.5084350000000  0.4896400000000 1.0
C      1  0.4957310000000  0.4064740000000  0.4585800000000 1.0
C      1  0.4769860000000  0.4710790000000  0.4418330000000 1.0
C      1  0.4926490000000  0.5347340000000  0.5302460000000 1.0
C      1  0.5138220000000  0.5167230000000  0.6156210000000 1.0
C      1  0.4599120000000  0.5081690000000  0.4957170000000 1.0
C      1  0.4151720000000  0.5720040000000  0.5244750000000 1.0
C      1  0.4620880000000  0.5405300000000  0.5761830000000 1.0
C      1  0.5483730000000  0.5572050000000  0.5222140000000 1.0
C      1  0.5285940000000  0.4909620000000  0.6115970000000 1.0
C      1  0.5187770000000  0.4537260000000  0.4480080000000 1.0
C      1  0.4914690000000  0.4370970000000  0.5270630000000 1.0
C      1  0.4889950000000  0.4270190000000  0.5914390000000 1.0
C      1  0.5262770000000  0.4711450000000  0.5443320000000 1.0
C      1  0.5201870000000  0.6019760000000  0.4880220000000 1.0
C      1  0.5587440000000  0.4080870000000  0.5377610000000 1.0
C      1  0.5097690000000  0.4038220000000  0.5576080000000 1.0
C      1  0.5045210000000  0.4758650000000  0.4342050000000 1.0
C      1  0.5187950000000  0.4294210000000  0.4277510000000 1.0
C      1  0.4643670000000  0.4846770000000  0.5128900000000 1.0
C      1  0.4288290000000  0.4214950000000  0.4397430000000 1.0
C      1  0.4528620000000  0.5501190000000  0.4630460000000 1.0
C      1  0.3945400000000  0.5373610000000  0.5503150000000 1.0
C      1  0.4352740000000  0.4147870000000  0.5264470000000 1.0
C      1  0.6005000000000  0.4990350000000  0.4914700000000 1.0
C      1  0.5480760000000  0.5511840000000  0.4456390000000 1.0
C      1  0.4802490000000  0.4473400000000  0.4810010000000 1.0
C      1  0.5226650000000  0.5630350000000  0.5115440000000 1.0
C      1  0.4403010000000  0.4891070000000  0.5285940000000 1.0
C      1  0.4898370000000  0.5078550000000  0.3858100000000 1.0
C      1  0.4097390000000  0.5258370000000  0.5736210000000 1.0
C      1  0.5358970000000  0.5277560000000  0.3947460000000 1.0
C      1  0.4677340000000  0.4172460000000  0.5741420000000 1.0
C      1  0.5656940000000  0.5052710000000  0.5272060000000 1.0
C      1  0.4693570000000  0.5364050000000  0.4166510000000 1.0
C      1  0.5850910000000  0.4853860000000  0.5158760000000 1.0
C      1  0.4411830000000  0.4750550000000  0.4603020000000 1.0
C      1  0.4136060000000  0.5180320000000  0.5469710000000 1.0
C      1  0.5063580000000  0.5020410000000  0.4865030000000 1.0
C      1  0.4507600000000  0.4644210000000  0.4326200000000 1.0
C      1  0.5549170000000  0.5020810000000  0.4679070000000 1.0
C      1  0.4248620000000  0.5830970000000  0.4997660000000 1.0
C      1  0.4447370000000  0.4085780000000  0.4776930000000 1.0
C      1  0.5557550000000  0.4889120000000  0.6004620000000 1.0
C      1  0.4698510000000  0.4693010000000  0.6055850000000 1.0
C      1  0.4863220000000  0.5937210000000  0.5160920000000 1.0
C      1  0.4729620000000  0.3972150000000  0.5229950000000 1.0
C      1  0.5098130000000  0.6131980000000  0.5129060000000 1.0
C      1  0.3985880000000  0.4568810000000  0.5136890000000 1.0
C      1  0.4531770000000  0.5231030000000  0.4567950000000 1.0
C      1  0.5770200000000  0.4541940000000  0.5590070000000 1.0
C      1  0.4329580000000  0.4914460000000  0.5769280000000 1.0
C      1  0.5955670000000  0.5056090000000  0.4411990000000 1.0
C      1  0.5871600000000  0.5231010000000  0.5672690000000 1.0
C      1  0.5457440000000  0.3965950000000  0.4944310000000 1.0
C      1  0.4971180000000  0.4110770000000  0.5136130000000 1.0
C      1  0.4260160000000  0.5646130000000  0.4743640000000 1.0
C      1  0.5678940000000  0.5033540000000  0.5558600000000 1.0
C      1  0.5211950000000  0.4787700000000  0.4837460000000 1.0
C      1  0.4183010000000  0.4798790000000  0.4148340000000 1.0
C      1  0.4837410000000  0.5170670000000  0.6175860000000 1.0
C      1  0.4763170000000  0.4961860000000  0.5984320000000 1.0
C      1  0.5480680000000  0.6009720000000  0.4990850000000 1.0
C      1  0.4925870000000  0.5481360000000  0.4781670000000 1.0
C      1  0.6055420000000  0.5454140000000  0.5217760000000 1.0
C      1  0.5314080000000  0.3959410000000  0.5398790000000 1.0
C      1  0.4707670000000  0.4191710000000  0.4629260000000 1.0
C      1  0.4487170000000  0.3991650000000  0.5054780000000 1.0
C      1  0.4564490000000  0.5672130000000  0.5610130000000 1.0
C      1  0.5701400000000  0.5401370000000  0.5851440000000 1.0
C      1  0.5460640000000  0.5990040000000  0.5286060000000 1.0
C      1  0.4489490000000  0.5402630000000  0.5185610000000 1.0
C      1  0.4114560000000  0.4795700000000  0.5291990000000 1.0
C      1  0.5168720000000  0.5711130000000  0.4839420000000 1.0
C      1  0.5015210000000  0.5947150000000  0.5589240000000 1.0
C      1  0.4449180000000  0.5228230000000  0.4027100000000 1.0
C      1  0.4073660000000  0.4631430000000  0.4358150000000 1.0
C      1  0.6115550000000  0.4534000000000  0.5207390000000 1.0
C      1  0.5719060000000  0.5859380000000  0.4864360000000 1.0
C      1  0.5965870000000  0.4669490000000  0.5402410000000 1.0
C      1  0.5103140000000  0.4520560000000  0.4796380000000 1.0
C      1  0.4899450000000  0.5760830000000  0.4332480000000 1.0
C      1  0.5187510000000  0.4631520000000  0.6067170000000 1.0
C      1  0.5009960000000  0.5630580000000  0.5294880000000 1.0
C      1  0.4019040000000  0.5441580000000  0.4757220000000 1.0
C      1  0.5677820000000  0.4090080000000  0.5099000000000 1.0
C      1  0.5351850000000  0.4484520000000  0.5885490000000 1.0
C      1  0.5205870000000  0.4045020000000  0.4479830000000 1.0
C      1  0.5663210000000  0.4448330000000  0.4303130000000 1.0
C      1  0.6082030000000  0.4420450000000  0.4948340000000 1.0
C      1  0.4468920000000  0.5999930000000  0.5057720000000 1.0
C      1  0.5868710000000  0.5720330000000  0.4645410000000 1.0
C      1  0.4994100000000  0.4503730000000  0.5522250000000 1.0
C      1  0.6045420000000  0.5398950000000  0.5502460000000 1.0
C      1  0.4199610000000  0.4188360000000  0.4655550000000 1.0
C      1  0.5362250000000  0.5695620000000  0.4626410000000 1.0
C      1  0.4271890000000  0.4660340000000  0.4838590000000 1.0
C      1  0.4728400000000  0.5222510000000  0.5543750000000 1.0
C      1  0.6014020000000  0.4863440000000  0.4669280000000 1.0
C      1  0.4916290000000  0.4507890000000  0.6081460000000 1.0
C      1  0.4710040000000  0.4862040000000  0.3935850000000 1.0
C      1  0.5492170000000  0.4763480000000  0.4768850000000 1.0
C      1  0.5835910000000  0.4417760000000  0.4528320000000 1.0
C      1  0.5715910000000  0.5369110000000  0.4877550000000 1.0
C      1  0.5805970000000  0.4348730000000  0.5015680000000 1.0
C      1  0.4124210000000  0.5521370000000  0.4347000000000 1.0
C      1  0.4020530000000  0.4461590000000  0.4591510000000 1.0
C      1  0.5439370000000  0.4512450000000  0.5213510000000 1.0
C      1  0.4689010000000  0.4711680000000  0.4688080000000 1.0
C      1  0.4058140000000  0.5285920000000  0.4521240000000 1.0
C      1  0.5603620000000  0.5163680000000  0.5978270000000 1.0
C      1  0.3984920000000  0.4614560000000  0.4846520000000 1.0
C      1  0.4123170000000  0.4310360000000  0.5152400000000 1.0
C      1  0.4261530000000  0.5781860000000  0.4473480000000 1.0
C      1  0.4256390000000  0.5365250000000  0.4167930000000 1.0
C      1  0.4701790000000  0.4238140000000  0.4292960000000 1.0
C      1  0.4144060000000  0.4749610000000  0.5603340000000 1.0
C      1  0.4451410000000  0.4365720000000  0.4221740000000 1.0
C      1  0.4949360000000  0.4969630000000  0.5137010000000 1.0
C      1  0.5584860000000  0.4628940000000  0.5805110000000 1.0
C      1  0.5468130000000  0.4319250000000  0.4136630000000 1.0
C      1  0.4734190000000  0.5159850000000  0.4369290000000 1.0
C      1  0.5752630000000  0.5571980000000  0.4414420000000 1.0
C      1  0.5149590000000  0.5715450000000  0.4183060000000 1.0
C      1  0.5087230000000  0.5674750000000  0.5561400000000 1.0
C      1  0.5145320000000  0.4693340000000  0.4038470000000 1.0
C      1  0.4511540000000  0.5891890000000  0.4450870000000 1.0
C      1  0.4717680000000  0.5915870000000  0.5562350000000 1.0
C      1  0.4722680000000  0.5998630000000  0.4904180000000 1.0
C      1  0.4795370000000  0.4703160000000  0.5612240000000 1.0
C      1  0.5259590000000  0.5481850000000  0.5713740000000 1.0
C      1  0.3944290000000  0.5514770000000  0.5251660000000 1.0
C      1  0.5399950000000  0.4962260000000  0.5622630000000 1.0
C      1  0.5162090000000  0.5480660000000  0.4009490000000 1.0
C      1  0.4856740000000  0.5996970000000  0.4667320000000 1.0
C      1  0.4829030000000  0.5412160000000  0.6005690000000 1.0
C      1  0.5414660000000  0.5169890000000  0.5154950000000 1.0
C      1  0.5354010000000  0.4865410000000  0.3942540000000 1.0
C      1  0.5253730000000  0.5200790000000  0.5581000000000 1.0
C      1  0.5196940000000  0.5075680000000  0.3818550000000 1.0
C      1  0.4337780000000  0.4442340000000  0.4999940000000 1.0
C      1  0.5438970000000  0.4045860000000  0.4664250000000 1.0
C      1  0.5482580000000  0.5216730000000  0.4870160000000 1.0
C      1  0.5192540000000  0.5235230000000  0.4470330000000 1.0
C      1  0.4454080000000  0.4372160000000  0.5760800000000 1.0
C      1  0.5443070000000  0.5090840000000  0.4418180000000 1.0
C      1  0.5999780000000  0.5296230000000  0.4932180000000 1.0
C      1  0.4816190000000  0.4979970000000  0.5693160000000 1.0
C      1  0.5811300000000  0.5026630000000  0.4240730000000 1.0
C      1  0.4425480000000  0.5169530000000  0.5377190000000 1.0
C      1  0.4436080000000  0.4933380000000  0.4016560000000 1.0
C      1  0.4514630000000  0.4396790000000  0.5214560000000 1.0
C      1  0.5921130000000  0.5638690000000  0.5384350000000 1.0
C      1  0.5184400000000  0.5232440000000  0.5318710000000 1.0
C      1  0.5957840000000  0.5355460000000  0.4447600000000 1.0
C      1  0.4766070000000  0.5988330000000  0.4426420000000 1.0
C      1  0.5390160000000  0.5755760000000  0.4345870000000 1.0
C      1  0.4279130000000  0.5081920000000  0.4601650000000 1.0
C      1  0.4896860000000  0.5348790000000  0.3959090000000 1.0
C      1  0.5223360000000  0.3951960000000  0.5123700000000 1.0
C      1  0.4417460000000  0.5626410000000  0.5360080000000 1.0
C      1  0.4745350000000  0.4513770000000  0.5098240000000 1.0
C      1  0.4623320000000  0.6034400000000  0.5306650000000 1.0
C      1  0.6021290000000  0.4565780000000  0.4687070000000 1.0
C      1  0.5108100000000  0.4838870000000  0.5292150000000 1.0
C      1  0.4994470000000  0.5044510000000  0.4397280000000 1.0
C      1  0.5211910000000  0.6079100000000  0.5398740000000 1.0
C      1  0.5659630000000  0.4623420000000  0.5031450000000 1.0
C      1  0.4368460000000  0.5192010000000  0.5813790000000 1.0
C      1  0.4230450000000  0.4491470000000  0.5655800000000 1.0
C      1  0.5679690000000  0.5618610000000  0.5009820000000 1.0
C      1  0.5131750000000  0.5270660000000  0.4748350000000 1.0
C      1  0.5539350000000  0.5595510000000  0.5702180000000 1.0
C      1  0.5499260000000  0.4324730000000  0.4736520000000 1.0
C      1  0.6053730000000  0.5492640000000  0.4686680000000 1.0
C      1  0.5617030000000  0.5728660000000  0.5448220000000 1.0
C      1  0.4095800000000  0.5083650000000  0.5085810000000 1.0
C      1  0.3948690000000  0.5327310000000  0.5019300000000 1.0
C      1  0.5116300000000  0.5417560000000  0.6001830000000 1.0
C      1  0.5321290000000  0.4381530000000  0.4964650000000 1.0
C      1  0.5464900000000  0.4562860000000  0.4549710000000 1.0
C      1  0.5533510000000  0.5056680000000  0.4131070000000 1.0
END
