TITL C-4164243-3780-606 26.9418544374991 125000 -24607.766617554 0 0 164 (C1) n - 1
REM
REM in /home/nfs/bkarasulu/CARBON/AIRSS/Generating-Clusters/ReaxFF-fromJPCA2015/Units_Real/with-SteepDescent/Only-C1/SD-CG/Try1-3A/FIRE-CG
REM
REM
REM
REM
REM
REM ./C.cell (11c1c37f851c82e70ff6c80c92926a4b)
REM
REM compiler GCC version 9.2.1 20190827 (Red Hat 9.2.1-1)
REM options -cpp -mtune=generic -march=x86-64 -g -O0 -fpre-include=/usr/include/finclude/math-vector-fortran.h
REM seed -431138302 142482241 -938030331 -2017089283 -1545203037 1508469680 582750082 1364232409 -1486982373 -71630514 327812360 -1570187331 -2028767554 1333943498 -1160470345 356021779 138756055 1704515473 1279306366 1029990410 41188314 -1922344771 1708585389 1442956944 1821214872 -1574691104 -779908494 1582040763 742157123 -955553625 -535631316 1513119492 1305655909
REM
CELL 1.54180   50.00000   50.00000   50.00000   90.00000   90.00000   90.00000
LATT -1
SFAC C  
C      1  0.4907800000000  0.4849280000000  0.4103660000000 1.0
C      1  0.5856080000000  0.5742290000000  0.4770890000000 1.0
C      1  0.4446070000000  0.4689990000000  0.5681600000000 1.0
C      1  0.5821720000000  0.4667620000000  0.5280940000000 1.0
C      1  0.5466950000000  0.4664910000000  0.4104020000000 1.0
C      1  0.4674140000000  0.4166390000000  0.4656390000000 1.0
C      1  0.5107570000000  0.4183530000000  0.4532580000000 1.0
C      1  0.5467300000000  0.5984090000000  0.4875800000000 1.0
C      1  0.5597640000000  0.4192740000000  0.4879860000000 1.0
C      1  0.4401550000000  0.5803180000000  0.4854670000000 1.0
C      1  0.5395460000000  0.4782810000000  0.5007300000000 1.0
C      1  0.4839050000000  0.4015980000000  0.4857940000000 1.0
C      1  0.4947100000000  0.4561800000000  0.4100010000000 1.0
C      1  0.5506350000000  0.5122390000000  0.5548020000000 1.0
C      1  0.6026000000000  0.5097600000000  0.5352220000000 1.0
C      1  0.4363810000000  0.5112150000000  0.5011660000000 1.0
C      1  0.4859100000000  0.5224160000000  0.5570190000000 1.0
C      1  0.5661810000000  0.4836010000000  0.5100260000000 1.0
C      1  0.4651700000000  0.4370310000000  0.5111740000000 1.0
C      1  0.5791400000000  0.5227930000000  0.5472650000000 1.0
C      1  0.4568670000000  0.5217110000000  0.4009550000000 1.0
C      1  0.6095970000000  0.4768350000000  0.4945870000000 1.0
C      1  0.3963220000000  0.4598250000000  0.4970350000000 1.0
C      1  0.5700900000000  0.4793030000000  0.4605800000000 1.0
C      1  0.5309670000000  0.5436930000000  0.5208680000000 1.0
C      1  0.4774310000000  0.5952480000000  0.5245430000000 1.0
C      1  0.6066680000000  0.4821580000000  0.5231420000000 1.0
C      1  0.5228780000000  0.4545490000000  0.4193390000000 1.0
C      1  0.4791870000000  0.4264240000000  0.4427020000000 1.0
C      1  0.4346100000000  0.4231800000000  0.5459290000000 1.0
C      1  0.5402830000000  0.5417690000000  0.4892030000000 1.0
C      1  0.5343870000000  0.5174720000000  0.5308260000000 1.0
C      1  0.4950580000000  0.5763070000000  0.5568420000000 1.0
C      1  0.4983230000000  0.4408230000000  0.5858210000000 1.0
C      1  0.4830000000000  0.5292870000000  0.5105210000000 1.0
C      1  0.4741590000000  0.4746130000000  0.6078630000000 1.0
C      1  0.4977750000000  0.5098310000000  0.6078310000000 1.0
C      1  0.5348160000000  0.4130990000000  0.5758850000000 1.0
C      1  0.5112310000000  0.4022040000000  0.4788920000000 1.0
C      1  0.5828510000000  0.4914590000000  0.4360240000000 1.0
C      1  0.4976050000000  0.4967770000000  0.5593770000000 1.0
C      1  0.4267280000000  0.5137040000000  0.4385440000000 1.0
C      1  0.4630660000000  0.6174120000000  0.4761240000000 1.0
C      1  0.4778150000000  0.5440180000000  0.4077280000000 1.0
C      1  0.5259320000000  0.5010270000000  0.5093180000000 1.0
C      1  0.5683340000000  0.5717060000000  0.5262540000000 1.0
C      1  0.4538760000000  0.4426550000000  0.5775070000000 1.0
C      1  0.5447100000000  0.5141730000000  0.4271410000000 1.0
C      1  0.5261140000000  0.5603680000000  0.4722880000000 1.0
C      1  0.4757160000000  0.5445990000000  0.4799890000000 1.0
C      1  0.4226240000000  0.4187800000000  0.5210230000000 1.0
C      1  0.5029610000000  0.5478470000000  0.5168120000000 1.0
C      1  0.4936700000000  0.5803000000000  0.4477740000000 1.0
C      1  0.6064330000000  0.5033770000000  0.4795350000000 1.0
C      1  0.5805470000000  0.4521820000000  0.4621950000000 1.0
C      1  0.4317160000000  0.4667430000000  0.5421430000000 1.0
C      1  0.4632540000000  0.4928880000000  0.4034180000000 1.0
C      1  0.5069560000000  0.4425960000000  0.4713740000000 1.0
C      1  0.4906350000000  0.5465570000000  0.5753930000000 1.0
C      1  0.4148070000000  0.5773650000000  0.4703380000000 1.0
C      1  0.5082860000000  0.6042850000000  0.5245040000000 1.0
C      1  0.5698270000000  0.5845960000000  0.4993450000000 1.0
C      1  0.4691660000000  0.5007510000000  0.6043240000000 1.0
C      1  0.5561860000000  0.4325550000000  0.4621880000000 1.0
C      1  0.5483460000000  0.5465940000000  0.5962910000000 1.0
C      1  0.5329640000000  0.4504470000000  0.4673400000000 1.0
C      1  0.5200880000000  0.4045690000000  0.5499700000000 1.0
C      1  0.4735400000000  0.3955780000000  0.5163960000000 1.0
C      1  0.5446890000000  0.4380900000000  0.4163160000000 1.0
C      1  0.4513330000000  0.5741780000000  0.5676960000000 1.0
C      1  0.4673300000000  0.5277990000000  0.5351670000000 1.0
C      1  0.5460590000000  0.4824320000000  0.5624590000000 1.0
C      1  0.5364230000000  0.4760600000000  0.4711300000000 1.0
C      1  0.4903040000000  0.4741700000000  0.5145870000000 1.0
C      1  0.5000490000000  0.4973200000000  0.4360020000000 1.0
C      1  0.5119900000000  0.4913810000000  0.4618560000000 1.0
C      1  0.5567180000000  0.4697880000000  0.6009780000000 1.0
C      1  0.5589980000000  0.4914680000000  0.4187360000000 1.0
C      1  0.5192230000000  0.5877660000000  0.4366030000000 1.0
C      1  0.4193620000000  0.4370330000000  0.4521020000000 1.0
C      1  0.4484740000000  0.4951810000000  0.5817500000000 1.0
C      1  0.4515760000000  0.4713530000000  0.4196520000000 1.0
C      1  0.3913520000000  0.5027690000000  0.4733060000000 1.0
C      1  0.4102010000000  0.4643140000000  0.4473370000000 1.0
C      1  0.4746650000000  0.5260880000000  0.4563120000000 1.0
C      1  0.5102330000000  0.5326460000000  0.5947580000000 1.0
C      1  0.4298680000000  0.5397540000000  0.5000370000000 1.0
C      1  0.4563550000000  0.6021020000000  0.4550200000000 1.0
C      1  0.6092090000000  0.5349310000000  0.5208930000000 1.0
C      1  0.5822480000000  0.4310350000000  0.4992630000000 1.0
C      1  0.4527310000000  0.5077730000000  0.4553230000000 1.0
C      1  0.4635890000000  0.5542380000000  0.5822540000000 1.0
C      1  0.4494090000000  0.5548000000000  0.4888860000000 1.0
C      1  0.5222410000000  0.5276880000000  0.4183800000000 1.0
C      1  0.5344150000000  0.4113670000000  0.5012080000000 1.0
C      1  0.3821600000000  0.5037840000000  0.5028590000000 1.0
C      1  0.4276640000000  0.4816510000000  0.4320340000000 1.0
C      1  0.5373820000000  0.5299930000000  0.5810670000000 1.0
C      1  0.4694980000000  0.5920620000000  0.5541480000000 1.0
C      1  0.3935840000000  0.5663900000000  0.4858140000000 1.0
C      1  0.4979920000000  0.5642980000000  0.4711580000000 1.0
C      1  0.4445540000000  0.5450670000000  0.5648910000000 1.0
C      1  0.5255590000000  0.5502770000000  0.4008050000000 1.0
C      1  0.3926460000000  0.4798690000000  0.5172830000000 1.0
C      1  0.5116480000000  0.4298660000000  0.5401220000000 1.0
C      1  0.5698980000000  0.5753590000000  0.4527970000000 1.0
C      1  0.4588470000000  0.6005180000000  0.4965480000000 1.0
C      1  0.4471100000000  0.4591700000000  0.5163050000000 1.0
C      1  0.4455650000000  0.4650580000000  0.4880050000000 1.0
C      1  0.5262670000000  0.6028520000000  0.5044240000000 1.0
C      1  0.4911350000000  0.4727060000000  0.5429620000000 1.0
C      1  0.4346690000000  0.5174370000000  0.5698060000000 1.0
C      1  0.5165660000000  0.4230210000000  0.5946370000000 1.0
C      1  0.4997550000000  0.5613120000000  0.3954670000000 1.0
C      1  0.4722490000000  0.4478530000000  0.6003770000000 1.0
C      1  0.5563810000000  0.5297030000000  0.4467930000000 1.0
C      1  0.5063800000000  0.5041800000000  0.4869010000000 1.0
C      1  0.4005720000000  0.5525790000000  0.4607990000000 1.0
C      1  0.4819150000000  0.4028620000000  0.5437670000000 1.0
C      1  0.6122910000000  0.5310980000000  0.4923020000000 1.0
C      1  0.5205390000000  0.4865950000000  0.5752670000000 1.0
C      1  0.4949000000000  0.5268110000000  0.4327440000000 1.0
C      1  0.5379950000000  0.4223050000000  0.4390980000000 1.0
C      1  0.4425880000000  0.4363790000000  0.4704610000000 1.0
C      1  0.4383440000000  0.5346720000000  0.4185210000000 1.0
C      1  0.5415500000000  0.5845710000000  0.4582010000000 1.0
C      1  0.4171820000000  0.4244260000000  0.4762670000000 1.0
C      1  0.5752260000000  0.5505270000000  0.4387230000000 1.0
C      1  0.4066200000000  0.4330550000000  0.5003960000000 1.0
C      1  0.4239230000000  0.5072970000000  0.5445690000000 1.0
C      1  0.5211050000000  0.5877970000000  0.5453000000000 1.0
C      1  0.5190630000000  0.4884580000000  0.6050860000000 1.0
C      1  0.4651410000000  0.5813750000000  0.4371580000000 1.0
C      1  0.5568690000000  0.4310620000000  0.5678370000000 1.0
C      1  0.4440270000000  0.4926580000000  0.4797380000000 1.0
C      1  0.5976520000000  0.4516530000000  0.4846230000000 1.0
C      1  0.4098430000000  0.4833960000000  0.5391070000000 1.0
C      1  0.4823840000000  0.4993540000000  0.5029470000000 1.0
C      1  0.6013810000000  0.5091790000000  0.4489350000000 1.0
C      1  0.5418120000000  0.5696110000000  0.5374960000000 1.0
C      1  0.3882460000000  0.5285890000000  0.5125500000000 1.0
C      1  0.4033570000000  0.5512790000000  0.5099000000000 1.0
C      1  0.5412920000000  0.4037830000000  0.5299520000000 1.0
C      1  0.4716240000000  0.4471660000000  0.4242920000000 1.0
C      1  0.6004400000000  0.5380820000000  0.4476840000000 1.0
C      1  0.4039680000000  0.5235390000000  0.4573780000000 1.0
C      1  0.5192610000000  0.5786200000000  0.4090390000000 1.0
C      1  0.5740430000000  0.5002200000000  0.4856890000000 1.0
C      1  0.5850900000000  0.5481260000000  0.5339840000000 1.0
C      1  0.5610270000000  0.4599510000000  0.5747240000000 1.0
C      1  0.4575770000000  0.4194010000000  0.5592810000000 1.0
C      1  0.4991960000000  0.4483350000000  0.5564340000000 1.0
C      1  0.4547920000000  0.5590070000000  0.4207390000000 1.0
C      1  0.5169740000000  0.4325020000000  0.5133060000000 1.0
C      1  0.5430530000000  0.4816200000000  0.6185830000000 1.0
C      1  0.4952020000000  0.4469030000000  0.4995250000000 1.0
C      1  0.4895550000000  0.5685980000000  0.5286420000000 1.0
C      1  0.5621800000000  0.4211230000000  0.5415820000000 1.0
C      1  0.4497020000000  0.4120390000000  0.5088210000000 1.0
C      1  0.4486590000000  0.5066910000000  0.5272270000000 1.0
C      1  0.5804440000000  0.4374140000000  0.5260040000000 1.0
C      1  0.3961750000000  0.4744660000000  0.4712340000000 1.0
C      1  0.5564550000000  0.5235980000000  0.4758260000000 1.0
C      1  0.6049560000000  0.5515250000000  0.4737840000000 1.0
END
