TITL C-4164240-4114-501 -6.09287818240142 125000 -5230.75751427193 0 0 36 (C1) n - 1
REM
REM in /home/nfs/bkarasulu/CARBON/AIRSS/Generating-Clusters/ReaxFF-fromJPCA2015/Units_Real/with-SteepDescent/Only-C1/SD-CG/Try1-3A/FIRE-CG
REM
REM
REM
REM
REM
REM ./C.cell (11c1c37f851c82e70ff6c80c92926a4b)
REM
REM compiler GCC version 9.2.1 20190827 (Red Hat 9.2.1-1)
REM options -cpp -mtune=generic -march=x86-64 -g -O0 -fpre-include=/usr/include/finclude/math-vector-fortran.h
REM seed -2123849410 -1228511255 -830333036 1359046766 -473797269 270423818 1489726285 -1460038889 -1446939943 1461990575 1961280598 404222338 -1745112920 -1041739207 -2142270262 -2093643701 -419926618 591017725 970736126 -2136917052 -297720995 1531765987 -2022609532 32690667 690090771 -842836592 1484837745 -38804747 -1387870040 -20650933 2140070233 -1642487477 1516807839
REM
CELL 1.54180   50.00000   50.00000   50.00000   90.00000   90.00000   90.00000
LATT -1
SFAC C  
C      1  0.4936840000000  0.4421810000000  0.4886960000000 1.0
C      1  0.5360490000000  0.4617160000000  0.5091140000000 1.0
C      1  0.5526560000000  0.4857620000000  0.5126040000000 1.0
C      1  0.5015060000000  0.4578130000000  0.5420320000000 1.0
C      1  0.5085960000000  0.5390050000000  0.4946160000000 1.0
C      1  0.4808010000000  0.4713160000000  0.5462450000000 1.0
C      1  0.4593550000000  0.4856900000000  0.5356000000000 1.0
C      1  0.5217820000000  0.4447560000000  0.5288560000000 1.0
C      1  0.4649290000000  0.4605900000000  0.4654710000000 1.0
C      1  0.4663810000000  0.4527960000000  0.4925870000000 1.0
C      1  0.5065280000000  0.5138960000000  0.5109870000000 1.0
C      1  0.4817570000000  0.5505370000000  0.4926140000000 1.0
C      1  0.4664920000000  0.5497620000000  0.5177490000000 1.0
C      1  0.5551370000000  0.5306490000000  0.5348930000000 1.0
C      1  0.5528290000000  0.5304880000000  0.4866320000000 1.0
C      1  0.5071490000000  0.4237250000000  0.5098540000000 1.0
C      1  0.4845890000000  0.5222670000000  0.4499390000000 1.0
C      1  0.5146460000000  0.5207360000000  0.4463000000000 1.0
C      1  0.4681020000000  0.4784120000000  0.5079150000000 1.0
C      1  0.5359350000000  0.5242830000000  0.4652260000000 1.0
C      1  0.5042380000000  0.5237170000000  0.5386480000000 1.0
C      1  0.5286530000000  0.5381460000000  0.5455670000000 1.0
C      1  0.5102940000000  0.4976590000000  0.4264950000000 1.0
C      1  0.4949570000000  0.4889450000000  0.5007300000000 1.0
C      1  0.4438530000000  0.5236940000000  0.4849430000000 1.0
C      1  0.4803510000000  0.4980770000000  0.4336600000000 1.0
C      1  0.4683030000000  0.5345660000000  0.4714780000000 1.0
C      1  0.5607850000000  0.5134860000000  0.5114360000000 1.0
C      1  0.5163210000000  0.4069320000000  0.4920260000000 1.0
C      1  0.4437540000000  0.5307280000000  0.5142220000000 1.0
C      1  0.5422110000000  0.5549110000000  0.5254980000000 1.0
C      1  0.4764240000000  0.5338620000000  0.5409020000000 1.0
C      1  0.4698830000000  0.4763530000000  0.4490790000000 1.0
C      1  0.5113650000000  0.4656940000000  0.4928440000000 1.0
C      1  0.4543460000000  0.5148890000000  0.5376170000000 1.0
C      1  0.5353600000000  0.5519650000000  0.4969250000000 1.0
END
