TITL C-4164236-1577-416 13.0070965409726 125000 -4664.49729908624 0 0 33 (C1) n - 1
REM
REM in /home/nfs/bkarasulu/CARBON/AIRSS/Generating-Clusters/ReaxFF-fromJPCA2015/Units_Real/with-SteepDescent/Only-C1/SD-CG/Try1-3A/FIRE-CG
REM
REM
REM
REM
REM
REM ./C.cell (11c1c37f851c82e70ff6c80c92926a4b)
REM
REM compiler GCC version 9.2.1 20190827 (Red Hat 9.2.1-1)
REM options -cpp -mtune=generic -march=x86-64 -g -O0 -fpre-include=/usr/include/finclude/math-vector-fortran.h
REM seed -1462270371 -503340838 -1751568976 -951464498 -2003340999 -1269420116 382576732 -1179365422 32351632 1757208532 -796722401 -1439339424 1068272942 -69526706 1958626102 -1805615198 285725295 -1334776892 -1185661031 -416895115 -1161889396 -875852404 177662888 649345742 -731174365 -1175945075 -1872082819 -928848140 1171575451 626356941 1016914028 -2111313722 -508130262
REM
CELL 1.54180   50.00000   50.00000   50.00000   90.00000   90.00000   90.00000
LATT -1
SFAC C  
C      1  0.4854210000000  0.5479240000000  0.5456150000000 1.0
C      1  0.4897370000000  0.5519260000000  0.5200530000000 1.0
C      1  0.5554490000000  0.4779000000000  0.5340300000000 1.0
C      1  0.5525550000000  0.5086160000000  0.5064410000000 1.0
C      1  0.5091950000000  0.5200200000000  0.5671320000000 1.0
C      1  0.5247510000000  0.5016490000000  0.5501860000000 1.0
C      1  0.5361400000000  0.5213280000000  0.4589440000000 1.0
C      1  0.5262100000000  0.4803440000000  0.4880860000000 1.0
C      1  0.4546100000000  0.4897620000000  0.5065560000000 1.0
C      1  0.5260840000000  0.4505780000000  0.4793360000000 1.0
C      1  0.5069860000000  0.5512640000000  0.4843090000000 1.0
C      1  0.5153530000000  0.5142120000000  0.4383950000000 1.0
C      1  0.4455190000000  0.4929500000000  0.4652810000000 1.0
C      1  0.4868580000000  0.5395800000000  0.4960810000000 1.0
C      1  0.4938160000000  0.4683590000000  0.5287080000000 1.0
C      1  0.4778530000000  0.5074700000000  0.4880580000000 1.0
C      1  0.4594300000000  0.5164730000000  0.5563150000000 1.0
C      1  0.5467320000000  0.5035680000000  0.4800000000000 1.0
C      1  0.4989100000000  0.4460120000000  0.4687260000000 1.0
C      1  0.5512740000000  0.5062130000000  0.5342860000000 1.0
C      1  0.4916020000000  0.4931090000000  0.4410160000000 1.0
C      1  0.4697770000000  0.5033370000000  0.4577380000000 1.0
C      1  0.4718610000000  0.4634270000000  0.5125090000000 1.0
C      1  0.5084690000000  0.5424320000000  0.4345920000000 1.0
C      1  0.5147920000000  0.4730710000000  0.5441860000000 1.0
C      1  0.4283760000000  0.4859670000000  0.4853850000000 1.0
C      1  0.5026750000000  0.4935460000000  0.4880720000000 1.0
C      1  0.5238590000000  0.5482880000000  0.4623610000000 1.0
C      1  0.4955460000000  0.4651160000000  0.4448180000000 1.0
C      1  0.4817820000000  0.5324660000000  0.5685820000000 1.0
C      1  0.4776500000000  0.4454940000000  0.4900920000000 1.0
C      1  0.4492030000000  0.5030370000000  0.5322480000000 1.0
C      1  0.5415260000000  0.4545630000000  0.5418630000000 1.0
END
