TITL C-4164246-3563-548 10.251097422118 125000 -15735.310655728 0 0 107 (C1) n - 1
REM
REM in /home/nfs/bkarasulu/CARBON/AIRSS/Generating-Clusters/ReaxFF-fromJPCA2015/Units_Real/with-SteepDescent/Only-C1/SD-CG/Try1-3A/FIRE-CG
REM
REM
REM
REM
REM
REM ./C.cell (11c1c37f851c82e70ff6c80c92926a4b)
REM
REM compiler GCC version 9.2.1 20190827 (Red Hat 9.2.1-1)
REM options -cpp -mtune=generic -march=x86-64 -g -O0 -fpre-include=/usr/include/finclude/math-vector-fortran.h
REM seed 312610769 -1038139280 -1778046775 278298598 -1595584734 242468409 -2058212451 1168383484 2046346611 2127131786 98072359 -184595450 93276811 788947476 295190739 863070752 -682436666 332121388 -2132499436 31154992 -701451495 -684236464 -900074027 2126727686 -1719430138 1880240421 1881237372 187227668 1306970959 -947593870 -1586922764 419089474 -505501819
REM
CELL 1.54180   50.00000   50.00000   50.00000   90.00000   90.00000   90.00000
LATT -1
SFAC C  
C      1  0.4328570000000  0.4537620000000  0.5305830000000 1.0
C      1  0.4166680000000  0.4936950000000  0.4644170000000 1.0
C      1  0.5001310000000  0.5674040000000  0.4285330000000 1.0
C      1  0.4528210000000  0.4347720000000  0.5137170000000 1.0
C      1  0.4991830000000  0.5501640000000  0.5040530000000 1.0
C      1  0.4218610000000  0.5208150000000  0.4723240000000 1.0
C      1  0.5291360000000  0.5810820000000  0.4910040000000 1.0
C      1  0.5842140000000  0.5292000000000  0.4638610000000 1.0
C      1  0.5033380000000  0.4112170000000  0.4759400000000 1.0
C      1  0.4372290000000  0.5566010000000  0.5040600000000 1.0
C      1  0.4753810000000  0.4130520000000  0.5141370000000 1.0
C      1  0.5644410000000  0.4437110000000  0.5132680000000 1.0
C      1  0.4479120000000  0.4482980000000  0.4441300000000 1.0
C      1  0.5042450000000  0.4588930000000  0.4098510000000 1.0
C      1  0.4444070000000  0.5156640000000  0.4272020000000 1.0
C      1  0.4681330000000  0.4629050000000  0.5628170000000 1.0
C      1  0.5103410000000  0.4467190000000  0.5031240000000 1.0
C      1  0.5013330000000  0.4261990000000  0.5650990000000 1.0
C      1  0.4621820000000  0.5479140000000  0.4625040000000 1.0
C      1  0.5260110000000  0.4361350000000  0.5475810000000 1.0
C      1  0.5486950000000  0.4904700000000  0.4290100000000 1.0
C      1  0.4771960000000  0.5180020000000  0.4766070000000 1.0
C      1  0.4651000000000  0.4595710000000  0.5029450000000 1.0
C      1  0.5047400000000  0.5251360000000  0.4902550000000 1.0
C      1  0.5224380000000  0.4074040000000  0.4990470000000 1.0
C      1  0.5144080000000  0.5034160000000  0.5492840000000 1.0
C      1  0.4615560000000  0.5052930000000  0.4981770000000 1.0
C      1  0.4826920000000  0.5553620000000  0.5277780000000 1.0
C      1  0.5300560000000  0.4846430000000  0.5241930000000 1.0
C      1  0.4475820000000  0.4229380000000  0.4847490000000 1.0
C      1  0.5663340000000  0.4942870000000  0.4940610000000 1.0
C      1  0.5866540000000  0.5413400000000  0.5202880000000 1.0
C      1  0.4337110000000  0.4420570000000  0.4689360000000 1.0
C      1  0.4296310000000  0.4925010000000  0.4382790000000 1.0
C      1  0.4534360000000  0.5580790000000  0.5290730000000 1.0
C      1  0.5228000000000  0.4928060000000  0.4717550000000 1.0
C      1  0.4126160000000  0.4888780000000  0.5199640000000 1.0
C      1  0.4552840000000  0.4783910000000  0.4437810000000 1.0
C      1  0.4860850000000  0.5764530000000  0.5486060000000 1.0
C      1  0.5790920000000  0.5000180000000  0.4667380000000 1.0
C      1  0.5136520000000  0.5422130000000  0.4228590000000 1.0
C      1  0.5362280000000  0.4982630000000  0.4972710000000 1.0
C      1  0.5434150000000  0.5583530000000  0.4786860000000 1.0
C      1  0.4664000000000  0.5095420000000  0.5259720000000 1.0
C      1  0.4193200000000  0.5147780000000  0.5242750000000 1.0
C      1  0.5873540000000  0.5176800000000  0.5034150000000 1.0
C      1  0.4959020000000  0.4811880000000  0.4738520000000 1.0
C      1  0.5244010000000  0.5291450000000  0.5582380000000 1.0
C      1  0.5528850000000  0.5309440000000  0.5512230000000 1.0
C      1  0.4701630000000  0.5535600000000  0.5875550000000 1.0
C      1  0.5294450000000  0.5903170000000  0.5194300000000 1.0
C      1  0.5245280000000  0.5241970000000  0.4457890000000 1.0
C      1  0.5219960000000  0.4807610000000  0.4094520000000 1.0
C      1  0.5182290000000  0.5329290000000  0.5864500000000 1.0
C      1  0.4127260000000  0.4633390000000  0.5121210000000 1.0
C      1  0.4876580000000  0.4983790000000  0.5603600000000 1.0
C      1  0.5916430000000  0.5159650000000  0.5303300000000 1.0
C      1  0.4562130000000  0.5733120000000  0.5543970000000 1.0
C      1  0.4894340000000  0.5272910000000  0.4178860000000 1.0
C      1  0.4387380000000  0.5320960000000  0.4506110000000 1.0
C      1  0.5561570000000  0.4833230000000  0.5395840000000 1.0
C      1  0.5692810000000  0.4569870000000  0.4637610000000 1.0
C      1  0.4744770000000  0.4098400000000  0.4854080000000 1.0
C      1  0.5697470000000  0.5077220000000  0.5471680000000 1.0
C      1  0.5522300000000  0.5795330000000  0.5337280000000 1.0
C      1  0.5238330000000  0.4610650000000  0.5809190000000 1.0
C      1  0.5034980000000  0.4200820000000  0.5167560000000 1.0
C      1  0.4821870000000  0.5606280000000  0.4440980000000 1.0
C      1  0.4731400000000  0.4400350000000  0.4376910000000 1.0
C      1  0.4828020000000  0.5987700000000  0.5135590000000 1.0
C      1  0.5142570000000  0.4255700000000  0.4532500000000 1.0
C      1  0.5021930000000  0.5964800000000  0.5335550000000 1.0
C      1  0.4432200000000  0.5051180000000  0.5442440000000 1.0
C      1  0.5659820000000  0.5530250000000  0.5374900000000 1.0
C      1  0.5259830000000  0.5351560000000  0.4729460000000 1.0
C      1  0.4898170000000  0.4628940000000  0.4932440000000 1.0
C      1  0.5457210000000  0.4477930000000  0.5646680000000 1.0
C      1  0.5734620000000  0.4800510000000  0.4465160000000 1.0
C      1  0.5361000000000  0.4429270000000  0.4828820000000 1.0
C      1  0.5697470000000  0.5371610000000  0.4415300000000 1.0
C      1  0.4896550000000  0.5343210000000  0.5943400000000 1.0
C      1  0.5327540000000  0.5116860000000  0.6028150000000 1.0
C      1  0.4940770000000  0.4857590000000  0.4063220000000 1.0
C      1  0.5627910000000  0.4550910000000  0.5415940000000 1.0
C      1  0.4984920000000  0.4344840000000  0.4302620000000 1.0
C      1  0.4744290000000  0.4933760000000  0.4599510000000 1.0
C      1  0.5198430000000  0.4562070000000  0.5269450000000 1.0
C      1  0.5488630000000  0.5207800000000  0.4306020000000 1.0
C      1  0.4487210000000  0.5218290000000  0.5691550000000 1.0
C      1  0.4226230000000  0.5315000000000  0.5003170000000 1.0
C      1  0.5716240000000  0.4622680000000  0.4924700000000 1.0
C      1  0.4716610000000  0.5094440000000  0.4143490000000 1.0
C      1  0.4914430000000  0.5163990000000  0.5380870000000 1.0
C      1  0.4921730000000  0.4518930000000  0.5746030000000 1.0
C      1  0.5485270000000  0.4222500000000  0.4990960000000 1.0
C      1  0.4729650000000  0.5123410000000  0.5817160000000 1.0
C      1  0.5012590000000  0.5740040000000  0.4859730000000 1.0
C      1  0.5286820000000  0.4847920000000  0.5915950000000 1.0
C      1  0.5395870000000  0.4485110000000  0.4542850000000 1.0
C      1  0.4535160000000  0.5681980000000  0.4832980000000 1.0
C      1  0.4498100000000  0.4798450000000  0.4917940000000 1.0
C      1  0.4457430000000  0.4720560000000  0.5487480000000 1.0
C      1  0.5325730000000  0.4770040000000  0.4496130000000 1.0
C      1  0.4233650000000  0.4687440000000  0.4818370000000 1.0
C      1  0.4465120000000  0.5514350000000  0.5728780000000 1.0
C      1  0.5677070000000  0.5538870000000  0.4638310000000 1.0
C      1  0.4745160000000  0.5882380000000  0.4886240000000 1.0
END
