TITL C-4164240-4114-318 -6.74832790388336 125000 -8510.38737566251 0 0 57 (C1) n - 1
REM
REM in /home/nfs/bkarasulu/CARBON/AIRSS/Generating-Clusters/ReaxFF-fromJPCA2015/Units_Real/with-SteepDescent/Only-C1/SD-CG/Try1-3A/FIRE-CG
REM
REM
REM
REM
REM
REM ./C.cell (11c1c37f851c82e70ff6c80c92926a4b)
REM
REM compiler GCC version 9.2.1 20190827 (Red Hat 9.2.1-1)
REM options -cpp -mtune=generic -march=x86-64 -g -O0 -fpre-include=/usr/include/finclude/math-vector-fortran.h
REM seed 1448862883 -657148519 1953594596 -1159293253 1502874776 -1674837126 -867337614 -1868673875 2139488882 -724394385 -521279896 901468339 1145822998 938893241 1647995760 -973967254 -532452805 -1042146274 -547558935 1474684543 664323153 1079061318 1482238387 -1603961994 1923545036 626842074 351469216 1730937929 734234444 -462656793 -1537668733 -162213724 -104919333
REM
CELL 1.54180   50.00000   50.00000   50.00000   90.00000   90.00000   90.00000
LATT -1
SFAC C  
C      1  0.4421190000000  0.4272480000000  0.4981480000000 1.0
C      1  0.5688180000000  0.4837040000000  0.4776640000000 1.0
C      1  0.4940670000000  0.4438750000000  0.5094830000000 1.0
C      1  0.5223860000000  0.4772230000000  0.5561470000000 1.0
C      1  0.4969490000000  0.5067350000000  0.5706040000000 1.0
C      1  0.5174390000000  0.5807200000000  0.4917110000000 1.0
C      1  0.5090280000000  0.5365820000000  0.5389590000000 1.0
C      1  0.5670250000000  0.5016420000000  0.5169360000000 1.0
C      1  0.4814230000000  0.5710560000000  0.5317810000000 1.0
C      1  0.4360180000000  0.4820350000000  0.5268250000000 1.0
C      1  0.4937010000000  0.4785350000000  0.5615570000000 1.0
C      1  0.4792850000000  0.5788510000000  0.5050800000000 1.0
C      1  0.5251680000000  0.5040240000000  0.5648450000000 1.0
C      1  0.4604630000000  0.5530830000000  0.4543160000000 1.0
C      1  0.4367980000000  0.5470360000000  0.4578380000000 1.0
C      1  0.5103430000000  0.5658570000000  0.5305890000000 1.0
C      1  0.5144420000000  0.4650800000000  0.5079130000000 1.0
C      1  0.5150650000000  0.4862320000000  0.4861300000000 1.0
C      1  0.5419820000000  0.4648760000000  0.4518380000000 1.0
C      1  0.5071110000000  0.5360820000000  0.4571730000000 1.0
C      1  0.4608860000000  0.5296810000000  0.5217800000000 1.0
C      1  0.4708060000000  0.4266340000000  0.4661780000000 1.0
C      1  0.4877840000000  0.5579530000000  0.4578470000000 1.0
C      1  0.4906950000000  0.5037840000000  0.4951350000000 1.0
C      1  0.4682280000000  0.5461450000000  0.5447830000000 1.0
C      1  0.5461450000000  0.4446290000000  0.4732570000000 1.0
C      1  0.4655380000000  0.4916300000000  0.4859880000000 1.0
C      1  0.4872150000000  0.5212550000000  0.5166520000000 1.0
C      1  0.5632760000000  0.4590180000000  0.4927020000000 1.0
C      1  0.5369850000000  0.5363900000000  0.4577080000000 1.0
C      1  0.5080850000000  0.5099190000000  0.4424020000000 1.0
C      1  0.5588820000000  0.4732410000000  0.5181550000000 1.0
C      1  0.4582200000000  0.4508040000000  0.4557860000000 1.0
C      1  0.5334810000000  0.5237430000000  0.5475280000000 1.0
C      1  0.5331940000000  0.5699650000000  0.5121270000000 1.0
C      1  0.5714360000000  0.5103130000000  0.4892090000000 1.0
C      1  0.4886680000000  0.5324750000000  0.5600030000000 1.0
C      1  0.5509300000000  0.5458740000000  0.5073590000000 1.0
C      1  0.4724130000000  0.4615850000000  0.5521740000000 1.0
C      1  0.4436420000000  0.4721090000000  0.5535490000000 1.0
C      1  0.4992760000000  0.4813790000000  0.4549270000000 1.0
C      1  0.4398090000000  0.4947680000000  0.5010140000000 1.0
C      1  0.5365870000000  0.5152980000000  0.4347460000000 1.0
C      1  0.4752550000000  0.4417990000000  0.5315080000000 1.0
C      1  0.5413810000000  0.4885810000000  0.4694960000000 1.0
C      1  0.5549450000000  0.5342880000000  0.4815750000000 1.0
C      1  0.4415710000000  0.4312270000000  0.4713330000000 1.0
C      1  0.4702840000000  0.4766600000000  0.4617080000000 1.0
C      1  0.4942590000000  0.4289320000000  0.4839810000000 1.0
C      1  0.5181730000000  0.4348620000000  0.4680990000000 1.0
C      1  0.4492790000000  0.4253870000000  0.5259420000000 1.0
C      1  0.5329000000000  0.4672620000000  0.5303080000000 1.0
C      1  0.5545640000000  0.5253840000000  0.5280940000000 1.0
C      1  0.4362090000000  0.5236480000000  0.5045770000000 1.0
C      1  0.4330060000000  0.5361030000000  0.4797090000000 1.0
C      1  0.4918840000000  0.5804190000000  0.4792680000000 1.0
C      1  0.5144780000000  0.4563770000000  0.4478580000000 1.0
END
