TITL C-4164246-3563-351 -2.23156510099081e-08 125000 -2611.68148028375 0 0 19 (C1) n - 1
REM
REM in /home/nfs/bkarasulu/CARBON/AIRSS/Generating-Clusters/ReaxFF-fromJPCA2015/Units_Real/with-SteepDescent/Only-C1/SD-CG/Try1-3A/FIRE-CG
REM
REM
REM
REM
REM
REM ./C.cell (11c1c37f851c82e70ff6c80c92926a4b)
REM
REM compiler GCC version 9.2.1 20190827 (Red Hat 9.2.1-1)
REM options -cpp -mtune=generic -march=x86-64 -g -O0 -fpre-include=/usr/include/finclude/math-vector-fortran.h
REM seed -1211218165 1307231371 -1885877036 -1126411324 1758962815 -2145872718 1671196414 1605169398 1702312872 387432188 -1080365324 825551950 -520907306 1046666956 -571164973 -410541160 50767231 -303187084 -596767293 -1896173419 -982854552 1738262843 -606968983 1457674118 1511684040 13980982 825887842 2095868595 -394184475 -201198185 -657757981 -1715164188 -532365168
REM
CELL 1.54180   50.00000   50.00000   50.00000   90.00000   90.00000   90.00000
LATT -1
SFAC C  
C      1  0.5374470000000  0.5173690000000  0.5212760000000 1.0
C      1  0.5367230000000  0.5031550000000  0.4942530000000 1.0
C      1  0.4963850000000  0.5076260000000  0.4507350000000 1.0
C      1  0.4625290000000  0.5137710000000  0.5168130000000 1.0
C      1  0.4533610000000  0.4926920000000  0.4817680000000 1.0
C      1  0.4977080000000  0.5416550000000  0.5017090000000 1.0
C      1  0.5231710000000  0.4793440000000  0.4834900000000 1.0
C      1  0.5010920000000  0.4819510000000  0.4649410000000 1.0
C      1  0.4731690000000  0.5416820000000  0.4870020000000 1.0
C      1  0.4735450000000  0.4728260000000  0.4729680000000 1.0
C      1  0.4518330000000  0.5211820000000  0.4918430000000 1.0
C      1  0.5220990000000  0.4310330000000  0.5026070000000 1.0
C      1  0.5175320000000  0.5355980000000  0.5119630000000 1.0
C      1  0.5252100000000  0.4567440000000  0.5068050000000 1.0
C      1  0.5043480000000  0.5008060000000  0.5422640000000 1.0
C      1  0.5307930000000  0.4689120000000  0.5348000000000 1.0
C      1  0.4821520000000  0.5069550000000  0.5315100000000 1.0
C      1  0.4786920000000  0.5298240000000  0.4599460000000 1.0
C      1  0.5322100000000  0.4968730000000  0.5433060000000 1.0
END
