TITL C-4164238-4211-463 0.548116461914512 125000 -1836.31379142597 0 0 14 (C1) n - 1
REM
REM in /home/nfs/bkarasulu/CARBON/AIRSS/Generating-Clusters/ReaxFF-fromJPCA2015/Units_Real/with-SteepDescent/Only-C1/SD-CG/Try1-3A/FIRE-CG
REM
REM
REM
REM
REM
REM ./C.cell (11c1c37f851c82e70ff6c80c92926a4b)
REM
REM compiler GCC version 9.2.1 20190827 (Red Hat 9.2.1-1)
REM options -cpp -mtune=generic -march=x86-64 -g -O0 -fpre-include=/usr/include/finclude/math-vector-fortran.h
REM seed -1723264720 1094679472 684410184 263698818 -782266278 -600371060 765748848 -908851642 -948462188 -422672525 1968284056 1192572132 1315479735 -591803235 1387431399 52004748 -986216563 1329881353 -1522606586 -2059871523 -491323445 1153508957 1996378222 1404840115 1239081783 -460382521 -2030431234 -1580629994 1217466569 -420392804 35993968 -1944133868 1266255878
REM
CELL 1.54180   50.00000   50.00000   50.00000   90.00000   90.00000   90.00000
LATT -1
SFAC C  
C      1  0.4890320000000  0.5521050000000  0.5336400000000 1.0
C      1  0.5321080000000  0.4642120000000  0.4930240000000 1.0
C      1  0.5115530000000  0.5455590000000  0.4659730000000 1.0
C      1  0.4767620000000  0.4612100000000  0.5435400000000 1.0
C      1  0.4928540000000  0.5329640000000  0.5167480000000 1.0
C      1  0.5264320000000  0.5022230000000  0.4524680000000 1.0
C      1  0.5069050000000  0.5263260000000  0.4874770000000 1.0
C      1  0.4827950000000  0.4613000000000  0.5109700000000 1.0
C      1  0.5243490000000  0.5299200000000  0.4425300000000 1.0
C      1  0.4839600000000  0.5127610000000  0.5364140000000 1.0
C      1  0.5154660000000  0.5005910000000  0.4811120000000 1.0
C      1  0.4796660000000  0.4888690000000  0.5423810000000 1.0
C      1  0.5098930000000  0.4746530000000  0.4971980000000 1.0
C      1  0.4682260000000  0.4473060000000  0.4965260000000 1.0
END
