TITL C-4164239-2837-89 9.07621208238634 125000 -16857.2988833488 0 0 115 (C1) n - 1
REM
REM in /home/nfs/bkarasulu/CARBON/AIRSS/Generating-Clusters/ReaxFF-fromJPCA2015/Units_Real/with-SteepDescent/Only-C1/SD-CG/Try1-3A/FIRE-CG
REM
REM
REM
REM
REM
REM ./C.cell (11c1c37f851c82e70ff6c80c92926a4b)
REM
REM compiler GCC version 9.2.1 20190827 (Red Hat 9.2.1-1)
REM options -cpp -mtune=generic -march=x86-64 -g -O0 -fpre-include=/usr/include/finclude/math-vector-fortran.h
REM seed 1075361664 -863626470 1760900414 359844785 2023216052 -592404093 -1270371513 1437241550 163896872 -2084034147 1592989319 -191380476 721858426 350500551 -1447625445 1011387424 -684465240 668541503 695691354 1098234879 1360956651 1271711683 -1555184869 -1138418777 1340486732 903052128 1878856455 314896813 1339734002 2097717726 -494706285 -1803046964 684345817
REM
CELL 1.54180   50.00000   50.00000   50.00000   90.00000   90.00000   90.00000
LATT -1
SFAC C  
C      1  0.5294810000000  0.4347340000000  0.5652290000000 1.0
C      1  0.5389910000000  0.5252700000000  0.5339320000000 1.0
C      1  0.5420470000000  0.5795040000000  0.4696050000000 1.0
C      1  0.5335000000000  0.5926780000000  0.5399750000000 1.0
C      1  0.4353110000000  0.4906020000000  0.4417890000000 1.0
C      1  0.4868260000000  0.5513990000000  0.4984350000000 1.0
C      1  0.4829030000000  0.5058360000000  0.4235620000000 1.0
C      1  0.5514820000000  0.4731330000000  0.4215680000000 1.0
C      1  0.5725680000000  0.4887430000000  0.4382950000000 1.0
C      1  0.4185310000000  0.4427910000000  0.4796970000000 1.0
C      1  0.4707550000000  0.5498160000000  0.4255510000000 1.0
C      1  0.4894220000000  0.4459030000000  0.4806470000000 1.0
C      1  0.4922280000000  0.5281090000000  0.5315690000000 1.0
C      1  0.4596250000000  0.4579340000000  0.5086590000000 1.0
C      1  0.4906710000000  0.5073790000000  0.4527510000000 1.0
C      1  0.5257720000000  0.4151970000000  0.5154680000000 1.0
C      1  0.4785470000000  0.5080750000000  0.4777500000000 1.0
C      1  0.5036870000000  0.4656980000000  0.4694450000000 1.0
C      1  0.4451370000000  0.5545720000000  0.4966450000000 1.0
C      1  0.5334220000000  0.5647760000000  0.5485440000000 1.0
C      1  0.4840020000000  0.5589040000000  0.5621240000000 1.0
C      1  0.5409240000000  0.4248970000000  0.5390500000000 1.0
C      1  0.5580110000000  0.4795680000000  0.5712560000000 1.0
C      1  0.4682770000000  0.4407420000000  0.4204810000000 1.0
C      1  0.5828070000000  0.5176420000000  0.5217750000000 1.0
C      1  0.4100010000000  0.4887620000000  0.4754000000000 1.0
C      1  0.5509740000000  0.5092340000000  0.5686920000000 1.0
C      1  0.4804890000000  0.4860560000000  0.5900520000000 1.0
C      1  0.5810880000000  0.4705620000000  0.4906790000000 1.0
C      1  0.5471650000000  0.4795400000000  0.5258070000000 1.0
C      1  0.5644420000000  0.4411370000000  0.5333820000000 1.0
C      1  0.4159280000000  0.4955960000000  0.5330280000000 1.0
C      1  0.4507590000000  0.4974720000000  0.5640610000000 1.0
C      1  0.4344660000000  0.5287220000000  0.4934800000000 1.0
C      1  0.4670610000000  0.5433970000000  0.5793720000000 1.0
C      1  0.4171690000000  0.5082640000000  0.4567130000000 1.0
C      1  0.5319200000000  0.4927970000000  0.4120930000000 1.0
C      1  0.5850860000000  0.5489810000000  0.4766500000000 1.0
C      1  0.4492200000000  0.4773090000000  0.4891400000000 1.0
C      1  0.5668510000000  0.4432350000000  0.5040770000000 1.0
C      1  0.4965630000000  0.5253250000000  0.4914790000000 1.0
C      1  0.5405360000000  0.5201690000000  0.4196910000000 1.0
C      1  0.5762660000000  0.5266200000000  0.4589750000000 1.0
C      1  0.4166810000000  0.5236970000000  0.5399890000000 1.0
C      1  0.4493270000000  0.5564190000000  0.5264610000000 1.0
C      1  0.5232860000000  0.5184660000000  0.5753650000000 1.0
C      1  0.5540090000000  0.5200090000000  0.4774700000000 1.0
C      1  0.4864390000000  0.4578860000000  0.5042450000000 1.0
C      1  0.4353550000000  0.5428560000000  0.5484360000000 1.0
C      1  0.5088410000000  0.4295450000000  0.4319900000000 1.0
C      1  0.5650240000000  0.5218640000000  0.5462630000000 1.0
C      1  0.5397130000000  0.4956570000000  0.4718610000000 1.0
C      1  0.5273760000000  0.5817040000000  0.4950000000000 1.0
C      1  0.4073910000000  0.4669330000000  0.4932140000000 1.0
C      1  0.4549170000000  0.4750930000000  0.5825790000000 1.0
C      1  0.4470480000000  0.5565340000000  0.4672780000000 1.0
C      1  0.4492900000000  0.4719740000000  0.4607440000000 1.0
C      1  0.4956670000000  0.5734370000000  0.4614300000000 1.0
C      1  0.5307330000000  0.5024090000000  0.5224970000000 1.0
C      1  0.4454980000000  0.5266800000000  0.5683450000000 1.0
C      1  0.4465300000000  0.5333310000000  0.4286520000000 1.0
C      1  0.5017400000000  0.4456220000000  0.5666140000000 1.0
C      1  0.5672340000000  0.5172120000000  0.4327970000000 1.0
C      1  0.5316560000000  0.4617160000000  0.5105780000000 1.0
C      1  0.4908910000000  0.4161970000000  0.4517040000000 1.0
C      1  0.4885400000000  0.4167720000000  0.4809330000000 1.0
C      1  0.4704740000000  0.5657520000000  0.4502970000000 1.0
C      1  0.5153010000000  0.5972320000000  0.5176290000000 1.0
C      1  0.4642690000000  0.4261150000000  0.4467930000000 1.0
C      1  0.4763500000000  0.4190520000000  0.5308170000000 1.0
C      1  0.4146600000000  0.4704790000000  0.5246980000000 1.0
C      1  0.4840280000000  0.4230630000000  0.5588140000000 1.0
C      1  0.5577060000000  0.5761450000000  0.5367660000000 1.0
C      1  0.5141930000000  0.4752130000000  0.4447270000000 1.0
C      1  0.4966110000000  0.4125930000000  0.5098380000000 1.0
C      1  0.5099810000000  0.5025740000000  0.5033740000000 1.0
C      1  0.5864980000000  0.5434330000000  0.5062240000000 1.0
C      1  0.5332870000000  0.4367850000000  0.4265530000000 1.0
C      1  0.5311780000000  0.5396480000000  0.4760170000000 1.0
C      1  0.4904480000000  0.5342900000000  0.5954710000000 1.0
C      1  0.4525990000000  0.5057870000000  0.4238070000000 1.0
C      1  0.4314500000000  0.5357280000000  0.4541430000000 1.0
C      1  0.4729790000000  0.5102970000000  0.5250930000000 1.0
C      1  0.4444970000000  0.4500380000000  0.5662170000000 1.0
C      1  0.4842380000000  0.5772750000000  0.4891330000000 1.0
C      1  0.5089860000000  0.5452510000000  0.5746650000000 1.0
C      1  0.5282760000000  0.5542730000000  0.5007500000000 1.0
C      1  0.5011310000000  0.5061560000000  0.5927610000000 1.0
C      1  0.4957800000000  0.4691990000000  0.5494170000000 1.0
C      1  0.5467630000000  0.4233910000000  0.4950230000000 1.0
C      1  0.5196170000000  0.5058320000000  0.4545190000000 1.0
C      1  0.4175890000000  0.5321270000000  0.5141480000000 1.0
C      1  0.5825730000000  0.4942620000000  0.5056670000000 1.0
C      1  0.5664850000000  0.4683900000000  0.5447980000000 1.0
C      1  0.5400060000000  0.4586320000000  0.5753080000000 1.0
C      1  0.5060000000000  0.4597030000000  0.5239460000000 1.0
C      1  0.5045250000000  0.4816110000000  0.4157630000000 1.0
C      1  0.5675860000000  0.5725030000000  0.4820960000000 1.0
C      1  0.5221510000000  0.4782830000000  0.4882170000000 1.0
C      1  0.4311450000000  0.4497780000000  0.5411840000000 1.0
C      1  0.5207330000000  0.5459510000000  0.5286630000000 1.0
C      1  0.4957970000000  0.4497680000000  0.4154960000000 1.0
C      1  0.5214100000000  0.5413780000000  0.4269290000000 1.0
C      1  0.4948380000000  0.5350760000000  0.4188320000000 1.0
C      1  0.4572930000000  0.4307130000000  0.5661280000000 1.0
C      1  0.4740040000000  0.4895570000000  0.5469430000000 1.0
C      1  0.5372810000000  0.4565630000000  0.4386030000000 1.0
C      1  0.4554710000000  0.5068240000000  0.4966370000000 1.0
C      1  0.4513890000000  0.4358000000000  0.5251870000000 1.0
C      1  0.5226300000000  0.5606210000000  0.4535220000000 1.0
C      1  0.4445770000000  0.4435640000000  0.4650050000000 1.0
C      1  0.4734990000000  0.5691720000000  0.5369030000000 1.0
C      1  0.4878750000000  0.5874280000000  0.5184190000000 1.0
C      1  0.5722600000000  0.5681720000000  0.5121690000000 1.0
C      1  0.5774880000000  0.4794320000000  0.4648730000000 1.0
END
