TITL C-4164239-2837-249 -2.0376105283651 125000 -8729.94562132425 0 0 60 (C1) n - 1
REM
REM in /home/nfs/bkarasulu/CARBON/AIRSS/Generating-Clusters/ReaxFF-fromJPCA2015/Units_Real/with-SteepDescent/Only-C1/SD-CG/Try1-3A/FIRE-CG
REM
REM
REM
REM
REM
REM ./C.cell (11c1c37f851c82e70ff6c80c92926a4b)
REM
REM compiler GCC version 9.2.1 20190827 (Red Hat 9.2.1-1)
REM options -cpp -mtune=generic -march=x86-64 -g -O0 -fpre-include=/usr/include/finclude/math-vector-fortran.h
REM seed -173288973 -1072833187 1374250108 1022614714 1427065772 1693581404 1277288302 -165325047 857296364 -921893792 -961135353 595434692 -185281024 -705502626 2001181238 -845705270 -1512806692 706637737 1391986992 1576189488 -1100514749 1584495334 -1001353946 -1388502192 75624574 -1649416639 317627259 -1059849834 -1357891263 -697534760 1256968289 1647098830 739745964
REM
CELL 1.54180   50.00000   50.00000   50.00000   90.00000   90.00000   90.00000
LATT -1
SFAC C  
C      1  0.5330860000000  0.4489730000000  0.4997750000000 1.0
C      1  0.4940300000000  0.5702120000000  0.4935930000000 1.0
C      1  0.5367990000000  0.4613900000000  0.4699390000000 1.0
C      1  0.4390470000000  0.4441860000000  0.4968790000000 1.0
C      1  0.5604600000000  0.5056720000000  0.4464150000000 1.0
C      1  0.4533450000000  0.4387850000000  0.5231290000000 1.0
C      1  0.4573480000000  0.4776600000000  0.5632690000000 1.0
C      1  0.4793540000000  0.4875100000000  0.5025640000000 1.0
C      1  0.4705300000000  0.5308670000000  0.4761890000000 1.0
C      1  0.4830540000000  0.4137310000000  0.4946740000000 1.0
C      1  0.4457650000000  0.4560900000000  0.5461390000000 1.0
C      1  0.5545330000000  0.5388870000000  0.5466750000000 1.0
C      1  0.5208370000000  0.4556610000000  0.4453440000000 1.0
C      1  0.4863060000000  0.5416870000000  0.4538440000000 1.0
C      1  0.4852660000000  0.5110970000000  0.5625190000000 1.0
C      1  0.4968570000000  0.4397080000000  0.4499330000000 1.0
C      1  0.5651210000000  0.5143000000000  0.5367980000000 1.0
C      1  0.5753690000000  0.5323660000000  0.4890050000000 1.0
C      1  0.4341480000000  0.5119710000000  0.5200720000000 1.0
C      1  0.5589090000000  0.4478970000000  0.5126230000000 1.0
C      1  0.5075610000000  0.4492280000000  0.5196320000000 1.0
C      1  0.4721140000000  0.4809480000000  0.4371080000000 1.0
C      1  0.4817850000000  0.4281170000000  0.5190640000000 1.0
C      1  0.4590890000000  0.5087330000000  0.5603420000000 1.0
C      1  0.4493660000000  0.4760990000000  0.4553670000000 1.0
C      1  0.5343450000000  0.5511380000000  0.4678950000000 1.0
C      1  0.4354390000000  0.4953730000000  0.4706990000000 1.0
C      1  0.5243200000000  0.4845410000000  0.5601330000000 1.0
C      1  0.5498190000000  0.5456800000000  0.4957430000000 1.0
C      1  0.4235100000000  0.5125370000000  0.4897300000000 1.0
C      1  0.5628180000000  0.5010440000000  0.5117420000000 1.0
C      1  0.5759080000000  0.5147650000000  0.4680490000000 1.0
C      1  0.4527320000000  0.4510080000000  0.4720060000000 1.0
C      1  0.4937720000000  0.4625820000000  0.4972930000000 1.0
C      1  0.5167930000000  0.5087510000000  0.4812760000000 1.0
C      1  0.4516490000000  0.5514950000000  0.4844390000000 1.0
C      1  0.4814370000000  0.4410300000000  0.4763230000000 1.0
C      1  0.4652280000000  0.5515800000000  0.5294520000000 1.0
C      1  0.4507770000000  0.5276770000000  0.5384190000000 1.0
C      1  0.5260150000000  0.5384720000000  0.5574070000000 1.0
C      1  0.5395120000000  0.5149750000000  0.4982850000000 1.0
C      1  0.5422010000000  0.5311350000000  0.4482860000000 1.0
C      1  0.4500910000000  0.5640370000000  0.5094210000000 1.0
C      1  0.4884780000000  0.5120370000000  0.4898030000000 1.0
C      1  0.4958260000000  0.5208840000000  0.4384550000000 1.0
C      1  0.4657770000000  0.5762890000000  0.4900250000000 1.0
C      1  0.5067710000000  0.5583920000000  0.4695200000000 1.0
C      1  0.4507860000000  0.4888420000000  0.5139160000000 1.0
C      1  0.5090370000000  0.4622200000000  0.5491670000000 1.0
C      1  0.5200740000000  0.5125450000000  0.4517850000000 1.0
C      1  0.5173140000000  0.5558700000000  0.5353380000000 1.0
C      1  0.4837820000000  0.4634300000000  0.5644330000000 1.0
C      1  0.5489800000000  0.4800350000000  0.5489850000000 1.0
C      1  0.5120260000000  0.5135140000000  0.5647450000000 1.0
C      1  0.5661810000000  0.4742570000000  0.5276020000000 1.0
C      1  0.5443580000000  0.5560840000000  0.5247710000000 1.0
C      1  0.5509600000000  0.4823210000000  0.4605080000000 1.0
C      1  0.4945140000000  0.4618390000000  0.4326880000000 1.0
C      1  0.4923210000000  0.5579510000000  0.5202420000000 1.0
C      1  0.4763720000000  0.5038920000000  0.4405300000000 1.0
END
