TITL C-4164236-1577-604 107.863972008812 125000 -21387.3859779048 0 0 145 (C1) n - 1
REM
REM in /home/nfs/bkarasulu/CARBON/AIRSS/Generating-Clusters/ReaxFF-fromJPCA2015/Units_Real/with-SteepDescent/Only-C1/SD-CG/Try1-3A/FIRE-CG
REM
REM
REM
REM
REM
REM ./C.cell (11c1c37f851c82e70ff6c80c92926a4b)
REM
REM compiler GCC version 9.2.1 20190827 (Red Hat 9.2.1-1)
REM options -cpp -mtune=generic -march=x86-64 -g -O0 -fpre-include=/usr/include/finclude/math-vector-fortran.h
REM seed 1843240848 1042861038 1949269660 -798423389 -1735193004 -667791317 -340582341 -1902021172 122137832 -1207181551 1883419012 1445408745 1746323968 1703571469 -1389906432 2070888287 411565390 1110332046 104921634 -1573433721 -622590085 -1463093403 -1810627630 -1283110139 551635893 249847937 -1517513069 -1057591172 192300333 1829317570 444646584 145691920 1836395199
REM
CELL 1.54180   50.00000   50.00000   50.00000   90.00000   90.00000   90.00000
LATT -1
SFAC C  
C      1  0.5484720000000  0.5177700000000  0.5312470000000 1.0
C      1  0.5070410000000  0.4838870000000  0.4021190000000 1.0
C      1  0.4331650000000  0.5459100000000  0.5006260000000 1.0
C      1  0.4618170000000  0.5425980000000  0.4172760000000 1.0
C      1  0.4733350000000  0.5437100000000  0.5868690000000 1.0
C      1  0.4914710000000  0.5084180000000  0.4081620000000 1.0
C      1  0.4848530000000  0.4069060000000  0.4484230000000 1.0
C      1  0.5750170000000  0.4955460000000  0.5717030000000 1.0
C      1  0.4283570000000  0.4986340000000  0.5289770000000 1.0
C      1  0.4522300000000  0.4383270000000  0.4311690000000 1.0
C      1  0.5093720000000  0.4356280000000  0.5061430000000 1.0
C      1  0.5675080000000  0.5637490000000  0.5508260000000 1.0
C      1  0.4248020000000  0.4547410000000  0.5594290000000 1.0
C      1  0.4741780000000  0.4582240000000  0.4316790000000 1.0
C      1  0.5070000000000  0.5837510000000  0.5207350000000 1.0
C      1  0.4658040000000  0.4418980000000  0.4751390000000 1.0
C      1  0.4702630000000  0.5027180000000  0.5574130000000 1.0
C      1  0.4004880000000  0.4780040000000  0.4960350000000 1.0
C      1  0.4255390000000  0.5436020000000  0.4739170000000 1.0
C      1  0.5497280000000  0.4831710000000  0.5638690000000 1.0
C      1  0.4415060000000  0.4865630000000  0.4187780000000 1.0
C      1  0.4647930000000  0.5961620000000  0.5216160000000 1.0
C      1  0.5532010000000  0.5255720000000  0.4196130000000 1.0
C      1  0.4723400000000  0.5192720000000  0.4598820000000 1.0
C      1  0.4318830000000  0.4943270000000  0.4623040000000 1.0
C      1  0.5017510000000  0.5366560000000  0.4164570000000 1.0
C      1  0.5931630000000  0.4823130000000  0.4974900000000 1.0
C      1  0.4730120000000  0.4039250000000  0.4950540000000 1.0
C      1  0.4289430000000  0.4818200000000  0.5746910000000 1.0
C      1  0.4601720000000  0.5457550000000  0.5024750000000 1.0
C      1  0.5452900000000  0.5015470000000  0.4586380000000 1.0
C      1  0.4917470000000  0.5606570000000  0.5748200000000 1.0
C      1  0.4841190000000  0.5978280000000  0.5416660000000 1.0
C      1  0.4140970000000  0.5166050000000  0.4730220000000 1.0
C      1  0.5581790000000  0.5446570000000  0.5723810000000 1.0
C      1  0.4323140000000  0.4597390000000  0.4307740000000 1.0
C      1  0.5021490000000  0.4409560000000  0.5837100000000 1.0
C      1  0.4713970000000  0.4583900000000  0.5471420000000 1.0
C      1  0.5036900000000  0.4175040000000  0.5277860000000 1.0
C      1  0.5805220000000  0.4548230000000  0.4972810000000 1.0
C      1  0.4527770000000  0.5276090000000  0.4392520000000 1.0
C      1  0.4127030000000  0.4753490000000  0.5216580000000 1.0
C      1  0.5682350000000  0.5683940000000  0.5008210000000 1.0
C      1  0.5160440000000  0.5576910000000  0.5080680000000 1.0
C      1  0.5761680000000  0.5303760000000  0.4353750000000 1.0
C      1  0.4889540000000  0.4620760000000  0.5708090000000 1.0
C      1  0.4727320000000  0.4700690000000  0.5203900000000 1.0
C      1  0.4494030000000  0.4164020000000  0.4778450000000 1.0
C      1  0.4641880000000  0.4517580000000  0.5010990000000 1.0
C      1  0.4846650000000  0.5594710000000  0.4178490000000 1.0
C      1  0.4650120000000  0.5375500000000  0.5290380000000 1.0
C      1  0.4762600000000  0.4705150000000  0.5974350000000 1.0
C      1  0.5317460000000  0.4718470000000  0.5841960000000 1.0
C      1  0.4979090000000  0.5082930000000  0.4972000000000 1.0
C      1  0.4307830000000  0.5111180000000  0.5676480000000 1.0
C      1  0.4943220000000  0.5335470000000  0.5382780000000 1.0
C      1  0.4636450000000  0.5624050000000  0.5694240000000 1.0
C      1  0.5430070000000  0.4443840000000  0.5844490000000 1.0
C      1  0.5365250000000  0.4450210000000  0.5023780000000 1.0
C      1  0.5354350000000  0.5934120000000  0.5267440000000 1.0
C      1  0.5356970000000  0.5342970000000  0.5572820000000 1.0
C      1  0.4988250000000  0.6045550000000  0.4537480000000 1.0
C      1  0.4501760000000  0.4420780000000  0.5576230000000 1.0
C      1  0.5241960000000  0.4069630000000  0.4787270000000 1.0
C      1  0.5912200000000  0.5042550000000  0.4457200000000 1.0
C      1  0.5816730000000  0.5601790000000  0.4731330000000 1.0
C      1  0.4896500000000  0.4471990000000  0.4886210000000 1.0
C      1  0.5411040000000  0.5526640000000  0.4978920000000 1.0
C      1  0.5968220000000  0.4929150000000  0.4712870000000 1.0
C      1  0.5093280000000  0.4660540000000  0.4575030000000 1.0
C      1  0.5930620000000  0.4990650000000  0.5231930000000 1.0
C      1  0.5368790000000  0.4738110000000  0.4986620000000 1.0
C      1  0.4978980000000  0.5057850000000  0.5501940000000 1.0
C      1  0.5423000000000  0.4883660000000  0.5364200000000 1.0
C      1  0.4704450000000  0.6023180000000  0.4517150000000 1.0
C      1  0.5263850000000  0.4179480000000  0.5462850000000 1.0
C      1  0.5900590000000  0.4852640000000  0.5486360000000 1.0
C      1  0.5131540000000  0.4863850000000  0.5083880000000 1.0
C      1  0.4460370000000  0.5564570000000  0.5458820000000 1.0
C      1  0.5403360000000  0.5647500000000  0.4399390000000 1.0
C      1  0.4232650000000  0.5328610000000  0.5497170000000 1.0
C      1  0.4954630000000  0.4005430000000  0.4760610000000 1.0
C      1  0.4874850000000  0.5892100000000  0.4983120000000 1.0
C      1  0.5589880000000  0.5160330000000  0.4791070000000 1.0
C      1  0.5787930000000  0.5243630000000  0.5278600000000 1.0
C      1  0.4565130000000  0.5081490000000  0.5300650000000 1.0
C      1  0.5723460000000  0.4543890000000  0.4467650000000 1.0
C      1  0.4651560000000  0.4929210000000  0.4716760000000 1.0
C      1  0.5390530000000  0.5126120000000  0.6003430000000 1.0
C      1  0.4747160000000  0.4106620000000  0.5228140000000 1.0
C      1  0.5059060000000  0.4209580000000  0.4337100000000 1.0
C      1  0.5781950000000  0.4810340000000  0.4352580000000 1.0
C      1  0.4566950000000  0.4142820000000  0.4473540000000 1.0
C      1  0.4591570000000  0.5668720000000  0.4293330000000 1.0
C      1  0.5733150000000  0.4436530000000  0.5233730000000 1.0
C      1  0.5540490000000  0.4263180000000  0.5405170000000 1.0
C      1  0.5270240000000  0.5860020000000  0.4538150000000 1.0
C      1  0.5099720000000  0.4362400000000  0.4086190000000 1.0
C      1  0.4411310000000  0.5794670000000  0.5260500000000 1.0
C      1  0.4674530000000  0.4943470000000  0.4102890000000 1.0
C      1  0.5228960000000  0.4237690000000  0.5755820000000 1.0
C      1  0.4923740000000  0.5388880000000  0.4709930000000 1.0
C      1  0.4512650000000  0.4237910000000  0.5355050000000 1.0
C      1  0.4271690000000  0.4303290000000  0.5195510000000 1.0
C      1  0.5296670000000  0.5430700000000  0.4226740000000 1.0
C      1  0.4913570000000  0.4590430000000  0.4075280000000 1.0
C      1  0.5830410000000  0.4562840000000  0.5475670000000 1.0
C      1  0.5432850000000  0.5244710000000  0.5019130000000 1.0
C      1  0.5645350000000  0.4393040000000  0.5644130000000 1.0
C      1  0.5295050000000  0.4823700000000  0.4713940000000 1.0
C      1  0.5043310000000  0.5324780000000  0.5115230000000 1.0
C      1  0.5146820000000  0.5547630000000  0.5563260000000 1.0
C      1  0.5047760000000  0.6075790000000  0.4822020000000 1.0
C      1  0.5347500000000  0.4778950000000  0.4083020000000 1.0
C      1  0.4490340000000  0.4683160000000  0.5886220000000 1.0
C      1  0.5520870000000  0.4951540000000  0.4268310000000 1.0
C      1  0.4263800000000  0.5740760000000  0.5017720000000 1.0
C      1  0.4870380000000  0.4978700000000  0.6003180000000 1.0
C      1  0.5136860000000  0.4856700000000  0.5366250000000 1.0
C      1  0.4112790000000  0.4542570000000  0.4799380000000 1.0
C      1  0.5466170000000  0.4248470000000  0.4840790000000 1.0
C      1  0.5699540000000  0.4423090000000  0.4732760000000 1.0
C      1  0.5794370000000  0.5532060000000  0.5265890000000 1.0
C      1  0.5367470000000  0.4492680000000  0.4095310000000 1.0
C      1  0.5167180000000  0.4937930000000  0.5999430000000 1.0
C      1  0.4689820000000  0.5148130000000  0.5844420000000 1.0
C      1  0.4554200000000  0.5757240000000  0.4587210000000 1.0
C      1  0.4192490000000  0.4669340000000  0.4554140000000 1.0
C      1  0.5406810000000  0.5751760000000  0.5481850000000 1.0
C      1  0.4322500000000  0.5075220000000  0.4373240000000 1.0
C      1  0.5686190000000  0.5557730000000  0.4466620000000 1.0
C      1  0.4756150000000  0.5623260000000  0.4835570000000 1.0
C      1  0.4280570000000  0.5729210000000  0.4718220000000 1.0
C      1  0.5486200000000  0.4415150000000  0.4355500000000 1.0
C      1  0.4721720000000  0.4950230000000  0.5049980000000 1.0
C      1  0.5333270000000  0.5993860000000  0.4786750000000 1.0
C      1  0.5648880000000  0.5192300000000  0.5865600000000 1.0
C      1  0.4032250000000  0.5070140000000  0.4981000000000 1.0
C      1  0.4253900000000  0.4314660000000  0.4911050000000 1.0
C      1  0.5507610000000  0.5929710000000  0.5020470000000 1.0
C      1  0.4819460000000  0.4736870000000  0.4553220000000 1.0
C      1  0.4145390000000  0.4511340000000  0.5341070000000 1.0
C      1  0.4095310000000  0.5196850000000  0.5264760000000 1.0
C      1  0.5217060000000  0.4405540000000  0.4490500000000 1.0
C      1  0.5872690000000  0.5325760000000  0.4797090000000 1.0
END
