TITL C-4164247-2821-491 2.51663959723652 125000 -2106.27059340636 0 0 16 (C1) n - 1
REM
REM in /home/nfs/bkarasulu/CARBON/AIRSS/Generating-Clusters/ReaxFF-fromJPCA2015/Units_Real/with-SteepDescent/Only-C1/SD-CG/Try1-3A/FIRE-CG
REM
REM
REM
REM
REM
REM ./C.cell (11c1c37f851c82e70ff6c80c92926a4b)
REM
REM compiler GCC version 9.2.1 20190827 (Red Hat 9.2.1-1)
REM options -cpp -mtune=generic -march=x86-64 -g -O0 -fpre-include=/usr/include/finclude/math-vector-fortran.h
REM seed -432795749 -1986961460 -1704164273 -1664927120 2066139094 575148509 -643270901 1516523712 -971010168 1897019821 1228110018 1970457478 -1468776116 -1761085391 -1575382448 -1345381369 1602352940 -513917296 -895527179 2012676478 1857377927 1083341906 -324999343 -1346019024 -1459945549 -526983776 926619390 -1493634555 1140482327 -1876271853 -381410713 -271593053 260911816
REM
CELL 1.54180   50.00000   50.00000   50.00000   90.00000   90.00000   90.00000
LATT -1
SFAC C  
C      1  0.5183230000000  0.4696210000000  0.4774450000000 1.0
C      1  0.5294730000000  0.5615390000000  0.5073920000000 1.0
C      1  0.5447480000000  0.4323330000000  0.5047530000000 1.0
C      1  0.4645170000000  0.4613810000000  0.4773770000000 1.0
C      1  0.5387020000000  0.5453050000000  0.5282270000000 1.0
C      1  0.5319930000000  0.4503240000000  0.4915730000000 1.0
C      1  0.4969910000000  0.5182700000000  0.4955740000000 1.0
C      1  0.4672440000000  0.5127450000000  0.4976460000000 1.0
C      1  0.4555070000000  0.4876230000000  0.4890030000000 1.0
C      1  0.5155860000000  0.4981480000000  0.4861760000000 1.0
C      1  0.4773280000000  0.5531130000000  0.5210700000000 1.0
C      1  0.5025960000000  0.5430450000000  0.5108950000000 1.0
C      1  0.4551380000000  0.5342930000000  0.5131660000000 1.0
C      1  0.4520980000000  0.5637630000000  0.5077490000000 1.0
C      1  0.4927870000000  0.4532500000000  0.4746200000000 1.0
C      1  0.5569690000000  0.4152480000000  0.5173330000000 1.0
END
