TITL C-4164247-2821-395 30.576424382024 125000 -19658.462679561 0 0 134 (C1) n - 1
REM
REM in /home/nfs/bkarasulu/CARBON/AIRSS/Generating-Clusters/ReaxFF-fromJPCA2015/Units_Real/with-SteepDescent/Only-C1/SD-CG/Try1-3A/FIRE-CG
REM
REM
REM
REM
REM
REM ./C.cell (11c1c37f851c82e70ff6c80c92926a4b)
REM
REM compiler GCC version 9.2.1 20190827 (Red Hat 9.2.1-1)
REM options -cpp -mtune=generic -march=x86-64 -g -O0 -fpre-include=/usr/include/finclude/math-vector-fortran.h
REM seed -1769603143 1422275374 1589471695 -1681528580 -141886926 -708897950 -1448441302 -299483815 1355350121 789499283 670082657 -1330341531 -1757092207 -494783056 -202557316 2097674733 -541042976 1355087750 -622418031 1102760051 -2108910356 458003021 -981748753 -653510171 421245977 -1133544713 765594689 1156104495 -939669829 1745988936 2028961280 966826867 -783506003
REM
CELL 1.54180   50.00000   50.00000   50.00000   90.00000   90.00000   90.00000
LATT -1
SFAC C  
C      1  0.3848710000000  0.4950790000000  0.5138330000000 1.0
C      1  0.5270630000000  0.4678990000000  0.5310460000000 1.0
C      1  0.5328280000000  0.4605580000000  0.4544290000000 1.0
C      1  0.4520760000000  0.4055820000000  0.5161480000000 1.0
C      1  0.5152480000000  0.3946470000000  0.4993130000000 1.0
C      1  0.5357260000000  0.5170350000000  0.5191380000000 1.0
C      1  0.5794610000000  0.4614000000000  0.4992350000000 1.0
C      1  0.4521140000000  0.4495650000000  0.4239380000000 1.0
C      1  0.5114830000000  0.4789160000000  0.5963770000000 1.0
C      1  0.4247930000000  0.5017130000000  0.5521270000000 1.0
C      1  0.5853710000000  0.4927150000000  0.5417240000000 1.0
C      1  0.5871580000000  0.5514310000000  0.5067130000000 1.0
C      1  0.5404140000000  0.5800930000000  0.5515350000000 1.0
C      1  0.4572570000000  0.5222830000000  0.4838840000000 1.0
C      1  0.5253220000000  0.5246430000000  0.4417120000000 1.0
C      1  0.5840820000000  0.5258740000000  0.4545410000000 1.0
C      1  0.5592380000000  0.5799800000000  0.5290520000000 1.0
C      1  0.4797850000000  0.5146670000000  0.5934680000000 1.0
C      1  0.5222520000000  0.4332140000000  0.4263290000000 1.0
C      1  0.5633640000000  0.5493870000000  0.4599570000000 1.0
C      1  0.5027500000000  0.5495190000000  0.5768010000000 1.0
C      1  0.4372230000000  0.5642580000000  0.4546770000000 1.0
C      1  0.5299940000000  0.4047380000000  0.4775880000000 1.0
C      1  0.4737320000000  0.4131960000000  0.5347440000000 1.0
C      1  0.4586850000000  0.4753030000000  0.4989920000000 1.0
C      1  0.5820860000000  0.5047870000000  0.4345770000000 1.0
C      1  0.4843870000000  0.4613390000000  0.4580810000000 1.0
C      1  0.5316020000000  0.4526100000000  0.4936060000000 1.0
C      1  0.4169160000000  0.5528870000000  0.4730210000000 1.0
C      1  0.4070250000000  0.5304100000000  0.4571130000000 1.0
C      1  0.5375520000000  0.4788950000000  0.5059180000000 1.0
C      1  0.5162160000000  0.4769690000000  0.4398520000000 1.0
C      1  0.4635930000000  0.5149430000000  0.4093740000000 1.0
C      1  0.4312210000000  0.4736950000000  0.5591750000000 1.0
C      1  0.5441690000000  0.5273820000000  0.4644880000000 1.0
C      1  0.4900250000000  0.4018720000000  0.4947930000000 1.0
C      1  0.4897420000000  0.4469800000000  0.5749380000000 1.0
C      1  0.5055440000000  0.4628370000000  0.4156230000000 1.0
C      1  0.5687390000000  0.5119320000000  0.5595580000000 1.0
C      1  0.5781320000000  0.5581750000000  0.5335690000000 1.0
C      1  0.4592750000000  0.5426030000000  0.4155440000000 1.0
C      1  0.4563100000000  0.4195780000000  0.4672540000000 1.0
C      1  0.4352240000000  0.4452020000000  0.5532170000000 1.0
C      1  0.5252110000000  0.5046450000000  0.5918570000000 1.0
C      1  0.5110940000000  0.4474810000000  0.5169900000000 1.0
C      1  0.5462830000000  0.4202840000000  0.5248350000000 1.0
C      1  0.4622390000000  0.4963930000000  0.5880660000000 1.0
C      1  0.4842110000000  0.4729050000000  0.5872410000000 1.0
C      1  0.5642490000000  0.4501280000000  0.5485790000000 1.0
C      1  0.4664470000000  0.4347870000000  0.5548730000000 1.0
C      1  0.4198460000000  0.5509600000000  0.5044870000000 1.0
C      1  0.5336380000000  0.5073330000000  0.4152540000000 1.0
C      1  0.4253910000000  0.4451540000000  0.5288040000000 1.0
C      1  0.4987900000000  0.4159770000000  0.5189660000000 1.0
C      1  0.4929630000000  0.5150810000000  0.4049370000000 1.0
C      1  0.5103660000000  0.5076180000000  0.4765200000000 1.0
C      1  0.4494050000000  0.5435370000000  0.5661010000000 1.0
C      1  0.5143130000000  0.5908330000000  0.5447690000000 1.0
C      1  0.4250760000000  0.5085850000000  0.4460430000000 1.0
C      1  0.4310440000000  0.5546530000000  0.5452810000000 1.0
C      1  0.4403700000000  0.4996730000000  0.4210750000000 1.0
C      1  0.5301510000000  0.5866990000000  0.4638320000000 1.0
C      1  0.5870070000000  0.4806330000000  0.4770750000000 1.0
C      1  0.5672740000000  0.5405460000000  0.5551950000000 1.0
C      1  0.5595690000000  0.4939610000000  0.4177790000000 1.0
C      1  0.4829730000000  0.5605300000000  0.4135870000000 1.0
C      1  0.5041050000000  0.5361160000000  0.5502760000000 1.0
C      1  0.5406010000000  0.5519790000000  0.5605240000000 1.0
C      1  0.5398470000000  0.5689180000000  0.4429340000000 1.0
C      1  0.5926360000000  0.5093740000000  0.4773240000000 1.0
C      1  0.4760430000000  0.5596040000000  0.5681810000000 1.0
C      1  0.4560880000000  0.5821790000000  0.5096490000000 1.0
C      1  0.4464060000000  0.5015160000000  0.5032300000000 1.0
C      1  0.4345300000000  0.4724400000000  0.4274130000000 1.0
C      1  0.5695850000000  0.5630100000000  0.4869370000000 1.0
C      1  0.5054330000000  0.5263390000000  0.5956630000000 1.0
C      1  0.5482230000000  0.4444970000000  0.4355110000000 1.0
C      1  0.5205070000000  0.5809690000000  0.4928280000000 1.0
C      1  0.5851790000000  0.4779680000000  0.4476040000000 1.0
C      1  0.5292390000000  0.5390380000000  0.5361410000000 1.0
C      1  0.5785620000000  0.4655550000000  0.5963690000000 1.0
C      1  0.4475970000000  0.5433560000000  0.4406390000000 1.0
C      1  0.5286170000000  0.4567720000000  0.5880630000000 1.0
C      1  0.4717850000000  0.4600720000000  0.5409740000000 1.0
C      1  0.4405260000000  0.4183900000000  0.4920180000000 1.0
C      1  0.4772390000000  0.5928650000000  0.5252770000000 1.0
C      1  0.4836850000000  0.4672300000000  0.5160050000000 1.0
C      1  0.5092290000000  0.5027120000000  0.4494240000000 1.0
C      1  0.4495370000000  0.5209170000000  0.4568950000000 1.0
C      1  0.5135800000000  0.4878270000000  0.4930780000000 1.0
C      1  0.5447170000000  0.4987570000000  0.5702090000000 1.0
C      1  0.5112830000000  0.4927340000000  0.4039330000000 1.0
C      1  0.4945110000000  0.4941850000000  0.5100170000000 1.0
C      1  0.4841520000000  0.4110430000000  0.4693570000000 1.0
C      1  0.4051900000000  0.4859220000000  0.5015110000000 1.0
C      1  0.4799120000000  0.4577520000000  0.4299180000000 1.0
C      1  0.4865090000000  0.5214100000000  0.5119980000000 1.0
C      1  0.4313700000000  0.4615940000000  0.4600920000000 1.0
C      1  0.5256210000000  0.4965050000000  0.5414630000000 1.0
C      1  0.5518010000000  0.4138450000000  0.4968790000000 1.0
C      1  0.4786150000000  0.5403520000000  0.4913920000000 1.0
C      1  0.4432870000000  0.5156710000000  0.5725720000000 1.0
C      1  0.5503100000000  0.5791690000000  0.5008920000000 1.0
C      1  0.5286110000000  0.5268710000000  0.4898240000000 1.0
C      1  0.5601840000000  0.4415310000000  0.4904440000000 1.0
C      1  0.4132470000000  0.4617930000000  0.4839210000000 1.0
C      1  0.4075010000000  0.5508260000000  0.5289810000000 1.0
C      1  0.4859610000000  0.5697240000000  0.4416620000000 1.0
C      1  0.5668860000000  0.4664330000000  0.4274290000000 1.0
C      1  0.5112410000000  0.4478290000000  0.4684150000000 1.0
C      1  0.6001670000000  0.5244740000000  0.5023170000000 1.0
C      1  0.4606130000000  0.4680380000000  0.4718560000000 1.0
C      1  0.4476230000000  0.5529100000000  0.5193000000000 1.0
C      1  0.4716370000000  0.5059620000000  0.5455770000000 1.0
C      1  0.5590420000000  0.4664810000000  0.5780020000000 1.0
C      1  0.5112010000000  0.4181250000000  0.4586660000000 1.0
C      1  0.4203750000000  0.4402420000000  0.5015270000000 1.0
C      1  0.5054120000000  0.5511240000000  0.4830050000000 1.0
C      1  0.4996110000000  0.5078080000000  0.5504980000000 1.0
C      1  0.4611620000000  0.5930070000000  0.4827480000000 1.0
C      1  0.5173240000000  0.4384750000000  0.5708550000000 1.0
C      1  0.4659630000000  0.5283270000000  0.5284100000000 1.0
C      1  0.5049730000000  0.5439140000000  0.4049310000000 1.0
C      1  0.4609880000000  0.5808190000000  0.4556530000000 1.0
C      1  0.4854620000000  0.5822310000000  0.5517540000000 1.0
C      1  0.5780180000000  0.4653960000000  0.5288530000000 1.0
C      1  0.4417640000000  0.4358330000000  0.4476180000000 1.0
C      1  0.4587950000000  0.4810230000000  0.5505240000000 1.0
C      1  0.5422120000000  0.4315580000000  0.5496620000000 1.0
C      1  0.4238500000000  0.5032690000000  0.5223280000000 1.0
C      1  0.5925920000000  0.5082150000000  0.5224920000000 1.0
C      1  0.5055730000000  0.5943830000000  0.5170730000000 1.0
C      1  0.5246130000000  0.5592710000000  0.4195590000000 1.0
C      1  0.5033830000000  0.5503380000000  0.4537790000000 1.0
END
