TITL C-4164238-4211-8 64.185600874587 125000 -23639.616237277 0 0 161 (C1) n - 1
REM
REM in /home/nfs/bkarasulu/CARBON/AIRSS/Generating-Clusters/ReaxFF-fromJPCA2015/Units_Real/with-SteepDescent/Only-C1/SD-CG/Try1-3A/FIRE-CG
REM
REM
REM
REM
REM
REM ./C.cell (11c1c37f851c82e70ff6c80c92926a4b)
REM
REM compiler GCC version 9.2.1 20190827 (Red Hat 9.2.1-1)
REM options -cpp -mtune=generic -march=x86-64 -g -O0 -fpre-include=/usr/include/finclude/math-vector-fortran.h
REM seed 1906731793 1382488715 1519348222 -1803856986 1303559050 -390126696 1709357379 -1408747893 -1045233325 388364081 -1599693283 1634034665 1573572212 2011266329 -1492642152 -345674549 -710156939 766685988 -1771791828 1245780679 -584625437 -1673102420 472764157 1148399986 451576134 682930805 339891797 856723360 419951390 1671134497 -778310462 268096620 -1646217621
REM
CELL 1.54180   50.00000   50.00000   50.00000   90.00000   90.00000   90.00000
LATT -1
SFAC C  
C      1  0.6156080000000  0.4886320000000  0.4849770000000 1.0
C      1  0.5820420000000  0.5565410000000  0.4736900000000 1.0
C      1  0.4934010000000  0.4711990000000  0.6059020000000 1.0
C      1  0.3846640000000  0.4972260000000  0.4959930000000 1.0
C      1  0.5260950000000  0.5144260000000  0.5317030000000 1.0
C      1  0.5870660000000  0.4402990000000  0.5093050000000 1.0
C      1  0.5626890000000  0.3948260000000  0.4937320000000 1.0
C      1  0.5175060000000  0.4551960000000  0.5989610000000 1.0
C      1  0.5781780000000  0.5155400000000  0.5698710000000 1.0
C      1  0.4464450000000  0.5461420000000  0.5338710000000 1.0
C      1  0.4585520000000  0.5788540000000  0.5596430000000 1.0
C      1  0.5408290000000  0.4245240000000  0.5370500000000 1.0
C      1  0.5843970000000  0.4160650000000  0.4910590000000 1.0
C      1  0.5379980000000  0.3955670000000  0.5075460000000 1.0
C      1  0.5280590000000  0.5486510000000  0.4986470000000 1.0
C      1  0.4151870000000  0.5621930000000  0.5071220000000 1.0
C      1  0.4572810000000  0.5274600000000  0.4624000000000 1.0
C      1  0.5988980000000  0.5412270000000  0.4925300000000 1.0
C      1  0.4897650000000  0.4781940000000  0.5139940000000 1.0
C      1  0.4457690000000  0.4858010000000  0.5089240000000 1.0
C      1  0.4847830000000  0.5455530000000  0.5873540000000 1.0
C      1  0.4264940000000  0.5044800000000  0.4208160000000 1.0
C      1  0.5382750000000  0.5868170000000  0.4866870000000 1.0
C      1  0.4289890000000  0.4558380000000  0.4386350000000 1.0
C      1  0.4618270000000  0.6064790000000  0.4729010000000 1.0
C      1  0.4884930000000  0.4584600000000  0.5523830000000 1.0
C      1  0.5414720000000  0.4985360000000  0.5753320000000 1.0
C      1  0.4751420000000  0.5085510000000  0.4010170000000 1.0
C      1  0.5969320000000  0.4787840000000  0.4629860000000 1.0
C      1  0.5676490000000  0.4596250000000  0.5183030000000 1.0
C      1  0.5202780000000  0.4050420000000  0.5264210000000 1.0
C      1  0.5423540000000  0.4695950000000  0.5897930000000 1.0
C      1  0.3974440000000  0.4985970000000  0.5233680000000 1.0
C      1  0.5822930000000  0.5632420000000  0.5490780000000 1.0
C      1  0.5023370000000  0.5909670000000  0.4464810000000 1.0
C      1  0.4200210000000  0.4406770000000  0.4620890000000 1.0
C      1  0.5472220000000  0.4928070000000  0.4367410000000 1.0
C      1  0.4785660000000  0.5898010000000  0.5114330000000 1.0
C      1  0.5754950000000  0.4602940000000  0.4616140000000 1.0
C      1  0.5259330000000  0.6005910000000  0.5090060000000 1.0
C      1  0.4199940000000  0.5238560000000  0.5680450000000 1.0
C      1  0.4551570000000  0.4463700000000  0.5813050000000 1.0
C      1  0.5609340000000  0.4445420000000  0.4202650000000 1.0
C      1  0.5104170000000  0.5588130000000  0.5782430000000 1.0
C      1  0.4368160000000  0.4171370000000  0.4655700000000 1.0
C      1  0.5360930000000  0.4340840000000  0.4285140000000 1.0
C      1  0.5222900000000  0.4824180000000  0.5056700000000 1.0
C      1  0.4119970000000  0.4523950000000  0.5422030000000 1.0
C      1  0.4724420000000  0.5617450000000  0.4155120000000 1.0
C      1  0.4813270000000  0.5178180000000  0.5955880000000 1.0
C      1  0.5635530000000  0.4721490000000  0.4044690000000 1.0
C      1  0.4657610000000  0.4688220000000  0.5968350000000 1.0
C      1  0.5014210000000  0.4980050000000  0.5980090000000 1.0
C      1  0.5029390000000  0.5449450000000  0.4369590000000 1.0
C      1  0.4554760000000  0.5551530000000  0.4630080000000 1.0
C      1  0.4290600000000  0.4171250000000  0.5148750000000 1.0
C      1  0.5274000000000  0.4221210000000  0.4687160000000 1.0
C      1  0.4129330000000  0.5398180000000  0.4480080000000 1.0
C      1  0.5490850000000  0.4733920000000  0.4594690000000 1.0
C      1  0.5253320000000  0.5838640000000  0.5341060000000 1.0
C      1  0.5122590000000  0.4281270000000  0.4428570000000 1.0
C      1  0.5297100000000  0.4678560000000  0.5294270000000 1.0
C      1  0.5138210000000  0.4951690000000  0.5703000000000 1.0
C      1  0.4256130000000  0.5052270000000  0.5165830000000 1.0
C      1  0.4811440000000  0.4237140000000  0.4700920000000 1.0
C      1  0.4750220000000  0.4508630000000  0.4782510000000 1.0
C      1  0.4008610000000  0.4855310000000  0.4747690000000 1.0
C      1  0.4487530000000  0.5548050000000  0.4304680000000 1.0
C      1  0.5471070000000  0.5027450000000  0.5444160000000 1.0
C      1  0.5069910000000  0.4303300000000  0.5868960000000 1.0
C      1  0.4968820000000  0.5166880000000  0.4898870000000 1.0
C      1  0.5635580000000  0.4627070000000  0.5728880000000 1.0
C      1  0.5530760000000  0.4347590000000  0.5620560000000 1.0
C      1  0.4236620000000  0.5572010000000  0.4670910000000 1.0
C      1  0.4924720000000  0.5365700000000  0.4097350000000 1.0
C      1  0.4810080000000  0.4314750000000  0.5694840000000 1.0
C      1  0.5190100000000  0.5094810000000  0.5055950000000 1.0
C      1  0.4496250000000  0.4690800000000  0.4838100000000 1.0
C      1  0.4741970000000  0.4127220000000  0.5464570000000 1.0
C      1  0.5136470000000  0.4916660000000  0.3923460000000 1.0
C      1  0.4997430000000  0.6070030000000  0.4983590000000 1.0
C      1  0.5966030000000  0.5153250000000  0.4448150000000 1.0
C      1  0.4347380000000  0.5118920000000  0.5896600000000 1.0
C      1  0.4974720000000  0.5441750000000  0.5394740000000 1.0
C      1  0.4601080000000  0.4238900000000  0.4489650000000 1.0
C      1  0.5386900000000  0.4447190000000  0.5158890000000 1.0
C      1  0.4604990000000  0.4965470000000  0.5855120000000 1.0
C      1  0.4921130000000  0.6063600000000  0.4701880000000 1.0
C      1  0.3949200000000  0.4769810000000  0.5436350000000 1.0
C      1  0.5512860000000  0.4038350000000  0.4681560000000 1.0
C      1  0.5388190000000  0.5344740000000  0.4744740000000 1.0
C      1  0.5280820000000  0.5129650000000  0.4299620000000 1.0
C      1  0.4667750000000  0.4830930000000  0.5535590000000 1.0
C      1  0.5159570000000  0.5190410000000  0.4044520000000 1.0
C      1  0.4066200000000  0.5447330000000  0.4878340000000 1.0
C      1  0.5875160000000  0.5365000000000  0.5521290000000 1.0
C      1  0.5066580000000  0.5814840000000  0.5566660000000 1.0
C      1  0.4246860000000  0.4846850000000  0.4437020000000 1.0
C      1  0.4173690000000  0.4572730000000  0.4866970000000 1.0
C      1  0.4527720000000  0.5978720000000  0.4999740000000 1.0
C      1  0.5336580000000  0.5440490000000  0.5813410000000 1.0
C      1  0.4287530000000  0.5235730000000  0.5395120000000 1.0
C      1  0.4859010000000  0.4814050000000  0.3995040000000 1.0
C      1  0.5731030000000  0.5788770000000  0.5307450000000 1.0
C      1  0.4263440000000  0.5353260000000  0.4239130000000 1.0
C      1  0.4356540000000  0.5409380000000  0.5864800000000 1.0
C      1  0.5825060000000  0.5380770000000  0.5183510000000 1.0
C      1  0.5801430000000  0.5269600000000  0.4255050000000 1.0
C      1  0.4150150000000  0.4425380000000  0.5127610000000 1.0
C      1  0.4846850000000  0.5663610000000  0.4858580000000 1.0
C      1  0.4687880000000  0.5034100000000  0.4558760000000 1.0
C      1  0.5630530000000  0.5587790000000  0.5141000000000 1.0
C      1  0.5779950000000  0.5111780000000  0.5101120000000 1.0
C      1  0.5091300000000  0.4742320000000  0.4598300000000 1.0
C      1  0.5725380000000  0.5491080000000  0.4459130000000 1.0
C      1  0.5646930000000  0.5743340000000  0.4906340000000 1.0
C      1  0.4549990000000  0.6000210000000  0.4448640000000 1.0
C      1  0.4803430000000  0.5395140000000  0.4959080000000 1.0
C      1  0.4808610000000  0.4975700000000  0.5328640000000 1.0
C      1  0.5212830000000  0.5557670000000  0.5273210000000 1.0
C      1  0.4735670000000  0.5406550000000  0.5243490000000 1.0
C      1  0.5448070000000  0.5555730000000  0.4534020000000 1.0
C      1  0.5156720000000  0.5241270000000  0.4520120000000 1.0
C      1  0.4844920000000  0.4511200000000  0.5241840000000 1.0
C      1  0.4594080000000  0.5576540000000  0.5808140000000 1.0
C      1  0.5019550000000  0.4586440000000  0.4819840000000 1.0
C      1  0.4562510000000  0.4453560000000  0.5265060000000 1.0
C      1  0.4300790000000  0.5851620000000  0.5145250000000 1.0
C      1  0.4506680000000  0.5032160000000  0.4091310000000 1.0
C      1  0.5019590000000  0.4561660000000  0.4376020000000 1.0
C      1  0.4973280000000  0.5022000000000  0.4638700000000 1.0
C      1  0.3967260000000  0.5143640000000  0.4762510000000 1.0
C      1  0.4314180000000  0.4481610000000  0.5654770000000 1.0
C      1  0.4748420000000  0.4085130000000  0.4955390000000 1.0
C      1  0.5716230000000  0.4877140000000  0.5336490000000 1.0
C      1  0.5140160000000  0.4704350000000  0.5536870000000 1.0
C      1  0.4459350000000  0.4082000000000  0.4921200000000 1.0
C      1  0.4792230000000  0.4603980000000  0.4193050000000 1.0
C      1  0.4467230000000  0.4882720000000  0.4623430000000 1.0
C      1  0.5799920000000  0.4861420000000  0.5627080000000 1.0
C      1  0.5222490000000  0.4402450000000  0.4891770000000 1.0
C      1  0.5385900000000  0.4797510000000  0.3969340000000 1.0
C      1  0.4552600000000  0.4462360000000  0.4299150000000 1.0
C      1  0.5319740000000  0.4233610000000  0.5763870000000 1.0
C      1  0.4895070000000  0.4103830000000  0.5216970000000 1.0
C      1  0.5140540000000  0.5690600000000  0.4837680000000 1.0
C      1  0.5821960000000  0.5035190000000  0.4657930000000 1.0
C      1  0.4469490000000  0.4199500000000  0.5389620000000 1.0
C      1  0.4813940000000  0.5860200000000  0.5439950000000 1.0
C      1  0.5763040000000  0.4197670000000  0.4629290000000 1.0
C      1  0.4362230000000  0.5730040000000  0.5412120000000 1.0
C      1  0.6060130000000  0.5131010000000  0.4983360000000 1.0
C      1  0.5787940000000  0.4408580000000  0.4431310000000 1.0
C      1  0.5201200000000  0.5679440000000  0.4414230000000 1.0
C      1  0.4469730000000  0.4716260000000  0.5342600000000 1.0
C      1  0.5692530000000  0.4989510000000  0.4184560000000 1.0
C      1  0.5595470000000  0.5102350000000  0.4845530000000 1.0
C      1  0.5004920000000  0.5161670000000  0.5466990000000 1.0
C      1  0.5539450000000  0.5249930000000  0.5846950000000 1.0
C      1  0.5429650000000  0.4860780000000  0.4847330000000 1.0
C      1  0.4783710000000  0.5872340000000  0.4298630000000 1.0
END
