TITL C-4164240-4114-70 0.0860038300910319 125000 -5259.65220671971 0 0 37 (C1) n - 1
REM
REM in /home/nfs/bkarasulu/CARBON/AIRSS/Generating-Clusters/ReaxFF-fromJPCA2015/Units_Real/with-SteepDescent/Only-C1/SD-CG/Try1-3A/FIRE-CG
REM
REM
REM
REM
REM
REM ./C.cell (11c1c37f851c82e70ff6c80c92926a4b)
REM
REM compiler GCC version 9.2.1 20190827 (Red Hat 9.2.1-1)
REM options -cpp -mtune=generic -march=x86-64 -g -O0 -fpre-include=/usr/include/finclude/math-vector-fortran.h
REM seed -55203964 -452836242 1801633938 1308287909 -1839780467 1765639247 1218808384 1048834768 -2014768336 -471303537 1477023786 -1406092668 1855806797 -983065241 975148012 -1675338730 -933158826 790458193 -15590989 -1887846650 -1777071424 880149062 -560941643 -600517764 -1217337820 317650705 1540301648 -1224802883 1375699643 -964576957 1715700921 -1282881794 6777692
REM
CELL 1.54180   50.00000   50.00000   50.00000   90.00000   90.00000   90.00000
LATT -1
SFAC C  
C      1  0.5222220000000  0.4410690000000  0.5239170000000 1.0
C      1  0.5277590000000  0.5082570000000  0.4197290000000 1.0
C      1  0.4888630000000  0.5486880000000  0.5254780000000 1.0
C      1  0.5261390000000  0.5319800000000  0.4638800000000 1.0
C      1  0.4453420000000  0.4822600000000  0.4922510000000 1.0
C      1  0.4684490000000  0.4559830000000  0.5293970000000 1.0
C      1  0.5615110000000  0.4783920000000  0.5026780000000 1.0
C      1  0.4932160000000  0.4875220000000  0.4444840000000 1.0
C      1  0.5646810000000  0.5096580000000  0.4962990000000 1.0
C      1  0.5197210000000  0.5083360000000  0.5409390000000 1.0
C      1  0.5449820000000  0.4841350000000  0.4257590000000 1.0
C      1  0.5146300000000  0.5273990000000  0.4373870000000 1.0
C      1  0.4533690000000  0.5090460000000  0.5339720000000 1.0
C      1  0.4919480000000  0.4796720000000  0.4726500000000 1.0
C      1  0.4463570000000  0.5090380000000  0.5034750000000 1.0
C      1  0.5173860000000  0.4901930000000  0.5176830000000 1.0
C      1  0.5044870000000  0.4977630000000  0.4923550000000 1.0
C      1  0.5067190000000  0.5266360000000  0.4860870000000 1.0
C      1  0.5379450000000  0.4693940000000  0.5146840000000 1.0
C      1  0.4940970000000  0.4436730000000  0.5300480000000 1.0
C      1  0.5606160000000  0.5277290000000  0.5189800000000 1.0
C      1  0.4632880000000  0.4800880000000  0.5465620000000 1.0
C      1  0.5360160000000  0.5327100000000  0.5357760000000 1.0
C      1  0.4252190000000  0.5180130000000  0.5360940000000 1.0
C      1  0.4770110000000  0.5286750000000  0.5426990000000 1.0
C      1  0.4953600000000  0.5121120000000  0.5565850000000 1.0
C      1  0.5525220000000  0.5210940000000  0.4719480000000 1.0
C      1  0.4867470000000  0.5167980000000  0.4409150000000 1.0
C      1  0.5251230000000  0.4230280000000  0.5437380000000 1.0
C      1  0.5147860000000  0.4816230000000  0.4255530000000 1.0
C      1  0.4810620000000  0.4865660000000  0.5683120000000 1.0
C      1  0.5173700000000  0.5556720000000  0.5324040000000 1.0
C      1  0.4589090000000  0.5309220000000  0.4870560000000 1.0
C      1  0.4554130000000  0.4586600000000  0.5029850000000 1.0
C      1  0.4846570000000  0.5434910000000  0.4962840000000 1.0
C      1  0.4699340000000  0.5258080000000  0.4617530000000 1.0
C      1  0.4661440000000  0.4679160000000  0.4792050000000 1.0
END
