TITL C-4164239-2837-61 15.6509811387121 125000 -6159.35219909681 0 0 43 (C1) n - 1
REM
REM in /home/nfs/bkarasulu/CARBON/AIRSS/Generating-Clusters/ReaxFF-fromJPCA2015/Units_Real/with-SteepDescent/Only-C1/SD-CG/Try1-3A/FIRE-CG
REM
REM
REM
REM
REM
REM ./C.cell (11c1c37f851c82e70ff6c80c92926a4b)
REM
REM compiler GCC version 9.2.1 20190827 (Red Hat 9.2.1-1)
REM options -cpp -mtune=generic -march=x86-64 -g -O0 -fpre-include=/usr/include/finclude/math-vector-fortran.h
REM seed 872209642 1081994884 -903795145 -1029798863 -379700093 1860575570 -1440868379 812739102 1867795967 1766219713 -410046648 99282160 -901068459 -548660184 722879928 1146434822 771111644 -1328703947 1552283501 -294395525 809798071 22881719 1077539502 -1772367016 -1363479147 -2053236196 763728707 -1324253288 -407265801 55640606 -774415688 618977262 -1619416773
REM
CELL 1.54180   50.00000   50.00000   50.00000   90.00000   90.00000   90.00000
LATT -1
SFAC C  
C      1  0.4769050000000  0.5594020000000  0.5199990000000 1.0
C      1  0.5242130000000  0.5207980000000  0.4548120000000 1.0
C      1  0.5074280000000  0.5059930000000  0.5608030000000 1.0
C      1  0.5414550000000  0.4543960000000  0.4842970000000 1.0
C      1  0.4955910000000  0.4580300000000  0.5386600000000 1.0
C      1  0.4815580000000  0.5455370000000  0.5454050000000 1.0
C      1  0.5438850000000  0.4657200000000  0.5115500000000 1.0
C      1  0.5653550000000  0.4837620000000  0.5169720000000 1.0
C      1  0.4949180000000  0.4325920000000  0.4851520000000 1.0
C      1  0.4440640000000  0.4997240000000  0.5005930000000 1.0
C      1  0.4763490000000  0.5178660000000  0.4462470000000 1.0
C      1  0.5245760000000  0.4641580000000  0.4611420000000 1.0
C      1  0.5410170000000  0.5303290000000  0.5028380000000 1.0
C      1  0.5154300000000  0.4758750000000  0.5233480000000 1.0
C      1  0.4573730000000  0.5014530000000  0.5506520000000 1.0
C      1  0.5676270000000  0.5216610000000  0.5329480000000 1.0
C      1  0.4806720000000  0.4992960000000  0.5660360000000 1.0
C      1  0.4994180000000  0.5352660000000  0.4485240000000 1.0
C      1  0.5401540000000  0.5371390000000  0.4739670000000 1.0
C      1  0.4680580000000  0.5477150000000  0.4959630000000 1.0
C      1  0.5160350000000  0.5350890000000  0.5164050000000 1.0
C      1  0.5217970000000  0.4362810000000  0.4930070000000 1.0
C      1  0.4709300000000  0.4584160000000  0.5231980000000 1.0
C      1  0.4711150000000  0.4466320000000  0.4963740000000 1.0
C      1  0.4562980000000  0.5312600000000  0.5552520000000 1.0
C      1  0.4919410000000  0.4938750000000  0.4544500000000 1.0
C      1  0.4625950000000  0.4883880000000  0.5218590000000 1.0
C      1  0.4957130000000  0.5498290000000  0.5024800000000 1.0
C      1  0.4736910000000  0.4522440000000  0.4485520000000 1.0
C      1  0.4496230000000  0.5262500000000  0.4884880000000 1.0
C      1  0.5117880000000  0.4771940000000  0.5539980000000 1.0
C      1  0.5734690000000  0.4969880000000  0.5454500000000 1.0
C      1  0.4450060000000  0.4867880000000  0.4745760000000 1.0
C      1  0.5013460000000  0.4450220000000  0.4579630000000 1.0
C      1  0.5623930000000  0.5116970000000  0.5078070000000 1.0
C      1  0.4581300000000  0.4597310000000  0.4731860000000 1.0
C      1  0.4921170000000  0.4928650000000  0.4823730000000 1.0
C      1  0.4517960000000  0.5134290000000  0.4620020000000 1.0
C      1  0.5019610000000  0.5671920000000  0.4540920000000 1.0
C      1  0.4922790000000  0.4919290000000  0.5082650000000 1.0
C      1  0.5264650000000  0.5606870000000  0.4665080000000 1.0
C      1  0.5063480000000  0.5303090000000  0.5433260000000 1.0
C      1  0.5211140000000  0.4911910000000  0.4504800000000 1.0
END
