TITL C-4164235-1454-720 2.02681716515666 125000 -14063.9906008312 0 0 94 (C1) n - 1
REM
REM in /home/nfs/bkarasulu/CARBON/AIRSS/Generating-Clusters/ReaxFF-fromJPCA2015/Units_Real/with-SteepDescent/Only-C1/SD-CG/Try1-3A/FIRE-CG
REM
REM
REM
REM
REM
REM ./C.cell (11c1c37f851c82e70ff6c80c92926a4b)
REM
REM compiler GCC version 9.2.1 20190827 (Red Hat 9.2.1-1)
REM options -cpp -mtune=generic -march=x86-64 -g -O0 -fpre-include=/usr/include/finclude/math-vector-fortran.h
REM seed -1754400604 -1227004696 507547014 336548841 -1543921785 -312263943 1406557791 522653775 600565461 2129056811 1238505308 -1005709108 519355610 -803354473 72897068 1328771216 -1269602263 -2031001978 2100107246 -673831837 -1624424467 -1519624987 49760889 521771046 -1234177653 -2083255744 627528891 -1929310875 -1301830008 1308336577 1593503316 1138823216 1899348871
REM
CELL 1.54180   50.00000   50.00000   50.00000   90.00000   90.00000   90.00000
LATT -1
SFAC C  
C      1  0.4837860000000  0.5564560000000  0.4305300000000 1.0
C      1  0.5221150000000  0.5063210000000  0.5256360000000 1.0
C      1  0.5323220000000  0.5667900000000  0.5535710000000 1.0
C      1  0.4843700000000  0.4761220000000  0.4159510000000 1.0
C      1  0.4939990000000  0.4545730000000  0.4332350000000 1.0
C      1  0.5082500000000  0.4552190000000  0.5158800000000 1.0
C      1  0.4663420000000  0.5449630000000  0.5625930000000 1.0
C      1  0.4748700000000  0.5000030000000  0.4887720000000 1.0
C      1  0.5622270000000  0.4844240000000  0.5551290000000 1.0
C      1  0.5188190000000  0.5838800000000  0.4827800000000 1.0
C      1  0.4607660000000  0.5127140000000  0.5269290000000 1.0
C      1  0.4527480000000  0.4935610000000  0.5837690000000 1.0
C      1  0.5201020000000  0.5766890000000  0.4250560000000 1.0
C      1  0.5340490000000  0.4334300000000  0.4642900000000 1.0
C      1  0.4138570000000  0.5383370000000  0.4946500000000 1.0
C      1  0.5357930000000  0.5009750000000  0.4720290000000 1.0
C      1  0.4922870000000  0.5252690000000  0.4966720000000 1.0
C      1  0.5119990000000  0.5620160000000  0.5294040000000 1.0
C      1  0.5520270000000  0.4583120000000  0.5637970000000 1.0
C      1  0.5253520000000  0.4646660000000  0.5752410000000 1.0
C      1  0.5293810000000  0.4377370000000  0.5267060000000 1.0
C      1  0.4726360000000  0.4449720000000  0.4506250000000 1.0
C      1  0.4088420000000  0.5216100000000  0.4721440000000 1.0
C      1  0.5419490000000  0.5074020000000  0.5527050000000 1.0
C      1  0.5092390000000  0.5500320000000  0.4157470000000 1.0
C      1  0.5755570000000  0.4869430000000  0.4565210000000 1.0
C      1  0.5752220000000  0.4557550000000  0.4914820000000 1.0
C      1  0.4939570000000  0.5820620000000  0.4411140000000 1.0
C      1  0.4864480000000  0.4293410000000  0.5560740000000 1.0
C      1  0.4424890000000  0.4489520000000  0.4858080000000 1.0
C      1  0.4778390000000  0.4787450000000  0.5533380000000 1.0
C      1  0.4394850000000  0.4993500000000  0.4314690000000 1.0
C      1  0.5058260000000  0.4466010000000  0.5660930000000 1.0
C      1  0.5020920000000  0.5095480000000  0.5833530000000 1.0
C      1  0.4560210000000  0.4355420000000  0.5551590000000 1.0
C      1  0.5012520000000  0.5407000000000  0.4749370000000 1.0
C      1  0.5586610000000  0.5570070000000  0.5438140000000 1.0
C      1  0.4170070000000  0.4854070000000  0.5196750000000 1.0
C      1  0.4481510000000  0.4591510000000  0.4411610000000 1.0
C      1  0.5169010000000  0.4802690000000  0.4650630000000 1.0
C      1  0.5795340000000  0.5272400000000  0.5235250000000 1.0
C      1  0.4520400000000  0.5325960000000  0.5090040000000 1.0
C      1  0.5254330000000  0.4955230000000  0.5751300000000 1.0
C      1  0.4832090000000  0.5367630000000  0.4518470000000 1.0
C      1  0.4365760000000  0.4693550000000  0.4660750000000 1.0
C      1  0.4917060000000  0.4349360000000  0.4999240000000 1.0
C      1  0.4790650000000  0.5859070000000  0.4971660000000 1.0
C      1  0.4949030000000  0.5035770000000  0.4165610000000 1.0
C      1  0.5149380000000  0.4205200000000  0.4817840000000 1.0
C      1  0.5459440000000  0.5409740000000  0.4953670000000 1.0
C      1  0.5686880000000  0.4598550000000  0.4465440000000 1.0
C      1  0.5219900000000  0.4557330000000  0.4450990000000 1.0
C      1  0.4931720000000  0.5374430000000  0.5764470000000 1.0
C      1  0.5474590000000  0.4603500000000  0.4266340000000 1.0
C      1  0.4812410000000  0.4191680000000  0.5270590000000 1.0
C      1  0.4420690000000  0.4974120000000  0.4763710000000 1.0
C      1  0.5066080000000  0.5300650000000  0.5209050000000 1.0
C      1  0.4269710000000  0.4813500000000  0.5468220000000 1.0
C      1  0.5312070000000  0.4217140000000  0.5038960000000 1.0
C      1  0.5556910000000  0.4419140000000  0.5402250000000 1.0
C      1  0.4521810000000  0.4650610000000  0.5508930000000 1.0
C      1  0.5617060000000  0.4421890000000  0.4688190000000 1.0
C      1  0.5769770000000  0.4804200000000  0.5304630000000 1.0
C      1  0.4806630000000  0.4883200000000  0.5809850000000 1.0
C      1  0.4388470000000  0.5544350000000  0.4981680000000 1.0
C      1  0.5438690000000  0.5095230000000  0.4222080000000 1.0
C      1  0.4539810000000  0.4183140000000  0.5324230000000 1.0
C      1  0.5269590000000  0.5554680000000  0.4794010000000 1.0
C      1  0.5653920000000  0.5293290000000  0.5490780000000 1.0
C      1  0.4502140000000  0.5223930000000  0.5543210000000 1.0
C      1  0.4571380000000  0.5738650000000  0.5129150000000 1.0
C      1  0.5736880000000  0.5008770000000  0.5081360000000 1.0
C      1  0.5157380000000  0.5524710000000  0.5708660000000 1.0
C      1  0.5658330000000  0.5516350000000  0.5143770000000 1.0
C      1  0.4898930000000  0.4896920000000  0.4650030000000 1.0
C      1  0.5747830000000  0.4531690000000  0.5211460000000 1.0
C      1  0.5817760000000  0.4829530000000  0.4843820000000 1.0
C      1  0.4694890000000  0.4407980000000  0.4794690000000 1.0
C      1  0.4267070000000  0.4602100000000  0.5101760000000 1.0
C      1  0.5483640000000  0.4829950000000  0.4078610000000 1.0
C      1  0.4184880000000  0.5094550000000  0.4959770000000 1.0
C      1  0.4642480000000  0.5680140000000  0.5422740000000 1.0
C      1  0.4316710000000  0.5028490000000  0.5673480000000 1.0
C      1  0.4310060000000  0.5145460000000  0.4536070000000 1.0
C      1  0.4931300000000  0.5898910000000  0.4695280000000 1.0
C      1  0.5056940000000  0.5855620000000  0.5090770000000 1.0
C      1  0.5181400000000  0.5213840000000  0.4138960000000 1.0
C      1  0.5421020000000  0.5110710000000  0.4998480000000 1.0
C      1  0.4539590000000  0.4784610000000  0.4192340000000 1.0
C      1  0.4759890000000  0.4910450000000  0.5148320000000 1.0
C      1  0.4913560000000  0.5735220000000  0.5470620000000 1.0
C      1  0.4832940000000  0.5088630000000  0.4432110000000 1.0
C      1  0.5544100000000  0.5063150000000  0.4496490000000 1.0
C      1  0.4988350000000  0.4806620000000  0.5280780000000 1.0
END
