TITL C-4164246-3563-672 -13.0826584641061 125000 -13944.8485404718 0 0 94 (C1) n - 1
REM
REM in /home/nfs/bkarasulu/CARBON/AIRSS/Generating-Clusters/ReaxFF-fromJPCA2015/Units_Real/with-SteepDescent/Only-C1/SD-CG/Try1-3A/FIRE-CG
REM
REM
REM
REM
REM
REM ./C.cell (11c1c37f851c82e70ff6c80c92926a4b)
REM
REM compiler GCC version 9.2.1 20190827 (Red Hat 9.2.1-1)
REM options -cpp -mtune=generic -march=x86-64 -g -O0 -fpre-include=/usr/include/finclude/math-vector-fortran.h
REM seed -541716563 1770980072 1532733412 -555015668 1570324839 2119482461 1664990817 -221484592 260688565 1656596264 -1842836964 -1428994942 873249156 963141933 1098353345 -1057058946 115283714 -698841287 1137900780 1010644124 -1169069207 1030233702 -989223546 1865568081 1097574577 735424530 -1457200600 -111844622 1328467066 703302156 -229849642 -501084244 -70713036
REM
CELL 1.54180   50.00000   50.00000   50.00000   90.00000   90.00000   90.00000
LATT -1
SFAC C  
C      1  0.4778660000000  0.4992970000000  0.4719970000000 1.0
C      1  0.4510070000000  0.5306020000000  0.5581930000000 1.0
C      1  0.5474720000000  0.4574040000000  0.4798140000000 1.0
C      1  0.4562040000000  0.4260670000000  0.4691800000000 1.0
C      1  0.4502830000000  0.4567230000000  0.4269280000000 1.0
C      1  0.5075510000000  0.4083070000000  0.5509720000000 1.0
C      1  0.5332190000000  0.5537890000000  0.5334260000000 1.0
C      1  0.5089250000000  0.5364320000000  0.5303810000000 1.0
C      1  0.5580680000000  0.5622110000000  0.4868960000000 1.0
C      1  0.5728960000000  0.5148570000000  0.4976620000000 1.0
C      1  0.4687920000000  0.4779440000000  0.5588700000000 1.0
C      1  0.4602100000000  0.4309170000000  0.4397790000000 1.0
C      1  0.4275060000000  0.4887920000000  0.4890130000000 1.0
C      1  0.5161340000000  0.5865460000000  0.4776150000000 1.0
C      1  0.4993900000000  0.4351520000000  0.5502460000000 1.0
C      1  0.4571280000000  0.4947760000000  0.4952800000000 1.0
C      1  0.4981140000000  0.5420420000000  0.5028690000000 1.0
C      1  0.4083120000000  0.5057650000000  0.5022010000000 1.0
C      1  0.5053220000000  0.4899810000000  0.4739560000000 1.0
C      1  0.4269200000000  0.5523450000000  0.5088850000000 1.0
C      1  0.5403030000000  0.5766710000000  0.4668290000000 1.0
C      1  0.5209660000000  0.4619130000000  0.5902840000000 1.0
C      1  0.5324540000000  0.5830300000000  0.5298370000000 1.0
C      1  0.4704200000000  0.4748100000000  0.4128770000000 1.0
C      1  0.5111070000000  0.5029790000000  0.5398940000000 1.0
C      1  0.4664130000000  0.5876730000000  0.4910090000000 1.0
C      1  0.5365240000000  0.4259870000000  0.4595550000000 1.0
C      1  0.5427580000000  0.5070920000000  0.5019350000000 1.0
C      1  0.4689210000000  0.5423130000000  0.5032740000000 1.0
C      1  0.4734690000000  0.4902180000000  0.5851610000000 1.0
C      1  0.5194010000000  0.5725860000000  0.4044290000000 1.0
C      1  0.4626150000000  0.5027880000000  0.4184920000000 1.0
C      1  0.5479220000000  0.5594200000000  0.4440930000000 1.0
C      1  0.4097160000000  0.5350430000000  0.4939240000000 1.0
C      1  0.5074510000000  0.4173210000000  0.5033280000000 1.0
C      1  0.4863070000000  0.4836370000000  0.5376080000000 1.0
C      1  0.5341230000000  0.4597190000000  0.5219440000000 1.0
C      1  0.4964540000000  0.4763520000000  0.5914410000000 1.0
C      1  0.4222170000000  0.4802120000000  0.5407210000000 1.0
C      1  0.5137750000000  0.4386460000000  0.5231820000000 1.0
C      1  0.5357190000000  0.5229130000000  0.4146730000000 1.0
C      1  0.5684270000000  0.4742100000000  0.4680540000000 1.0
C      1  0.5891190000000  0.5011690000000  0.5400670000000 1.0
C      1  0.4214870000000  0.4691720000000  0.4677360000000 1.0
C      1  0.5059900000000  0.5338790000000  0.4761470000000 1.0
C      1  0.4769390000000  0.4714570000000  0.5117490000000 1.0
C      1  0.4488790000000  0.5640070000000  0.4925970000000 1.0
C      1  0.5818470000000  0.4686830000000  0.5126780000000 1.0
C      1  0.5260030000000  0.5053820000000  0.5665360000000 1.0
C      1  0.5625540000000  0.5348440000000  0.4497760000000 1.0
C      1  0.5590880000000  0.4829040000000  0.4405190000000 1.0
C      1  0.5553790000000  0.5114390000000  0.4329780000000 1.0
C      1  0.4917870000000  0.5768870000000  0.5406420000000 1.0
C      1  0.4765060000000  0.4290610000000  0.4941940000000 1.0
C      1  0.5894270000000  0.5243440000000  0.5257760000000 1.0
C      1  0.5247080000000  0.5113470000000  0.4794030000000 1.0
C      1  0.4351240000000  0.5292250000000  0.5326380000000 1.0
C      1  0.5360020000000  0.5560450000000  0.4161340000000 1.0
C      1  0.5247570000000  0.4206560000000  0.4774660000000 1.0
C      1  0.5110750000000  0.4407010000000  0.5750860000000 1.0
C      1  0.5422400000000  0.4597970000000  0.4383020000000 1.0
C      1  0.5138000000000  0.4543600000000  0.4400660000000 1.0
C      1  0.4835700000000  0.5245240000000  0.4594130000000 1.0
C      1  0.5640350000000  0.4763110000000  0.5612710000000 1.0
C      1  0.4400220000000  0.4643540000000  0.5547990000000 1.0
C      1  0.5054570000000  0.5939680000000  0.5238020000000 1.0
C      1  0.4243720000000  0.5400390000000  0.4701230000000 1.0
C      1  0.4927600000000  0.4645380000000  0.4254340000000 1.0
C      1  0.5311960000000  0.4893050000000  0.5216660000000 1.0
C      1  0.4871850000000  0.5511910000000  0.5502960000000 1.0
C      1  0.5704820000000  0.5378620000000  0.4775940000000 1.0
C      1  0.5099220000000  0.3945310000000  0.5270670000000 1.0
C      1  0.4307050000000  0.5236550000000  0.4511160000000 1.0
C      1  0.4315410000000  0.4748770000000  0.4402450000000 1.0
C      1  0.4854010000000  0.5412680000000  0.5776850000000 1.0
C      1  0.4915760000000  0.4544410000000  0.4910260000000 1.0
C      1  0.4405420000000  0.4459890000000  0.5338090000000 1.0
C      1  0.5580710000000  0.4524790000000  0.5064600000000 1.0
C      1  0.4651700000000  0.5210530000000  0.5805050000000 1.0
C      1  0.4137730000000  0.5043850000000  0.5307940000000 1.0
C      1  0.5141590000000  0.4617840000000  0.4738510000000 1.0
C      1  0.5096800000000  0.5209250000000  0.4201660000000 1.0
C      1  0.4370450000000  0.5032480000000  0.4323970000000 1.0
C      1  0.4357910000000  0.4450640000000  0.4706600000000 1.0
C      1  0.5853660000000  0.4735770000000  0.5429810000000 1.0
C      1  0.5829750000000  0.4868740000000  0.4902170000000 1.0
C      1  0.4566320000000  0.5184950000000  0.5135940000000 1.0
C      1  0.4949650000000  0.5951860000000  0.4940140000000 1.0
C      1  0.4603020000000  0.4442280000000  0.5160610000000 1.0
C      1  0.5339450000000  0.5289000000000  0.6002770000000 1.0
C      1  0.5419310000000  0.4823150000000  0.5761980000000 1.0
C      1  0.5140160000000  0.5266510000000  0.5845890000000 1.0
C      1  0.5525690000000  0.5662860000000  0.5156780000000 1.0
C      1  0.4833470000000  0.5208570000000  0.4290100000000 1.0
END
