TITL C-4164244-2836-725 9.35379940613509 125000 -25933.1784574203 0 0 175 (C1) n - 1
REM
REM in /home/nfs/bkarasulu/CARBON/AIRSS/Generating-Clusters/ReaxFF-fromJPCA2015/Units_Real/with-SteepDescent/Only-C1/SD-CG/Try1-3A/FIRE-CG
REM
REM
REM
REM
REM
REM ./C.cell (11c1c37f851c82e70ff6c80c92926a4b)
REM
REM compiler GCC version 9.2.1 20190827 (Red Hat 9.2.1-1)
REM options -cpp -mtune=generic -march=x86-64 -g -O0 -fpre-include=/usr/include/finclude/math-vector-fortran.h
REM seed -1501107008 978428020 -496444890 1726985872 -808508429 -2029261499 1587075670 1763840818 -1557705779 -1435330629 1602448286 -605981893 1579974346 1848434314 -850232219 -1240520932 1489538061 924659265 -545341449 321494190 1849450483 -1464818754 -1840690478 -1862040807 -878053888 -1837176102 835410169 -866407688 -1762286765 -141738040 -907653840 1922753286 -842355398
REM
CELL 1.54180   50.00000   50.00000   50.00000   90.00000   90.00000   90.00000
LATT -1
SFAC C  
C      1  0.5478680000000  0.4938840000000  0.4570170000000 1.0
C      1  0.5078540000000  0.5129250000000  0.3995240000000 1.0
C      1  0.4946510000000  0.4651980000000  0.4609570000000 1.0
C      1  0.5241480000000  0.4483260000000  0.5962080000000 1.0
C      1  0.5662790000000  0.4295460000000  0.4514830000000 1.0
C      1  0.4423490000000  0.4572880000000  0.5144900000000 1.0
C      1  0.5348360000000  0.5724570000000  0.4347510000000 1.0
C      1  0.5443240000000  0.4064340000000  0.5285920000000 1.0
C      1  0.5394230000000  0.4738580000000  0.4774960000000 1.0
C      1  0.5057380000000  0.5142150000000  0.4294820000000 1.0
C      1  0.4306670000000  0.5318090000000  0.5541480000000 1.0
C      1  0.4715100000000  0.4230750000000  0.5511290000000 1.0
C      1  0.4497360000000  0.5478760000000  0.4831740000000 1.0
C      1  0.5696930000000  0.5485750000000  0.5322690000000 1.0
C      1  0.4646560000000  0.5905330000000  0.4605280000000 1.0
C      1  0.5217080000000  0.4748710000000  0.6054770000000 1.0
C      1  0.5609320000000  0.4644670000000  0.4157910000000 1.0
C      1  0.5854410000000  0.5213290000000  0.4283590000000 1.0
C      1  0.4656040000000  0.4333120000000  0.4206410000000 1.0
C      1  0.5306800000000  0.4571100000000  0.5214610000000 1.0
C      1  0.5219280000000  0.3977950000000  0.4903250000000 1.0
C      1  0.5151050000000  0.5827220000000  0.4541440000000 1.0
C      1  0.4554300000000  0.5175200000000  0.5922930000000 1.0
C      1  0.4687250000000  0.5356910000000  0.5745540000000 1.0
C      1  0.3872310000000  0.5088060000000  0.5005660000000 1.0
C      1  0.5551000000000  0.4909740000000  0.4027130000000 1.0
C      1  0.5521450000000  0.4716770000000  0.5043550000000 1.0
C      1  0.5430290000000  0.5394620000000  0.5231360000000 1.0
C      1  0.5311670000000  0.4984100000000  0.3873340000000 1.0
C      1  0.4819310000000  0.4921160000000  0.5123530000000 1.0
C      1  0.5184860000000  0.4075080000000  0.5455410000000 1.0
C      1  0.5163070000000  0.5501700000000  0.5541400000000 1.0
C      1  0.4643910000000  0.5161860000000  0.5154420000000 1.0
C      1  0.5241820000000  0.4252780000000  0.5831320000000 1.0
C      1  0.4906990000000  0.4074180000000  0.5368520000000 1.0
C      1  0.4189180000000  0.4396790000000  0.5023070000000 1.0
C      1  0.5394260000000  0.5940810000000  0.5286070000000 1.0
C      1  0.4218160000000  0.4931720000000  0.4352650000000 1.0
C      1  0.4836350000000  0.4754070000000  0.5327450000000 1.0
C      1  0.5183020000000  0.4086020000000  0.4340360000000 1.0
C      1  0.4761610000000  0.5213140000000  0.4688440000000 1.0
C      1  0.5013690000000  0.5230980000000  0.6091650000000 1.0
C      1  0.4905320000000  0.4385170000000  0.4053810000000 1.0
C      1  0.4141740000000  0.4893540000000  0.5698290000000 1.0
C      1  0.4955090000000  0.4671500000000  0.4047890000000 1.0
C      1  0.6106180000000  0.4991960000000  0.5098750000000 1.0
C      1  0.5220430000000  0.4333820000000  0.5567930000000 1.0
C      1  0.5754180000000  0.4559990000000  0.4396220000000 1.0
C      1  0.5351090000000  0.5129790000000  0.5177710000000 1.0
C      1  0.4021200000000  0.5454090000000  0.4680160000000 1.0
C      1  0.5124460000000  0.5110520000000  0.4837170000000 1.0
C      1  0.4761320000000  0.4532060000000  0.5996070000000 1.0
C      1  0.5030170000000  0.5571680000000  0.4655490000000 1.0
C      1  0.5170060000000  0.4268820000000  0.4112640000000 1.0
C      1  0.4848740000000  0.5849710000000  0.4410390000000 1.0
C      1  0.6135150000000  0.4715480000000  0.5058680000000 1.0
C      1  0.5037600000000  0.4874080000000  0.3856550000000 1.0
C      1  0.4973260000000  0.6002590000000  0.5513870000000 1.0
C      1  0.4274370000000  0.4483820000000  0.4462060000000 1.0
C      1  0.5611780000000  0.5600350000000  0.4507980000000 1.0
C      1  0.4042790000000  0.5569950000000  0.4944720000000 1.0
C      1  0.5846100000000  0.5113590000000  0.5688300000000 1.0
C      1  0.5268500000000  0.4952930000000  0.4369960000000 1.0
C      1  0.4540400000000  0.5570770000000  0.5765100000000 1.0
C      1  0.4943410000000  0.5337670000000  0.4497080000000 1.0
C      1  0.4698820000000  0.4319100000000  0.5793650000000 1.0
C      1  0.5934120000000  0.4841840000000  0.5558920000000 1.0
C      1  0.5528390000000  0.4889130000000  0.5497350000000 1.0
C      1  0.4664910000000  0.4683360000000  0.4659930000000 1.0
C      1  0.4318620000000  0.5695320000000  0.5289210000000 1.0
C      1  0.4521990000000  0.5077610000000  0.4653620000000 1.0
C      1  0.5583440000000  0.5582190000000  0.5707740000000 1.0
C      1  0.4662970000000  0.4177640000000  0.4444640000000 1.0
C      1  0.5461710000000  0.4034010000000  0.4993800000000 1.0
C      1  0.4476250000000  0.5755200000000  0.5557250000000 1.0
C      1  0.5184770000000  0.5659430000000  0.5790930000000 1.0
C      1  0.4055480000000  0.4924210000000  0.5401850000000 1.0
C      1  0.5390070000000  0.5385880000000  0.4113680000000 1.0
C      1  0.5415950000000  0.4976790000000  0.6014830000000 1.0
C      1  0.4726100000000  0.5877310000000  0.5564570000000 1.0
C      1  0.4191590000000  0.4277970000000  0.5345610000000 1.0
C      1  0.5978010000000  0.4628340000000  0.4823460000000 1.0
C      1  0.4017470000000  0.4623080000000  0.4920280000000 1.0
C      1  0.5681020000000  0.4954850000000  0.5881520000000 1.0
C      1  0.5445950000000  0.4439920000000  0.5441860000000 1.0
C      1  0.4434270000000  0.4534660000000  0.4221700000000 1.0
C      1  0.5880420000000  0.5116350000000  0.5138990000000 1.0
C      1  0.4347070000000  0.4860420000000  0.5284160000000 1.0
C      1  0.4803690000000  0.3961020000000  0.5077510000000 1.0
C      1  0.5493660000000  0.5923480000000  0.5001200000000 1.0
C      1  0.5044350000000  0.6011880000000  0.4967180000000 1.0
C      1  0.3998910000000  0.4907910000000  0.4527330000000 1.0
C      1  0.4944550000000  0.4117550000000  0.4553780000000 1.0
C      1  0.4212000000000  0.5851170000000  0.4876710000000 1.0
C      1  0.4305850000000  0.5075520000000  0.4835900000000 1.0
C      1  0.4989130000000  0.3924720000000  0.4817280000000 1.0
C      1  0.4195350000000  0.5620040000000  0.4518920000000 1.0
C      1  0.4791610000000  0.5042410000000  0.6062440000000 1.0
C      1  0.5149680000000  0.4427460000000  0.5011250000000 1.0
C      1  0.4502100000000  0.4790670000000  0.4086170000000 1.0
C      1  0.4070670000000  0.4644220000000  0.4625930000000 1.0
C      1  0.5964410000000  0.5348330000000  0.4986380000000 1.0
C      1  0.5117620000000  0.6027340000000  0.5252030000000 1.0
C      1  0.5083360000000  0.4659650000000  0.5386180000000 1.0
C      1  0.5228680000000  0.5529310000000  0.5086300000000 1.0
C      1  0.5123210000000  0.4846120000000  0.4734600000000 1.0
C      1  0.4026610000000  0.5143990000000  0.4735830000000 1.0
C      1  0.5308990000000  0.5240430000000  0.6048930000000 1.0
C      1  0.5186980000000  0.5571890000000  0.4178400000000 1.0
C      1  0.4851280000000  0.5624260000000  0.4231500000000 1.0
C      1  0.4064550000000  0.5231200000000  0.5393440000000 1.0
C      1  0.5219780000000  0.5421010000000  0.4809510000000 1.0
C      1  0.4513010000000  0.4823640000000  0.5540240000000 1.0
C      1  0.5855790000000  0.5570520000000  0.5108760000000 1.0
C      1  0.4382190000000  0.5088620000000  0.5107050000000 1.0
C      1  0.4955870000000  0.5317870000000  0.5823900000000 1.0
C      1  0.4664290000000  0.5777300000000  0.5074930000000 1.0
C      1  0.5070740000000  0.4791000000000  0.5637930000000 1.0
C      1  0.5157070000000  0.5237030000000  0.5637770000000 1.0
C      1  0.4791650000000  0.4877150000000  0.5585120000000 1.0
C      1  0.4824230000000  0.5828650000000  0.4835800000000 1.0
C      1  0.5221860000000  0.5929120000000  0.5681440000000 1.0
C      1  0.5579590000000  0.4267110000000  0.4804060000000 1.0
C      1  0.4536980000000  0.4875540000000  0.4476790000000 1.0
C      1  0.4699200000000  0.4955100000000  0.4228020000000 1.0
C      1  0.4560720000000  0.5194360000000  0.4128600000000 1.0
C      1  0.4334690000000  0.4187050000000  0.4854540000000 1.0
C      1  0.5902080000000  0.5262760000000  0.4682910000000 1.0
C      1  0.3934610000000  0.4829090000000  0.5107650000000 1.0
C      1  0.5768320000000  0.5387320000000  0.5591860000000 1.0
C      1  0.4860100000000  0.4434410000000  0.5011950000000 1.0
C      1  0.4489370000000  0.4493010000000  0.5906130000000 1.0
C      1  0.5852800000000  0.5449300000000  0.4454270000000 1.0
C      1  0.5695080000000  0.4729580000000  0.5684080000000 1.0
C      1  0.4312040000000  0.5482390000000  0.5073160000000 1.0
C      1  0.5718190000000  0.5752390000000  0.4689780000000 1.0
C      1  0.4341860000000  0.5872350000000  0.4622690000000 1.0
C      1  0.4677800000000  0.4661150000000  0.4955600000000 1.0
C      1  0.5951320000000  0.5028960000000  0.4490570000000 1.0
C      1  0.4513570000000  0.4028260000000  0.5009140000000 1.0
C      1  0.5612770000000  0.5166310000000  0.4685910000000 1.0
C      1  0.4452940000000  0.5479340000000  0.4527140000000 1.0
C      1  0.6004100000000  0.4655510000000  0.5328070000000 1.0
C      1  0.5035650000000  0.5551930000000  0.5283530000000 1.0
C      1  0.4917130000000  0.4779420000000  0.6053710000000 1.0
C      1  0.3936520000000  0.5327200000000  0.5155400000000 1.0
C      1  0.5609390000000  0.5184860000000  0.4114030000000 1.0
C      1  0.5653680000000  0.4250480000000  0.5379060000000 1.0
C      1  0.5285620000000  0.4985310000000  0.5614950000000 1.0
C      1  0.5438180000000  0.4159950000000  0.4419250000000 1.0
C      1  0.5592210000000  0.4954990000000  0.5209590000000 1.0
C      1  0.5092250000000  0.5028750000000  0.5097090000000 1.0
C      1  0.5175530000000  0.4711770000000  0.4239290000000 1.0
C      1  0.5857880000000  0.4415930000000  0.5246680000000 1.0
C      1  0.4611040000000  0.5451830000000  0.4269110000000 1.0
C      1  0.5066680000000  0.4389000000000  0.4610900000000 1.0
C      1  0.5298590000000  0.4429720000000  0.4770530000000 1.0
C      1  0.5273410000000  0.5966970000000  0.4815540000000 1.0
C      1  0.4303130000000  0.5133010000000  0.5767800000000 1.0
C      1  0.5467360000000  0.5840420000000  0.5556700000000 1.0
C      1  0.4391680000000  0.5900950000000  0.5099400000000 1.0
C      1  0.5396720000000  0.5496840000000  0.5917620000000 1.0
C      1  0.5921400000000  0.4741250000000  0.4557490000000 1.0
C      1  0.4747900000000  0.5579750000000  0.5270650000000 1.0
C      1  0.4592080000000  0.5359250000000  0.5411540000000 1.0
C      1  0.4343430000000  0.4684030000000  0.5731610000000 1.0
C      1  0.4461940000000  0.4352740000000  0.5358630000000 1.0
C      1  0.5762150000000  0.5793970000000  0.4956460000000 1.0
C      1  0.4727540000000  0.4197080000000  0.4945020000000 1.0
C      1  0.4312410000000  0.5022410000000  0.4095980000000 1.0
C      1  0.5473330000000  0.5405110000000  0.4668740000000 1.0
C      1  0.5351070000000  0.4507370000000  0.4140570000000 1.0
C      1  0.4413270000000  0.4255730000000  0.4583050000000 1.0
C      1  0.4723730000000  0.5348770000000  0.4934520000000 1.0
C      1  0.5756730000000  0.4489210000000  0.4970390000000 1.0
END
