TITL C-4164247-2821-367 0.570154219118369 125000 -17225.5907336218 0 0 117 (C1) n - 1
REM
REM in /home/nfs/bkarasulu/CARBON/AIRSS/Generating-Clusters/ReaxFF-fromJPCA2015/Units_Real/with-SteepDescent/Only-C1/SD-CG/Try1-3A/FIRE-CG
REM
REM
REM
REM
REM
REM ./C.cell (11c1c37f851c82e70ff6c80c92926a4b)
REM
REM compiler GCC version 9.2.1 20190827 (Red Hat 9.2.1-1)
REM options -cpp -mtune=generic -march=x86-64 -g -O0 -fpre-include=/usr/include/finclude/math-vector-fortran.h
REM seed -1086964224 289168731 -1240886815 -1954242519 1657965934 -1533641940 1447591223 -1167076512 -1504357269 -186309934 270379793 2039621992 -12329515 808661883 -384311563 632199515 -1567082463 1230793499 -324984959 -1781392459 -36603643 -2020061551 -766843141 755632967 -443382596 355208152 -639114335 2003562474 287359583 1090862787 -236122686 1609014173 -1458020297
REM
CELL 1.54180   50.00000   50.00000   50.00000   90.00000   90.00000   90.00000
LATT -1
SFAC C  
C      1  0.4793680000000  0.5178040000000  0.4655830000000 1.0
C      1  0.4687920000000  0.4160560000000  0.4914300000000 1.0
C      1  0.5393710000000  0.5209930000000  0.5821860000000 1.0
C      1  0.5227820000000  0.5426320000000  0.5845990000000 1.0
C      1  0.4816780000000  0.4391900000000  0.5024940000000 1.0
C      1  0.5027640000000  0.4865030000000  0.4519130000000 1.0
C      1  0.6016460000000  0.5211180000000  0.5057000000000 1.0
C      1  0.4535660000000  0.4662070000000  0.5278600000000 1.0
C      1  0.4127570000000  0.5213680000000  0.5028440000000 1.0
C      1  0.4929930000000  0.5498410000000  0.5335780000000 1.0
C      1  0.4273620000000  0.4783680000000  0.5332160000000 1.0
C      1  0.5455080000000  0.5624410000000  0.4739430000000 1.0
C      1  0.5594770000000  0.5173750000000  0.5385000000000 1.0
C      1  0.4280820000000  0.4352720000000  0.5292380000000 1.0
C      1  0.5492950000000  0.4959410000000  0.4287830000000 1.0
C      1  0.5532200000000  0.5634690000000  0.5166160000000 1.0
C      1  0.5812360000000  0.5001400000000  0.5476640000000 1.0
C      1  0.4765360000000  0.4830050000000  0.5222650000000 1.0
C      1  0.5055180000000  0.5495350000000  0.4203560000000 1.0
C      1  0.4654800000000  0.5091170000000  0.5142900000000 1.0
C      1  0.5263070000000  0.4263570000000  0.5168300000000 1.0
C      1  0.5030770000000  0.5187890000000  0.4138560000000 1.0
C      1  0.4990610000000  0.4368600000000  0.4380840000000 1.0
C      1  0.5214630000000  0.4771310000000  0.3904470000000 1.0
C      1  0.4958020000000  0.5293310000000  0.5908900000000 1.0
C      1  0.4588850000000  0.5396650000000  0.4491420000000 1.0
C      1  0.5226490000000  0.4994830000000  0.4690840000000 1.0
C      1  0.4565830000000  0.4388440000000  0.5357060000000 1.0
C      1  0.4415970000000  0.4251980000000  0.4823480000000 1.0
C      1  0.5179860000000  0.4102440000000  0.4710500000000 1.0
C      1  0.4986570000000  0.5349670000000  0.4863560000000 1.0
C      1  0.5739000000000  0.4532250000000  0.4979600000000 1.0
C      1  0.5691520000000  0.5655260000000  0.4597710000000 1.0
C      1  0.5160460000000  0.4618740000000  0.4895360000000 1.0
C      1  0.4244270000000  0.5070190000000  0.4561480000000 1.0
C      1  0.4931090000000  0.4765220000000  0.4012100000000 1.0
C      1  0.4870320000000  0.4673950000000  0.4931070000000 1.0
C      1  0.4556250000000  0.5223180000000  0.5376870000000 1.0
C      1  0.4826860000000  0.4289340000000  0.5451210000000 1.0
C      1  0.4159710000000  0.4665300000000  0.4874420000000 1.0
C      1  0.4426130000000  0.4836380000000  0.5888400000000 1.0
C      1  0.5067220000000  0.5619740000000  0.4694970000000 1.0
C      1  0.5363960000000  0.5434660000000  0.4515050000000 1.0
C      1  0.4827400000000  0.6014470000000  0.5139900000000 1.0
C      1  0.5294850000000  0.4995500000000  0.4085890000000 1.0
C      1  0.4887900000000  0.4067810000000  0.4715520000000 1.0
C      1  0.4200890000000  0.5370060000000  0.5251480000000 1.0
C      1  0.4788600000000  0.4855840000000  0.5519510000000 1.0
C      1  0.5437780000000  0.4934300000000  0.5796390000000 1.0
C      1  0.5600060000000  0.5495270000000  0.4371630000000 1.0
C      1  0.5551000000000  0.5468370000000  0.5401990000000 1.0
C      1  0.4671500000000  0.5353350000000  0.5868220000000 1.0
C      1  0.4800530000000  0.5023660000000  0.4028010000000 1.0
C      1  0.5671740000000  0.5033170000000  0.4953330000000 1.0
C      1  0.4704510000000  0.4909380000000  0.4778950000000 1.0
C      1  0.5739650000000  0.5165160000000  0.4554940000000 1.0
C      1  0.5555450000000  0.4710760000000  0.4467920000000 1.0
C      1  0.4425130000000  0.5490800000000  0.4724320000000 1.0
C      1  0.5346650000000  0.5562850000000  0.5603940000000 1.0
C      1  0.4824250000000  0.5580370000000  0.4356940000000 1.0
C      1  0.5335270000000  0.5561590000000  0.4240950000000 1.0
C      1  0.5665680000000  0.4561390000000  0.5261750000000 1.0
C      1  0.4425920000000  0.5173700000000  0.4364860000000 1.0
C      1  0.5452440000000  0.5151160000000  0.4515090000000 1.0
C      1  0.4581150000000  0.5881360000000  0.5082000000000 1.0
C      1  0.4218110000000  0.5292130000000  0.4757960000000 1.0
C      1  0.5586460000000  0.4340960000000  0.4808110000000 1.0
C      1  0.4717680000000  0.4603040000000  0.5712930000000 1.0
C      1  0.5093880000000  0.5954230000000  0.5036140000000 1.0
C      1  0.4813040000000  0.5493100000000  0.5048140000000 1.0
C      1  0.5247150000000  0.4281080000000  0.4486980000000 1.0
C      1  0.5054150000000  0.4989320000000  0.5542030000000 1.0
C      1  0.5081370000000  0.5901210000000  0.4751710000000 1.0
C      1  0.5826030000000  0.5281050000000  0.4845760000000 1.0
C      1  0.5274920000000  0.4798830000000  0.5534460000000 1.0
C      1  0.4418650000000  0.4592470000000  0.5740550000000 1.0
C      1  0.4383680000000  0.5457310000000  0.5435860000000 1.0
C      1  0.5254930000000  0.4536550000000  0.5131930000000 1.0
C      1  0.5506630000000  0.4413760000000  0.4536230000000 1.0
C      1  0.4973010000000  0.4227860000000  0.5206580000000 1.0
C      1  0.5399030000000  0.4723790000000  0.5269850000000 1.0
C      1  0.4555920000000  0.4980620000000  0.4183030000000 1.0
C      1  0.5361330000000  0.4750230000000  0.4736300000000 1.0
C      1  0.4583060000000  0.5044870000000  0.5580660000000 1.0
C      1  0.5559090000000  0.4553480000000  0.5669140000000 1.0
C      1  0.5013440000000  0.5013400000000  0.5859100000000 1.0
C      1  0.5802550000000  0.4790690000000  0.4852720000000 1.0
C      1  0.4241240000000  0.4409230000000  0.4996680000000 1.0
C      1  0.4231320000000  0.4775350000000  0.4616670000000 1.0
C      1  0.4219060000000  0.4556760000000  0.5501660000000 1.0
C      1  0.5299080000000  0.5810870000000  0.5201210000000 1.0
C      1  0.5160700000000  0.5702850000000  0.5432010000000 1.0
C      1  0.5162520000000  0.5166790000000  0.5064580000000 1.0
C      1  0.4935920000000  0.5101920000000  0.4414700000000 1.0
C      1  0.5377150000000  0.4165970000000  0.4917810000000 1.0
C      1  0.4674250000000  0.5905290000000  0.5350700000000 1.0
C      1  0.4943720000000  0.4435290000000  0.5666840000000 1.0
C      1  0.4607030000000  0.4712390000000  0.4284190000000 1.0
C      1  0.5207000000000  0.4809350000000  0.5926890000000 1.0
C      1  0.5788390000000  0.4878450000000  0.4572530000000 1.0
C      1  0.4561200000000  0.5541650000000  0.5677100000000 1.0
C      1  0.4917330000000  0.4655090000000  0.4317800000000 1.0
C      1  0.5987740000000  0.5110090000000  0.5292560000000 1.0
C      1  0.4488220000000  0.5110800000000  0.5851270000000 1.0
C      1  0.5686650000000  0.5582660000000  0.4905870000000 1.0
C      1  0.4770560000000  0.4224590000000  0.4501190000000 1.0
C      1  0.4188330000000  0.4898190000000  0.5064010000000 1.0
C      1  0.5443420000000  0.5040460000000  0.5143790000000 1.0
C      1  0.4413910000000  0.4598160000000  0.4463400000000 1.0
C      1  0.4757420000000  0.5685440000000  0.5523030000000 1.0
C      1  0.4500480000000  0.4335540000000  0.4561390000000 1.0
C      1  0.5756460000000  0.4685530000000  0.5513510000000 1.0
C      1  0.5064360000000  0.5217000000000  0.5324330000000 1.0
C      1  0.4574190000000  0.5621760000000  0.4948660000000 1.0
C      1  0.4882710000000  0.5790920000000  0.4543550000000 1.0
C      1  0.5232740000000  0.4580870000000  0.5729670000000 1.0
C      1  0.4482650000000  0.4993800000000  0.4935970000000 1.0
END
