TITL C-4164237-1827-43 -5.13431298841038 125000 -7371.34949497712 0 0 50 (C1) n - 1
REM
REM in /home/nfs/bkarasulu/CARBON/AIRSS/Generating-Clusters/ReaxFF-fromJPCA2015/Units_Real/with-SteepDescent/Only-C1/SD-CG/Try1-3A/FIRE-CG
REM
REM
REM
REM
REM
REM ./C.cell (11c1c37f851c82e70ff6c80c92926a4b)
REM
REM compiler GCC version 9.2.1 20190827 (Red Hat 9.2.1-1)
REM options -cpp -mtune=generic -march=x86-64 -g -O0 -fpre-include=/usr/include/finclude/math-vector-fortran.h
REM seed -722294613 -374048414 -1288642947 2025194110 1398776314 16766974 1193458323 -1755876821 -728058361 -1272015307 -1649702103 -1012765432 -2114602694 -830355052 -59020710 -42771721 1053514823 148539195 1137221756 -1190137188 1534389822 -566921661 1415442456 1810934226 -1170495033 -1300829371 58539376 1111272580 -1898289221 396909473 2128616949 812647287 -1424800939
REM
CELL 1.54180   50.00000   50.00000   50.00000   90.00000   90.00000   90.00000
LATT -1
SFAC C  
C      1  0.4865790000000  0.5001380000000  0.5402060000000 1.0
C      1  0.4408810000000  0.4974680000000  0.5132740000000 1.0
C      1  0.4848560000000  0.4339510000000  0.4770380000000 1.0
C      1  0.5524640000000  0.4693980000000  0.5429580000000 1.0
C      1  0.4659310000000  0.4981730000000  0.4438210000000 1.0
C      1  0.5194160000000  0.4901650000000  0.4475710000000 1.0
C      1  0.5387740000000  0.4634650000000  0.5015130000000 1.0
C      1  0.5113740000000  0.4401680000000  0.4731220000000 1.0
C      1  0.4986190000000  0.5612800000000  0.4607490000000 1.0
C      1  0.4701290000000  0.5199660000000  0.5540080000000 1.0
C      1  0.4710190000000  0.4772150000000  0.5500110000000 1.0
C      1  0.5368380000000  0.4509550000000  0.4755250000000 1.0
C      1  0.4556270000000  0.5455110000000  0.5392180000000 1.0
C      1  0.4711490000000  0.5660330000000  0.5276220000000 1.0
C      1  0.5093070000000  0.5416010000000  0.4414180000000 1.0
C      1  0.4376310000000  0.5173550000000  0.4666630000000 1.0
C      1  0.5559890000000  0.5240350000000  0.5191700000000 1.0
C      1  0.5271450000000  0.5407970000000  0.5438400000000 1.0
C      1  0.5617890000000  0.4661500000000  0.5149960000000 1.0
C      1  0.4974920000000  0.4599880000000  0.5476570000000 1.0
C      1  0.4956530000000  0.5713400000000  0.5141410000000 1.0
C      1  0.4757280000000  0.4579980000000  0.4622570000000 1.0
C      1  0.4502290000000  0.4648780000000  0.4735170000000 1.0
C      1  0.4806810000000  0.5463920000000  0.4426200000000 1.0
C      1  0.4488880000000  0.4751360000000  0.5255570000000 1.0
C      1  0.4600090000000  0.5002040000000  0.5723160000000 1.0
C      1  0.5004060000000  0.5547300000000  0.4888500000000 1.0
C      1  0.5271530000000  0.5179640000000  0.4465150000000 1.0
C      1  0.5424300000000  0.4924110000000  0.5571810000000 1.0
C      1  0.5457050000000  0.5206050000000  0.5466250000000 1.0
C      1  0.4901810000000  0.5022530000000  0.4867000000000 1.0
C      1  0.4901220000000  0.4864580000000  0.4590540000000 1.0
C      1  0.5248950000000  0.4873090000000  0.5038230000000 1.0
C      1  0.5051360000000  0.5261630000000  0.4926520000000 1.0
C      1  0.4737410000000  0.4397680000000  0.5051630000000 1.0
C      1  0.4960070000000  0.4860050000000  0.5114790000000 1.0
C      1  0.5750120000000  0.4854980000000  0.4971430000000 1.0
C      1  0.5102680000000  0.5580370000000  0.5344710000000 1.0
C      1  0.4500030000000  0.4566910000000  0.5025000000000 1.0
C      1  0.4932910000000  0.4547890000000  0.5196720000000 1.0
C      1  0.5251700000000  0.4686410000000  0.5550920000000 1.0
C      1  0.4331260000000  0.5198640000000  0.4970630000000 1.0
C      1  0.5344230000000  0.5153870000000  0.4963500000000 1.0
C      1  0.5421840000000  0.4747620000000  0.4571770000000 1.0
C      1  0.4593780000000  0.5263700000000  0.4482030000000 1.0
C      1  0.5475350000000  0.5157800000000  0.4677370000000 1.0
C      1  0.5817480000000  0.5108400000000  0.5120470000000 1.0
C      1  0.4433970000000  0.5393710000000  0.5148660000000 1.0
C      1  0.5626410000000  0.4912120000000  0.4702410000000 1.0
C      1  0.4418500000000  0.4893340000000  0.4586090000000 1.0
END
