TITL C-4164240-4114-291 20.4115944946561 125000 -17443.3448604522 0 0 119 (C1) n - 1
REM
REM in /home/nfs/bkarasulu/CARBON/AIRSS/Generating-Clusters/ReaxFF-fromJPCA2015/Units_Real/with-SteepDescent/Only-C1/SD-CG/Try1-3A/FIRE-CG
REM
REM
REM
REM
REM
REM ./C.cell (11c1c37f851c82e70ff6c80c92926a4b)
REM
REM compiler GCC version 9.2.1 20190827 (Red Hat 9.2.1-1)
REM options -cpp -mtune=generic -march=x86-64 -g -O0 -fpre-include=/usr/include/finclude/math-vector-fortran.h
REM seed -381782508 462112416 -1357707547 -207389405 -636254491 -664606333 -63051570 536202958 304337153 -400380477 1345027772 -1710780458 638969909 -1176417320 -670223848 -424945662 1344544172 -739359269 1400531736 163346142 -1872329884 -1088056462 615866227 216304829 1122039694 -359756593 -903812859 -201725309 1776282669 435600402 350423443 -1068584701 1535250387
REM
CELL 1.54180   50.00000   50.00000   50.00000   90.00000   90.00000   90.00000
LATT -1
SFAC C  
C      1  0.4912520000000  0.4653710000000  0.4849870000000 1.0
C      1  0.5542530000000  0.4010260000000  0.5102350000000 1.0
C      1  0.4969670000000  0.5099010000000  0.4116430000000 1.0
C      1  0.4656420000000  0.4729050000000  0.4958790000000 1.0
C      1  0.5877380000000  0.5623520000000  0.4956470000000 1.0
C      1  0.5282020000000  0.5766910000000  0.5296400000000 1.0
C      1  0.4372570000000  0.5650490000000  0.4709220000000 1.0
C      1  0.5421280000000  0.4559740000000  0.5426420000000 1.0
C      1  0.4967270000000  0.4511940000000  0.5788220000000 1.0
C      1  0.4782530000000  0.4261960000000  0.5333970000000 1.0
C      1  0.4610580000000  0.5157850000000  0.4919560000000 1.0
C      1  0.5201490000000  0.4868860000000  0.5719260000000 1.0
C      1  0.4587730000000  0.4217040000000  0.4853380000000 1.0
C      1  0.5168430000000  0.4264150000000  0.4426040000000 1.0
C      1  0.5761340000000  0.4855230000000  0.4556700000000 1.0
C      1  0.5623640000000  0.5403290000000  0.5619930000000 1.0
C      1  0.4503180000000  0.4808330000000  0.4205300000000 1.0
C      1  0.5482550000000  0.5065710000000  0.4186280000000 1.0
C      1  0.5625720000000  0.4404150000000  0.4632510000000 1.0
C      1  0.4122150000000  0.4652280000000  0.5214820000000 1.0
C      1  0.5566450000000  0.5231350000000  0.4998850000000 1.0
C      1  0.4376320000000  0.5514590000000  0.5643330000000 1.0
C      1  0.4554630000000  0.4520130000000  0.4163290000000 1.0
C      1  0.5666530000000  0.5299030000000  0.4595880000000 1.0
C      1  0.4157560000000  0.5167330000000  0.4803990000000 1.0
C      1  0.4405940000000  0.4486230000000  0.5569110000000 1.0
C      1  0.4203310000000  0.5455690000000  0.4834980000000 1.0
C      1  0.4353030000000  0.4870410000000  0.5701420000000 1.0
C      1  0.4699300000000  0.4189070000000  0.4586890000000 1.0
C      1  0.4408060000000  0.4675870000000  0.4811300000000 1.0
C      1  0.4231300000000  0.4899350000000  0.4672600000000 1.0
C      1  0.4457820000000  0.5050390000000  0.5889320000000 1.0
C      1  0.5388480000000  0.5350690000000  0.4597010000000 1.0
C      1  0.5879180000000  0.4846760000000  0.4840280000000 1.0
C      1  0.5599850000000  0.5522350000000  0.5077950000000 1.0
C      1  0.5010180000000  0.5733070000000  0.4281270000000 1.0
C      1  0.4608970000000  0.5664440000000  0.5521250000000 1.0
C      1  0.4800500000000  0.4172730000000  0.5054810000000 1.0
C      1  0.5254440000000  0.5793400000000  0.4774810000000 1.0
C      1  0.5147370000000  0.5292130000000  0.5668580000000 1.0
C      1  0.4892930000000  0.5807320000000  0.4549820000000 1.0
C      1  0.4988160000000  0.4340160000000  0.5524660000000 1.0
C      1  0.5225660000000  0.5309150000000  0.5388000000000 1.0
C      1  0.4495040000000  0.5629650000000  0.4232050000000 1.0
C      1  0.4789600000000  0.5405790000000  0.4364470000000 1.0
C      1  0.4437990000000  0.4944840000000  0.5433590000000 1.0
C      1  0.4741180000000  0.5417750000000  0.4861490000000 1.0
C      1  0.5021990000000  0.4505940000000  0.4337200000000 1.0
C      1  0.4758370000000  0.4707030000000  0.5866220000000 1.0
C      1  0.4504230000000  0.5721460000000  0.4973670000000 1.0
C      1  0.4685060000000  0.5426100000000  0.5384700000000 1.0
C      1  0.4936100000000  0.5352280000000  0.5273770000000 1.0
C      1  0.4598940000000  0.5211040000000  0.4418300000000 1.0
C      1  0.4765140000000  0.5615820000000  0.4155220000000 1.0
C      1  0.5207350000000  0.5130950000000  0.4567680000000 1.0
C      1  0.5339450000000  0.5116680000000  0.5145990000000 1.0
C      1  0.4896020000000  0.5723290000000  0.5591370000000 1.0
C      1  0.4984700000000  0.4129930000000  0.4614190000000 1.0
C      1  0.4985120000000  0.5483520000000  0.5765600000000 1.0
C      1  0.4796600000000  0.4404310000000  0.4183080000000 1.0
C      1  0.5688950000000  0.4637080000000  0.5416500000000 1.0
C      1  0.5081610000000  0.4863980000000  0.5440900000000 1.0
C      1  0.5176330000000  0.4699730000000  0.4995160000000 1.0
C      1  0.5773310000000  0.4911780000000  0.5492020000000 1.0
C      1  0.5271960000000  0.4311290000000  0.5465560000000 1.0
C      1  0.5457360000000  0.4817360000000  0.4660260000000 1.0
C      1  0.5264410000000  0.4742330000000  0.5270160000000 1.0
C      1  0.5220600000000  0.5241990000000  0.4158390000000 1.0
C      1  0.5220080000000  0.4839890000000  0.4496420000000 1.0
C      1  0.4911250000000  0.5531950000000  0.5046640000000 1.0
C      1  0.4987870000000  0.5896180000000  0.4809850000000 1.0
C      1  0.4824930000000  0.5814850000000  0.5056100000000 1.0
C      1  0.5490330000000  0.4781640000000  0.4122660000000 1.0
C      1  0.5455520000000  0.4305740000000  0.4409910000000 1.0
C      1  0.5586460000000  0.4518470000000  0.4229600000000 1.0
C      1  0.5693870000000  0.5102730000000  0.4384840000000 1.0
C      1  0.4500340000000  0.5325050000000  0.5836870000000 1.0
C      1  0.5831130000000  0.5083260000000  0.5011930000000 1.0
C      1  0.5545280000000  0.5488140000000  0.5887230000000 1.0
C      1  0.5422750000000  0.4998750000000  0.5854900000000 1.0
C      1  0.4483200000000  0.4311260000000  0.5375720000000 1.0
C      1  0.5881480000000  0.5493480000000  0.4699290000000 1.0
C      1  0.4475980000000  0.4620840000000  0.5801590000000 1.0
C      1  0.4713300000000  0.5071890000000  0.4667470000000 1.0
C      1  0.4687270000000  0.5042600000000  0.4181250000000 1.0
C      1  0.5363690000000  0.4079340000000  0.5304120000000 1.0
C      1  0.5127650000000  0.4995340000000  0.4986950000000 1.0
C      1  0.4999880000000  0.5809350000000  0.5336110000000 1.0
C      1  0.5214270000000  0.5524490000000  0.4276080000000 1.0
C      1  0.5456940000000  0.5529460000000  0.5385630000000 1.0
C      1  0.4352400000000  0.4860140000000  0.4437650000000 1.0
C      1  0.4402690000000  0.5493390000000  0.4458090000000 1.0
C      1  0.4074900000000  0.4875230000000  0.5231480000000 1.0
C      1  0.5388650000000  0.5743410000000  0.5025620000000 1.0
C      1  0.4977920000000  0.4684440000000  0.4564820000000 1.0
C      1  0.4359950000000  0.4397120000000  0.4902520000000 1.0
C      1  0.5774310000000  0.4607680000000  0.4947660000000 1.0
C      1  0.4276010000000  0.5438890000000  0.5379560000000 1.0
C      1  0.5034120000000  0.4095040000000  0.4898500000000 1.0
C      1  0.4339930000000  0.5097070000000  0.5019390000000 1.0
C      1  0.4265830000000  0.4400280000000  0.5181850000000 1.0
C      1  0.4789970000000  0.5280460000000  0.5853530000000 1.0
C      1  0.4251430000000  0.5108690000000  0.5300260000000 1.0
C      1  0.4308690000000  0.5579300000000  0.5122800000000 1.0
C      1  0.4830920000000  0.4869100000000  0.5392360000000 1.0
C      1  0.4631810000000  0.4832050000000  0.5256110000000 1.0
C      1  0.5311230000000  0.4122740000000  0.4999120000000 1.0
C      1  0.4735260000000  0.4993800000000  0.5927560000000 1.0
C      1  0.5935030000000  0.5064430000000  0.5289330000000 1.0
C      1  0.5308140000000  0.5603700000000  0.4536530000000 1.0
C      1  0.5796950000000  0.4636480000000  0.5180710000000 1.0
C      1  0.5626000000000  0.5102570000000  0.5671750000000 1.0
C      1  0.4807160000000  0.5536190000000  0.4611730000000 1.0
C      1  0.4591060000000  0.4288440000000  0.4333080000000 1.0
C      1  0.5315760000000  0.5270650000000  0.5896970000000 1.0
C      1  0.5169600000000  0.4677630000000  0.5896830000000 1.0
C      1  0.5482190000000  0.4585190000000  0.4833440000000 1.0
C      1  0.4986030000000  0.5117010000000  0.4758690000000 1.0
C      1  0.5778240000000  0.4567170000000  0.4442070000000 1.0
END
