TITL C-4164240-4114-153 3.33894288590295 125000 -13303.6982275101 0 0 90 (C1) n - 1
REM
REM in /home/nfs/bkarasulu/CARBON/AIRSS/Generating-Clusters/ReaxFF-fromJPCA2015/Units_Real/with-SteepDescent/Only-C1/SD-CG/Try1-3A/FIRE-CG
REM
REM
REM
REM
REM
REM ./C.cell (11c1c37f851c82e70ff6c80c92926a4b)
REM
REM compiler GCC version 9.2.1 20190827 (Red Hat 9.2.1-1)
REM options -cpp -mtune=generic -march=x86-64 -g -O0 -fpre-include=/usr/include/finclude/math-vector-fortran.h
REM seed 1621770994 1682440330 1088547135 -1497109850 586769458 673976716 -1107878960 928039900 -1125441009 -1336283721 -1653791910 -2088846980 516565485 -1243256288 -2122187160 -834029049 -1453317281 1934869792 -513847946 1577685534 334936501 -1905644259 454780113 814922792 -184751934 -362635294 1745547180 -905749098 2026136061 1713383983 -914928588 742508479 1387618360
REM
CELL 1.54180   50.00000   50.00000   50.00000   90.00000   90.00000   90.00000
LATT -1
SFAC C  
C      1  0.4733320000000  0.5030520000000  0.5756700000000 1.0
C      1  0.5128320000000  0.5069620000000  0.5348290000000 1.0
C      1  0.5501460000000  0.4513140000000  0.4394250000000 1.0
C      1  0.5112730000000  0.4761920000000  0.4684100000000 1.0
C      1  0.5237900000000  0.4355530000000  0.5434300000000 1.0
C      1  0.4203930000000  0.4919780000000  0.5200950000000 1.0
C      1  0.5615620000000  0.4969690000000  0.4374000000000 1.0
C      1  0.4863030000000  0.5242350000000  0.4272010000000 1.0
C      1  0.3982610000000  0.4665530000000  0.4779420000000 1.0
C      1  0.5114170000000  0.4857020000000  0.4897640000000 1.0
C      1  0.5631190000000  0.5560040000000  0.5285620000000 1.0
C      1  0.5606900000000  0.4565560000000  0.5135100000000 1.0
C      1  0.5441020000000  0.4748210000000  0.5587140000000 1.0
C      1  0.4132340000000  0.4485720000000  0.4932780000000 1.0
C      1  0.4848110000000  0.5786930000000  0.5089170000000 1.0
C      1  0.4518460000000  0.4863260000000  0.5634310000000 1.0
C      1  0.4883340000000  0.4643470000000  0.5347690000000 1.0
C      1  0.5484190000000  0.4383310000000  0.4935790000000 1.0
C      1  0.5485550000000  0.5126930000000  0.4732750000000 1.0
C      1  0.5863310000000  0.4833240000000  0.4784470000000 1.0
C      1  0.4571050000000  0.5633680000000  0.5354270000000 1.0
C      1  0.5475560000000  0.4532570000000  0.5393540000000 1.0
C      1  0.5540090000000  0.5637050000000  0.4622650000000 1.0
C      1  0.5244980000000  0.4213370000000  0.4991170000000 1.0
C      1  0.5177400000000  0.4733960000000  0.5724120000000 1.0
C      1  0.4902360000000  0.5855010000000  0.4812780000000 1.0
C      1  0.4752580000000  0.4587150000000  0.4386400000000 1.0
C      1  0.5422910000000  0.5491520000000  0.5498040000000 1.0
C      1  0.4757150000000  0.4521740000000  0.5121620000000 1.0
C      1  0.5332560000000  0.4948260000000  0.4245970000000 1.0
C      1  0.5804250000000  0.5050440000000  0.5193730000000 1.0
C      1  0.4110200000000  0.4906750000000  0.4700410000000 1.0
C      1  0.5182140000000  0.5211800000000  0.5796530000000 1.0
C      1  0.4541780000000  0.4678640000000  0.4994000000000 1.0
C      1  0.5020430000000  0.4967730000000  0.5807070000000 1.0
C      1  0.4850960000000  0.5544490000000  0.4397770000000 1.0
C      1  0.5045470000000  0.4527900000000  0.5568330000000 1.0
C      1  0.5317060000000  0.5534820000000  0.5014900000000 1.0
C      1  0.5436340000000  0.5410300000000  0.4778280000000 1.0
C      1  0.5385780000000  0.5054110000000  0.5223460000000 1.0
C      1  0.4728640000000  0.5319800000000  0.5722720000000 1.0
C      1  0.4376040000000  0.5263470000000  0.5382020000000 1.0
C      1  0.4882580000000  0.5066460000000  0.4897860000000 1.0
C      1  0.5705820000000  0.4701020000000  0.4377400000000 1.0
C      1  0.4947020000000  0.4240620000000  0.4559150000000 1.0
C      1  0.5141720000000  0.5530120000000  0.5459220000000 1.0
C      1  0.5103470000000  0.5110270000000  0.4255030000000 1.0
C      1  0.5504530000000  0.5740690000000  0.5088450000000 1.0
C      1  0.4601660000000  0.5008110000000  0.4980820000000 1.0
C      1  0.4521770000000  0.5559250000000  0.4830960000000 1.0
C      1  0.4851130000000  0.5129380000000  0.5347680000000 1.0
C      1  0.5728970000000  0.5041930000000  0.4629390000000 1.0
C      1  0.5829200000000  0.4653020000000  0.4585230000000 1.0
C      1  0.5192690000000  0.4196130000000  0.4691650000000 1.0
C      1  0.5187090000000  0.5921430000000  0.4773550000000 1.0
C      1  0.4375660000000  0.4549550000000  0.4775490000000 1.0
C      1  0.4561870000000  0.5719400000000  0.5084870000000 1.0
C      1  0.5042310000000  0.4655740000000  0.4458230000000 1.0
C      1  0.4553390000000  0.4798110000000  0.4384730000000 1.0
C      1  0.4193530000000  0.5062700000000  0.4938570000000 1.0
C      1  0.5436360000000  0.4359780000000  0.4647260000000 1.0
C      1  0.5479270000000  0.5859480000000  0.4809190000000 1.0
C      1  0.5044170000000  0.5542900000000  0.5150610000000 1.0
C      1  0.5369140000000  0.4951490000000  0.4946210000000 1.0
C      1  0.5277360000000  0.4665260000000  0.4278730000000 1.0
C      1  0.4514080000000  0.5460140000000  0.5567550000000 1.0
C      1  0.5437420000000  0.5240950000000  0.5656090000000 1.0
C      1  0.5084310000000  0.4212750000000  0.5232460000000 1.0
C      1  0.5339540000000  0.5725530000000  0.4444170000000 1.0
C      1  0.5003410000000  0.5423840000000  0.5690450000000 1.0
C      1  0.4961230000000  0.5336020000000  0.4954950000000 1.0
C      1  0.4783940000000  0.4259800000000  0.5242870000000 1.0
C      1  0.4598100000000  0.4321070000000  0.5465340000000 1.0
C      1  0.5790050000000  0.4788900000000  0.5070210000000 1.0
C      1  0.5102930000000  0.5641230000000  0.4401800000000 1.0
C      1  0.5740650000000  0.5306870000000  0.5231770000000 1.0
C      1  0.4596650000000  0.5232460000000  0.4590020000000 1.0
C      1  0.4320860000000  0.4736400000000  0.4555530000000 1.0
C      1  0.4622760000000  0.5082290000000  0.4344760000000 1.0
C      1  0.4950270000000  0.4891550000000  0.5251430000000 1.0
C      1  0.4609920000000  0.5163950000000  0.5222590000000 1.0
C      1  0.4258250000000  0.4619850000000  0.5180080000000 1.0
C      1  0.5527100000000  0.5012140000000  0.5489360000000 1.0
C      1  0.4346280000000  0.4452980000000  0.5425940000000 1.0
C      1  0.4513870000000  0.4570760000000  0.5627450000000 1.0
C      1  0.4691030000000  0.4287910000000  0.4420730000000 1.0
C      1  0.4307300000000  0.4993200000000  0.5466040000000 1.0
C      1  0.4721240000000  0.5655870000000  0.4653110000000 1.0
C      1  0.4871040000000  0.5276280000000  0.4698010000000 1.0
C      1  0.4413810000000  0.5238040000000  0.4830780000000 1.0
END
