TITL C-4164242-3624-560 59.1067577020924 125000 -23937.3299141929 0 0 160 (C1) n - 1
REM
REM in /home/nfs/bkarasulu/CARBON/AIRSS/Generating-Clusters/ReaxFF-fromJPCA2015/Units_Real/with-SteepDescent/Only-C1/SD-CG/Try1-3A/FIRE-CG
REM
REM
REM
REM
REM
REM ./C.cell (11c1c37f851c82e70ff6c80c92926a4b)
REM
REM compiler GCC version 9.2.1 20190827 (Red Hat 9.2.1-1)
REM options -cpp -mtune=generic -march=x86-64 -g -O0 -fpre-include=/usr/include/finclude/math-vector-fortran.h
REM seed 1667841600 335017140 -593442913 173969192 599391659 510440646 605487087 1492018036 -203521837 569349424 1148673756 -789342725 822436524 -1628159315 -22806692 -314219083 777784105 -1530508916 2009723081 -1215845964 -611174215 1164053635 -262530688 1450931646 444433276 -2130419001 1993897979 -1173225937 518522108 -1508066302 86466927 -1116730094 203995241
REM
CELL 1.54180   50.00000   50.00000   50.00000   90.00000   90.00000   90.00000
LATT -1
SFAC C  
C      1  0.5287260000000  0.4769850000000  0.4539860000000 1.0
C      1  0.3877110000000  0.5249800000000  0.5042780000000 1.0
C      1  0.5300500000000  0.5939410000000  0.4757790000000 1.0
C      1  0.5004410000000  0.4887120000000  0.4095140000000 1.0
C      1  0.5311150000000  0.4498620000000  0.5094010000000 1.0
C      1  0.5566520000000  0.4891820000000  0.4856180000000 1.0
C      1  0.5425070000000  0.4614780000000  0.4128620000000 1.0
C      1  0.5033750000000  0.5903870000000  0.4665180000000 1.0
C      1  0.5476040000000  0.5805210000000  0.5495640000000 1.0
C      1  0.5947930000000  0.5091140000000  0.4349320000000 1.0
C      1  0.5763320000000  0.4413320000000  0.5521140000000 1.0
C      1  0.4318630000000  0.4640050000000  0.5437590000000 1.0
C      1  0.5204640000000  0.4505640000000  0.4574690000000 1.0
C      1  0.4213350000000  0.5505580000000  0.4944200000000 1.0
C      1  0.4620130000000  0.5413990000000  0.5246360000000 1.0
C      1  0.4699570000000  0.5153370000000  0.5349690000000 1.0
C      1  0.4670450000000  0.3949660000000  0.4901420000000 1.0
C      1  0.6070720000000  0.4922250000000  0.4766640000000 1.0
C      1  0.5375570000000  0.4261300000000  0.5313890000000 1.0
C      1  0.5081850000000  0.4733250000000  0.5963290000000 1.0
C      1  0.4435500000000  0.5587160000000  0.5434410000000 1.0
C      1  0.4627180000000  0.5340760000000  0.4773380000000 1.0
C      1  0.5189910000000  0.3942740000000  0.5049600000000 1.0
C      1  0.4559550000000  0.6072640000000  0.4775480000000 1.0
C      1  0.5169120000000  0.5117230000000  0.3910630000000 1.0
C      1  0.5088630000000  0.4986150000000  0.4576200000000 1.0
C      1  0.5164230000000  0.5400420000000  0.5798290000000 1.0
C      1  0.4125540000000  0.4429380000000  0.5327030000000 1.0
C      1  0.5586790000000  0.4058810000000  0.4932490000000 1.0
C      1  0.5721940000000  0.5439510000000  0.5551400000000 1.0
C      1  0.5017020000000  0.5060890000000  0.4850050000000 1.0
C      1  0.4969030000000  0.5777590000000  0.5867850000000 1.0
C      1  0.4723580000000  0.4797780000000  0.4033640000000 1.0
C      1  0.4945470000000  0.4394030000000  0.4240600000000 1.0
C      1  0.5459830000000  0.4299150000000  0.4528880000000 1.0
C      1  0.5169250000000  0.5423420000000  0.4739150000000 1.0
C      1  0.5880790000000  0.5203050000000  0.5534290000000 1.0
C      1  0.6020380000000  0.4731230000000  0.5199370000000 1.0
C      1  0.4774050000000  0.4369990000000  0.5813670000000 1.0
C      1  0.5524890000000  0.5002390000000  0.5907440000000 1.0
C      1  0.4783140000000  0.5857120000000  0.5680040000000 1.0
C      1  0.5279440000000  0.5566200000000  0.5508930000000 1.0
C      1  0.4622260000000  0.4858300000000  0.4813610000000 1.0
C      1  0.5439660000000  0.5922630000000  0.5245230000000 1.0
C      1  0.4574290000000  0.4953510000000  0.5986730000000 1.0
C      1  0.5387770000000  0.5259940000000  0.5980290000000 1.0
C      1  0.5950530000000  0.4676590000000  0.4668110000000 1.0
C      1  0.5394780000000  0.5547180000000  0.4143500000000 1.0
C      1  0.5050700000000  0.4814270000000  0.5358450000000 1.0
C      1  0.5576390000000  0.4845050000000  0.4563510000000 1.0
C      1  0.5650420000000  0.4597240000000  0.5609580000000 1.0
C      1  0.4669860000000  0.5231750000000  0.5985140000000 1.0
C      1  0.4900800000000  0.5251700000000  0.5805150000000 1.0
C      1  0.4021010000000  0.5488100000000  0.5153740000000 1.0
C      1  0.4699840000000  0.5466200000000  0.4136510000000 1.0
C      1  0.5325330000000  0.5771610000000  0.4322310000000 1.0
C      1  0.4038140000000  0.5027750000000  0.5432000000000 1.0
C      1  0.4943890000000  0.4617110000000  0.5530910000000 1.0
C      1  0.4976990000000  0.5503110000000  0.4522310000000 1.0
C      1  0.5969630000000  0.4455860000000  0.5119530000000 1.0
C      1  0.4978140000000  0.4143370000000  0.4453620000000 1.0
C      1  0.4516980000000  0.4699830000000  0.5234780000000 1.0
C      1  0.4970250000000  0.5049180000000  0.4335220000000 1.0
C      1  0.3959500000000  0.4997050000000  0.5153350000000 1.0
C      1  0.4771000000000  0.4793860000000  0.5668700000000 1.0
C      1  0.4587400000000  0.5085860000000  0.4639060000000 1.0
C      1  0.5779540000000  0.4891630000000  0.5259250000000 1.0
C      1  0.5559600000000  0.4873790000000  0.4057960000000 1.0
C      1  0.6019600000000  0.5175890000000  0.4607960000000 1.0
C      1  0.5177100000000  0.5353860000000  0.4051120000000 1.0
C      1  0.4152090000000  0.5514620000000  0.5413700000000 1.0
C      1  0.4255000000000  0.5279250000000  0.4526540000000 1.0
C      1  0.3863880000000  0.5279100000000  0.4752580000000 1.0
C      1  0.4247620000000  0.4733040000000  0.4413210000000 1.0
C      1  0.4583570000000  0.4450010000000  0.5108300000000 1.0
C      1  0.4082830000000  0.5283710000000  0.5579490000000 1.0
C      1  0.4774550000000  0.4902250000000  0.5236810000000 1.0
C      1  0.5494400000000  0.5153140000000  0.4937260000000 1.0
C      1  0.4470990000000  0.5826110000000  0.4625550000000 1.0
C      1  0.5470650000000  0.5411530000000  0.5339960000000 1.0
C      1  0.4551980000000  0.5654790000000  0.5686870000000 1.0
C      1  0.4765080000000  0.5727630000000  0.4179430000000 1.0
C      1  0.4505820000000  0.4044670000000  0.5426710000000 1.0
C      1  0.5472800000000  0.5800070000000  0.4565180000000 1.0
C      1  0.4495920000000  0.4566990000000  0.4410090000000 1.0
C      1  0.4068190000000  0.4783440000000  0.4945870000000 1.0
C      1  0.5825430000000  0.4998400000000  0.4121450000000 1.0
C      1  0.4174320000000  0.4316960000000  0.4835980000000 1.0
C      1  0.4283870000000  0.4212660000000  0.5391040000000 1.0
C      1  0.5450470000000  0.4491270000000  0.5765340000000 1.0
C      1  0.4893280000000  0.4126540000000  0.5246350000000 1.0
C      1  0.4472880000000  0.5276630000000  0.4070550000000 1.0
C      1  0.4263920000000  0.4935270000000  0.4199490000000 1.0
C      1  0.4673360000000  0.3957910000000  0.5192230000000 1.0
C      1  0.5741870000000  0.5706100000000  0.5420260000000 1.0
C      1  0.5163900000000  0.4045440000000  0.5307510000000 1.0
C      1  0.5625880000000  0.4135310000000  0.5210400000000 1.0
C      1  0.5640400000000  0.5523750000000  0.4563610000000 1.0
C      1  0.5597400000000  0.5404330000000  0.4276120000000 1.0
C      1  0.4480410000000  0.5435780000000  0.5875870000000 1.0
C      1  0.5437310000000  0.5524840000000  0.6091180000000 1.0
C      1  0.4201600000000  0.4852610000000  0.5601820000000 1.0
C      1  0.4712360000000  0.5588940000000  0.4656000000000 1.0
C      1  0.5847430000000  0.4281090000000  0.5306610000000 1.0
C      1  0.4474940000000  0.4375610000000  0.4846080000000 1.0
C      1  0.4466620000000  0.5406010000000  0.4999540000000 1.0
C      1  0.4952860000000  0.5321540000000  0.4285530000000 1.0
C      1  0.4796340000000  0.5077230000000  0.5597020000000 1.0
C      1  0.4253460000000  0.5263250000000  0.5814630000000 1.0
C      1  0.4051750000000  0.4490100000000  0.5040060000000 1.0
C      1  0.5087470000000  0.5300720000000  0.4989430000000 1.0
C      1  0.5025010000000  0.4539760000000  0.4997860000000 1.0
C      1  0.5043450000000  0.5654230000000  0.5346420000000 1.0
C      1  0.4980990000000  0.6060220000000  0.5172810000000 1.0
C      1  0.5671160000000  0.5580500000000  0.5158780000000 1.0
C      1  0.5352140000000  0.4739190000000  0.5918180000000 1.0
C      1  0.5815400000000  0.4481730000000  0.4871340000000 1.0
C      1  0.4500060000000  0.4982040000000  0.4022550000000 1.0
C      1  0.5242210000000  0.4082700000000  0.4555710000000 1.0
C      1  0.5341530000000  0.5193060000000  0.5184970000000 1.0
C      1  0.5726820000000  0.5069120000000  0.5728220000000 1.0
C      1  0.5944370000000  0.5146870000000  0.5212930000000 1.0
C      1  0.5771350000000  0.4664690000000  0.4437890000000 1.0
C      1  0.5529090000000  0.4629250000000  0.4986050000000 1.0
C      1  0.4699270000000  0.4549880000000  0.4190780000000 1.0
C      1  0.5850460000000  0.5395750000000  0.5027340000000 1.0
C      1  0.4355310000000  0.4911260000000  0.4917020000000 1.0
C      1  0.5007330000000  0.4343860000000  0.5638360000000 1.0
C      1  0.3854820000000  0.5020910000000  0.4606210000000 1.0
C      1  0.5592450000000  0.4470070000000  0.4309470000000 1.0
C      1  0.4758940000000  0.5997100000000  0.4985580000000 1.0
C      1  0.5302530000000  0.4931840000000  0.5348280000000 1.0
C      1  0.4915220000000  0.5524670000000  0.5118690000000 1.0
C      1  0.5025010000000  0.5793120000000  0.4385940000000 1.0
C      1  0.5444340000000  0.5357650000000  0.4733710000000 1.0
C      1  0.5322830000000  0.3942060000000  0.4808320000000 1.0
C      1  0.4039660000000  0.4789440000000  0.4619640000000 1.0
C      1  0.4789070000000  0.4026180000000  0.4640800000000 1.0
C      1  0.5256710000000  0.6016350000000  0.5060070000000 1.0
C      1  0.4099350000000  0.5471030000000  0.4671750000000 1.0
C      1  0.5142820000000  0.5620050000000  0.6009360000000 1.0
C      1  0.4857410000000  0.5736770000000  0.4869680000000 1.0
C      1  0.4936440000000  0.5913830000000  0.5424160000000 1.0
C      1  0.4848270000000  0.4373900000000  0.5147770000000 1.0
C      1  0.4787830000000  0.4692110000000  0.5948490000000 1.0
C      1  0.5867580000000  0.5397180000000  0.4741850000000 1.0
C      1  0.5554890000000  0.4814930000000  0.5414310000000 1.0
C      1  0.5555630000000  0.5121270000000  0.4211210000000 1.0
C      1  0.4606890000000  0.4215520000000  0.5650120000000 1.0
C      1  0.5125430000000  0.4589170000000  0.4140800000000 1.0
C      1  0.5294270000000  0.4306840000000  0.5603550000000 1.0
C      1  0.6131970000000  0.4958090000000  0.5050930000000 1.0
C      1  0.4244630000000  0.5225520000000  0.4244800000000 1.0
C      1  0.5669720000000  0.4252800000000  0.4747270000000 1.0
C      1  0.4650990000000  0.4457440000000  0.4629810000000 1.0
C      1  0.4320550000000  0.5062920000000  0.4670200000000 1.0
C      1  0.4207890000000  0.5770940000000  0.4557760000000 1.0
C      1  0.4323240000000  0.4976170000000  0.5845930000000 1.0
C      1  0.4869350000000  0.4857710000000  0.4970180000000 1.0
C      1  0.4947830000000  0.4473760000000  0.4700610000000 1.0
END
