TITL C-4164239-2837-185 80.4486501580632 125000 -24402.9308709651 0 0 166 (C1) n - 1
REM
REM in /home/nfs/bkarasulu/CARBON/AIRSS/Generating-Clusters/ReaxFF-fromJPCA2015/Units_Real/with-SteepDescent/Only-C1/SD-CG/Try1-3A/FIRE-CG
REM
REM
REM
REM
REM
REM ./C.cell (11c1c37f851c82e70ff6c80c92926a4b)
REM
REM compiler GCC version 9.2.1 20190827 (Red Hat 9.2.1-1)
REM options -cpp -mtune=generic -march=x86-64 -g -O0 -fpre-include=/usr/include/finclude/math-vector-fortran.h
REM seed 39240694 -1684635283 1707332051 1419711329 -266042163 2101543113 -884286960 -1286812119 -1905727660 1290320995 -1087274093 1226282336 1728563493 676469140 1722640752 1251167337 -1921038898 -466526355 1926782743 921632787 -1016341789 -2020892375 -614087328 -555744799 -1603452866 -747909369 1491996890 97357234 1558894735 -1519337855 -182086236 467529586 -1108753745
REM
CELL 1.54180   50.00000   50.00000   50.00000   90.00000   90.00000   90.00000
LATT -1
SFAC C  
C      1  0.5756280000000  0.5017250000000  0.5816280000000 1.0
C      1  0.5299440000000  0.4789100000000  0.5920440000000 1.0
C      1  0.4964370000000  0.6120970000000  0.4987530000000 1.0
C      1  0.5135470000000  0.4575350000000  0.6049740000000 1.0
C      1  0.5006070000000  0.5396870000000  0.5209550000000 1.0
C      1  0.3997250000000  0.5317670000000  0.5304380000000 1.0
C      1  0.4905450000000  0.5130830000000  0.5024510000000 1.0
C      1  0.4328510000000  0.4490870000000  0.4366970000000 1.0
C      1  0.4868680000000  0.5513660000000  0.6019610000000 1.0
C      1  0.5292230000000  0.4461690000000  0.5526810000000 1.0
C      1  0.4282590000000  0.5674650000000  0.5334600000000 1.0
C      1  0.5358010000000  0.5566220000000  0.5778150000000 1.0
C      1  0.5878940000000  0.5077680000000  0.5556410000000 1.0
C      1  0.4713310000000  0.5794850000000  0.5347020000000 1.0
C      1  0.5484080000000  0.4316110000000  0.5359950000000 1.0
C      1  0.4328900000000  0.4478070000000  0.5290810000000 1.0
C      1  0.5556030000000  0.5778660000000  0.5190300000000 1.0
C      1  0.5173350000000  0.5318930000000  0.5419690000000 1.0
C      1  0.5347030000000  0.4388940000000  0.5954720000000 1.0
C      1  0.5533320000000  0.4031220000000  0.4853140000000 1.0
C      1  0.4234510000000  0.5526200000000  0.4466160000000 1.0
C      1  0.4745780000000  0.4729280000000  0.4607340000000 1.0
C      1  0.4276880000000  0.4950020000000  0.5594470000000 1.0
C      1  0.6014930000000  0.4726530000000  0.4981870000000 1.0
C      1  0.4525520000000  0.5183640000000  0.5968530000000 1.0
C      1  0.5002820000000  0.4771350000000  0.4140940000000 1.0
C      1  0.5602570000000  0.4896770000000  0.5033420000000 1.0
C      1  0.4731990000000  0.5377480000000  0.4660620000000 1.0
C      1  0.5751800000000  0.5853270000000  0.4448960000000 1.0
C      1  0.5775020000000  0.5702080000000  0.4699590000000 1.0
C      1  0.5903230000000  0.4992520000000  0.4998770000000 1.0
C      1  0.5049730000000  0.4567930000000  0.5407950000000 1.0
C      1  0.5287330000000  0.4356090000000  0.4271480000000 1.0
C      1  0.5484210000000  0.5322080000000  0.5697030000000 1.0
C      1  0.4861070000000  0.5843970000000  0.4553360000000 1.0
C      1  0.4811030000000  0.4414760000000  0.5220880000000 1.0
C      1  0.4459480000000  0.5679360000000  0.4374910000000 1.0
C      1  0.4146860000000  0.4806630000000  0.5467970000000 1.0
C      1  0.5365750000000  0.5757820000000  0.4345470000000 1.0
C      1  0.3930550000000  0.4982310000000  0.4893900000000 1.0
C      1  0.4866930000000  0.4882300000000  0.3888120000000 1.0
C      1  0.5922120000000  0.5229430000000  0.4488720000000 1.0
C      1  0.5598310000000  0.4928320000000  0.4492310000000 1.0
C      1  0.5279200000000  0.4230040000000  0.4538480000000 1.0
C      1  0.5675830000000  0.4456930000000  0.5185150000000 1.0
C      1  0.5483920000000  0.5953060000000  0.4524780000000 1.0
C      1  0.4602710000000  0.5023410000000  0.3936440000000 1.0
C      1  0.4443590000000  0.5796120000000  0.5168440000000 1.0
C      1  0.5294040000000  0.4618440000000  0.4842920000000 1.0
C      1  0.4871870000000  0.4886040000000  0.4371150000000 1.0
C      1  0.5600700000000  0.4515870000000  0.5873810000000 1.0
C      1  0.4573190000000  0.5829940000000  0.4612560000000 1.0
C      1  0.5249590000000  0.4901810000000  0.4758980000000 1.0
C      1  0.3981500000000  0.4608070000000  0.4707440000000 1.0
C      1  0.5050460000000  0.5977440000000  0.4744780000000 1.0
C      1  0.5417680000000  0.4936310000000  0.5287210000000 1.0
C      1  0.4740250000000  0.5817230000000  0.5648760000000 1.0
C      1  0.5590020000000  0.5366710000000  0.5141350000000 1.0
C      1  0.5440230000000  0.5080190000000  0.4284380000000 1.0
C      1  0.4442510000000  0.5442640000000  0.5851800000000 1.0
C      1  0.5287160000000  0.5039880000000  0.6075150000000 1.0
C      1  0.4742290000000  0.5506380000000  0.4901060000000 1.0
C      1  0.4635250000000  0.5305920000000  0.5461690000000 1.0
C      1  0.5506850000000  0.5035530000000  0.4780960000000 1.0
C      1  0.5550280000000  0.4477550000000  0.4281680000000 1.0
C      1  0.4145060000000  0.4978440000000  0.4394820000000 1.0
C      1  0.4768930000000  0.5055480000000  0.5509490000000 1.0
C      1  0.5552050000000  0.5317060000000  0.4847480000000 1.0
C      1  0.4282620000000  0.4200040000000  0.4717770000000 1.0
C      1  0.5909540000000  0.4624730000000  0.5246940000000 1.0
C      1  0.4620080000000  0.5548080000000  0.4165420000000 1.0
C      1  0.4717890000000  0.3944420000000  0.4934230000000 1.0
C      1  0.5554400000000  0.4196390000000  0.4624190000000 1.0
C      1  0.5548110000000  0.4606390000000  0.4972710000000 1.0
C      1  0.4080460000000  0.4637200000000  0.5257850000000 1.0
C      1  0.4567230000000  0.4031440000000  0.5174860000000 1.0
C      1  0.4704260000000  0.4185740000000  0.5377980000000 1.0
C      1  0.5248570000000  0.5516050000000  0.4491000000000 1.0
C      1  0.4785950000000  0.4395580000000  0.5769200000000 1.0
C      1  0.5346410000000  0.5901220000000  0.4769890000000 1.0
C      1  0.4208480000000  0.5645880000000  0.4739820000000 1.0
C      1  0.5437770000000  0.5218840000000  0.5375680000000 1.0
C      1  0.4456520000000  0.4780960000000  0.4017610000000 1.0
C      1  0.4092230000000  0.5587370000000  0.5236360000000 1.0
C      1  0.4599280000000  0.4359660000000  0.4376690000000 1.0
C      1  0.5891210000000  0.5250570000000  0.5123630000000 1.0
C      1  0.4419220000000  0.5806770000000  0.4866470000000 1.0
C      1  0.4951250000000  0.5575090000000  0.4492310000000 1.0
C      1  0.4451750000000  0.4960860000000  0.4815440000000 1.0
C      1  0.4646830000000  0.5643570000000  0.5867900000000 1.0
C      1  0.5013790000000  0.5623670000000  0.5043330000000 1.0
C      1  0.5215190000000  0.5670620000000  0.5531380000000 1.0
C      1  0.5068820000000  0.5361940000000  0.4121040000000 1.0
C      1  0.4765100000000  0.4390980000000  0.4142230000000 1.0
C      1  0.5908280000000  0.4925720000000  0.4522450000000 1.0
C      1  0.5780230000000  0.4717100000000  0.5766430000000 1.0
C      1  0.5288330000000  0.5389110000000  0.4768970000000 1.0
C      1  0.4221220000000  0.5397610000000  0.4901370000000 1.0
C      1  0.5104840000000  0.5134380000000  0.4805990000000 1.0
C      1  0.5548470000000  0.4652990000000  0.4469430000000 1.0
C      1  0.4969620000000  0.4843710000000  0.5053120000000 1.0
C      1  0.5788370000000  0.5417190000000  0.4682550000000 1.0
C      1  0.5833370000000  0.5216950000000  0.4212340000000 1.0
C      1  0.4529610000000  0.4421820000000  0.5855310000000 1.0
C      1  0.4608630000000  0.4221010000000  0.5652090000000 1.0
C      1  0.4884870000000  0.4369530000000  0.4870120000000 1.0
C      1  0.5063010000000  0.5067240000000  0.5544850000000 1.0
C      1  0.5280020000000  0.5566540000000  0.4986320000000 1.0
C      1  0.5728100000000  0.4453620000000  0.4534870000000 1.0
C      1  0.4804750000000  0.4643870000000  0.3716660000000 1.0
C      1  0.5359020000000  0.5348680000000  0.3961380000000 1.0
C      1  0.4592540000000  0.5102170000000  0.5024600000000 1.0
C      1  0.5708860000000  0.5562170000000  0.5331460000000 1.0
C      1  0.5929950000000  0.4700300000000  0.4700650000000 1.0
C      1  0.4804290000000  0.5233320000000  0.6065770000000 1.0
C      1  0.4493600000000  0.4676140000000  0.4755470000000 1.0
C      1  0.5580540000000  0.5822720000000  0.4904050000000 1.0
C      1  0.5238980000000  0.4852200000000  0.5638070000000 1.0
C      1  0.4129310000000  0.4396110000000  0.4555580000000 1.0
C      1  0.4716280000000  0.4245330000000  0.4623990000000 1.0
C      1  0.5276060000000  0.3962760000000  0.5022970000000 1.0
C      1  0.5288890000000  0.5827700000000  0.5293910000000 1.0
C      1  0.4440910000000  0.4924460000000  0.5875210000000 1.0
C      1  0.4377700000000  0.4249180000000  0.5118050000000 1.0
C      1  0.4395320000000  0.4416150000000  0.4878010000000 1.0
C      1  0.5582800000000  0.5157590000000  0.4046930000000 1.0
C      1  0.4152580000000  0.5211260000000  0.5526650000000 1.0
C      1  0.5895120000000  0.5334460000000  0.5396930000000 1.0
C      1  0.4592680000000  0.4603120000000  0.5287080000000 1.0
C      1  0.4844480000000  0.5152410000000  0.4254660000000 1.0
C      1  0.4887420000000  0.4662540000000  0.4853010000000 1.0
C      1  0.3992420000000  0.5245040000000  0.5021770000000 1.0
C      1  0.4285400000000  0.5233570000000  0.4444420000000 1.0
C      1  0.6013500000000  0.4100130000000  0.5043910000000 1.0
C      1  0.4863520000000  0.4630120000000  0.5628600000000 1.0
C      1  0.3965530000000  0.4885470000000  0.4608690000000 1.0
C      1  0.4783330000000  0.5502200000000  0.5347450000000 1.0
C      1  0.4615800000000  0.4539930000000  0.3931100000000 1.0
C      1  0.4606920000000  0.5253140000000  0.4123300000000 1.0
C      1  0.5792100000000  0.4069400000000  0.4945380000000 1.0
C      1  0.5517610000000  0.5159080000000  0.5929640000000 1.0
C      1  0.5019370000000  0.5813310000000  0.5725360000000 1.0
C      1  0.5268670000000  0.4006900000000  0.5557930000000 1.0
C      1  0.4500600000000  0.5377010000000  0.5018090000000 1.0
C      1  0.3963580000000  0.4709200000000  0.4991230000000 1.0
C      1  0.4900780000000  0.5603030000000  0.4210640000000 1.0
C      1  0.5615250000000  0.5765880000000  0.4187010000000 1.0
C      1  0.5528100000000  0.5562590000000  0.4014000000000 1.0
C      1  0.5170960000000  0.4784070000000  0.5245920000000 1.0
C      1  0.5239340000000  0.5273380000000  0.4341800000000 1.0
C      1  0.4540260000000  0.4041520000000  0.4707170000000 1.0
C      1  0.5116490000000  0.5642810000000  0.5941510000000 1.0
C      1  0.5230620000000  0.4237900000000  0.5712410000000 1.0
C      1  0.5046690000000  0.4479740000000  0.4157920000000 1.0
C      1  0.4591390000000  0.4693030000000  0.5954720000000 1.0
C      1  0.4995120000000  0.5016380000000  0.6074120000000 1.0
C      1  0.4283410000000  0.4757710000000  0.4250490000000 1.0
C      1  0.5373160000000  0.4041270000000  0.5303370000000 1.0
C      1  0.5007490000000  0.5910530000000  0.5207720000000 1.0
C      1  0.4520470000000  0.5175780000000  0.4607770000000 1.0
C      1  0.5900820000000  0.4786490000000  0.5491160000000 1.0
C      1  0.5157500000000  0.4373990000000  0.4764550000000 1.0
C      1  0.4638770000000  0.4788010000000  0.5515370000000 1.0
C      1  0.4358650000000  0.5431580000000  0.5562240000000 1.0
C      1  0.4894150000000  0.4740150000000  0.6015080000000 1.0
C      1  0.5007320000000  0.3950220000000  0.4964830000000 1.0
END
