TITL C-4164237-1827-1 -0.239397293557352 125000 -4061.24530018493 0 0 29 (C1) n - 1
REM
REM in /home/nfs/bkarasulu/CARBON/AIRSS/Generating-Clusters/ReaxFF-fromJPCA2015/Units_Real/with-SteepDescent/Only-C1/SD-CG/Try1-3A/FIRE-CG
REM
REM
REM
REM
REM
REM ./C.cell (11c1c37f851c82e70ff6c80c92926a4b)
REM
REM compiler GCC version 9.2.1 20190827 (Red Hat 9.2.1-1)
REM options -cpp -mtune=generic -march=x86-64 -g -O0 -fpre-include=/usr/include/finclude/math-vector-fortran.h
REM seed -528343296 1916882679 1866608975 -301930704 612093932 985795965 -1908498915 -2112271189 954463545 94542749 -446789414 -831319862 944610232 -1162733410 896865910 -255461024 430171258 -1803177567 -1505801449 2093015835 -1835799778 -1327025439 2138463792 -1056462404 2040735856 571035509 -1486681000 1332012581 -296649265 723283373 1255995636 -1478455660 -863995340
REM
CELL 1.54180   50.00000   50.00000   50.00000   90.00000   90.00000   90.00000
LATT -1
SFAC C  
C      1  0.5308100000000  0.5449190000000  0.5234780000000 1.0
C      1  0.4447760000000  0.5018210000000  0.4866410000000 1.0
C      1  0.5669560000000  0.5119110000000  0.4797570000000 1.0
C      1  0.5019810000000  0.5375450000000  0.4805590000000 1.0
C      1  0.5024890000000  0.4830230000000  0.5517750000000 1.0
C      1  0.5459880000000  0.4882310000000  0.4659220000000 1.0
C      1  0.4562090000000  0.4774580000000  0.5301960000000 1.0
C      1  0.5045400000000  0.5203620000000  0.4573120000000 1.0
C      1  0.4867340000000  0.4724950000000  0.4677630000000 1.0
C      1  0.4651110000000  0.5277280000000  0.5453750000000 1.0
C      1  0.5496230000000  0.5304220000000  0.4886390000000 1.0
C      1  0.4968900000000  0.4938610000000  0.4500050000000 1.0
C      1  0.5140210000000  0.4616090000000  0.5357180000000 1.0
C      1  0.4356550000000  0.4894650000000  0.5136000000000 1.0
C      1  0.4773440000000  0.5418110000000  0.4956990000000 1.0
C      1  0.5014230000000  0.5061250000000  0.5388760000000 1.0
C      1  0.5330230000000  0.4677280000000  0.5157190000000 1.0
C      1  0.5314970000000  0.4686750000000  0.4891170000000 1.0
C      1  0.5238000000000  0.5012280000000  0.4489020000000 1.0
C      1  0.4656340000000  0.4875600000000  0.4758330000000 1.0
C      1  0.5069070000000  0.5346350000000  0.5385330000000 1.0
C      1  0.4519380000000  0.5317300000000  0.4859420000000 1.0
C      1  0.5552840000000  0.4758460000000  0.4420220000000 1.0
C      1  0.4960230000000  0.4493520000000  0.5145210000000 1.0
C      1  0.5275500000000  0.5460310000000  0.4931330000000 1.0
C      1  0.4798970000000  0.5433690000000  0.5273960000000 1.0
C      1  0.5048030000000  0.4577380000000  0.4873220000000 1.0
C      1  0.4668740000000  0.4510440000000  0.5220510000000 1.0
C      1  0.4762200000000  0.4962770000000  0.5481940000000 1.0
END
