TITL C-4164244-2836-202 -0.0943357726810909 125000 -2663.11292741636 0 0 20 (C1) n - 1
REM
REM in /home/nfs/bkarasulu/CARBON/AIRSS/Generating-Clusters/ReaxFF-fromJPCA2015/Units_Real/with-SteepDescent/Only-C1/SD-CG/Try1-3A/FIRE-CG
REM
REM
REM
REM
REM
REM ./C.cell (11c1c37f851c82e70ff6c80c92926a4b)
REM
REM compiler GCC version 9.2.1 20190827 (Red Hat 9.2.1-1)
REM options -cpp -mtune=generic -march=x86-64 -g -O0 -fpre-include=/usr/include/finclude/math-vector-fortran.h
REM seed 219538973 -239173459 659582182 1633016128 -1363646935 -844569303 -227570554 472946610 1176000973 84360 -1810138606 -1638131467 -548188866 1654637796 1132207945 -781438197 -2094231250 1278727316 -83112838 -135326096 553663494 1712878280 -359681450 -1372327152 -253975958 1080163889 -795276880 1968960381 -485723234 -804439016 1712787713 1211226940 -1098382352
REM
CELL 1.54180   50.00000   50.00000   50.00000   90.00000   90.00000   90.00000
LATT -1
SFAC C  
C      1  0.5094270000000  0.4653280000000  0.5025560000000 1.0
C      1  0.4820010000000  0.5366220000000  0.4716710000000 1.0
C      1  0.5343070000000  0.4693430000000  0.5022040000000 1.0
C      1  0.5426560000000  0.5136170000000  0.5090370000000 1.0
C      1  0.5173380000000  0.4948420000000  0.4657050000000 1.0
C      1  0.4503920000000  0.5036270000000  0.5309310000000 1.0
C      1  0.4565310000000  0.4896970000000  0.4608420000000 1.0
C      1  0.4822260000000  0.4736780000000  0.4986510000000 1.0
C      1  0.5548010000000  0.4880690000000  0.4980060000000 1.0
C      1  0.5644420000000  0.5216310000000  0.5184630000000 1.0
C      1  0.4957340000000  0.5259220000000  0.5315150000000 1.0
C      1  0.4754090000000  0.5128690000000  0.5476520000000 1.0
C      1  0.5466400000000  0.4890240000000  0.4678370000000 1.0
C      1  0.5101330000000  0.5232160000000  0.5053290000000 1.0
C      1  0.4674050000000  0.5171150000000  0.4641480000000 1.0
C      1  0.5024070000000  0.5490650000000  0.4853650000000 1.0
C      1  0.4973640000000  0.5012950000000  0.4864260000000 1.0
C      1  0.4643020000000  0.4646260000000  0.4745660000000 1.0
C      1  0.4809650000000  0.4822840000000  0.5522150000000 1.0
C      1  0.4655210000000  0.4781300000000  0.5268810000000 1.0
END
