TITL C-4164242-3624-143 -5.54665816136932 125000 -9174.39569360643 0 0 63 (C1) n - 1
REM
REM in /home/nfs/bkarasulu/CARBON/AIRSS/Generating-Clusters/ReaxFF-fromJPCA2015/Units_Real/with-SteepDescent/Only-C1/SD-CG/Try1-3A/FIRE-CG
REM
REM
REM
REM
REM
REM ./C.cell (11c1c37f851c82e70ff6c80c92926a4b)
REM
REM compiler GCC version 9.2.1 20190827 (Red Hat 9.2.1-1)
REM options -cpp -mtune=generic -march=x86-64 -g -O0 -fpre-include=/usr/include/finclude/math-vector-fortran.h
REM seed 12158465 -830876461 -1067224072 1895234185 -1718853682 1276029753 1288430859 -1234297836 -587932083 -472728679 -221243803 963730391 -1731401706 1843040611 814348056 1873383085 118190932 -552050018 -801865900 -158083457 -1636333699 -1161426787 -606632041 1487764725 1190006703 676119233 -1432089162 900197898 -1663835257 -1286273021 -801540490 1114368055 -5598428
REM
CELL 1.54180   50.00000   50.00000   50.00000   90.00000   90.00000   90.00000
LATT -1
SFAC C  
C      1  0.4307890000000  0.4881460000000  0.5385310000000 1.0
C      1  0.5267550000000  0.5610880000000  0.5289560000000 1.0
C      1  0.4788600000000  0.4971220000000  0.4743310000000 1.0
C      1  0.5026650000000  0.4820730000000  0.5229930000000 1.0
C      1  0.5196250000000  0.5152580000000  0.4883030000000 1.0
C      1  0.5395920000000  0.5046010000000  0.4410320000000 1.0
C      1  0.5162030000000  0.5182700000000  0.5414410000000 1.0
C      1  0.4611380000000  0.4810600000000  0.4566020000000 1.0
C      1  0.4842330000000  0.5631870000000  0.4476250000000 1.0
C      1  0.4678690000000  0.4483520000000  0.5114150000000 1.0
C      1  0.5133850000000  0.4738030000000  0.4530290000000 1.0
C      1  0.4564970000000  0.4826620000000  0.5500960000000 1.0
C      1  0.4790060000000  0.5178280000000  0.4939440000000 1.0
C      1  0.5051940000000  0.4325660000000  0.5370300000000 1.0
C      1  0.4526050000000  0.5248520000000  0.5294410000000 1.0
C      1  0.5416070000000  0.4765310000000  0.4479930000000 1.0
C      1  0.5213700000000  0.5038880000000  0.5159130000000 1.0
C      1  0.5372250000000  0.4710930000000  0.5574090000000 1.0
C      1  0.5233170000000  0.5415760000000  0.4765570000000 1.0
C      1  0.4742820000000  0.4771140000000  0.5240300000000 1.0
C      1  0.5734720000000  0.5132120000000  0.4771660000000 1.0
C      1  0.4222220000000  0.4646790000000  0.4985670000000 1.0
C      1  0.4686680000000  0.5336250000000  0.5515760000000 1.0
C      1  0.4640300000000  0.4285240000000  0.4547290000000 1.0
C      1  0.4849250000000  0.5141050000000  0.4380370000000 1.0
C      1  0.5341530000000  0.5398100000000  0.5485940000000 1.0
C      1  0.4981300000000  0.4787330000000  0.5720470000000 1.0
C      1  0.4427120000000  0.4414490000000  0.5005460000000 1.0
C      1  0.5103490000000  0.5453380000000  0.4500630000000 1.0
C      1  0.5542170000000  0.4623230000000  0.4710350000000 1.0
C      1  0.4219180000000  0.4909950000000  0.5092350000000 1.0
C      1  0.5577820000000  0.5022710000000  0.4985880000000 1.0
C      1  0.4376320000000  0.5149370000000  0.4633400000000 1.0
C      1  0.5511490000000  0.5555550000000  0.5136410000000 1.0
C      1  0.5124640000000  0.5201070000000  0.4358680000000 1.0
C      1  0.5489130000000  0.5539530000000  0.4844190000000 1.0
C      1  0.5053190000000  0.4963180000000  0.4715830000000 1.0
C      1  0.4641020000000  0.5643790000000  0.4669260000000 1.0
C      1  0.5691380000000  0.5398680000000  0.4691010000000 1.0
C      1  0.5672790000000  0.4764610000000  0.4918840000000 1.0
C      1  0.4736980000000  0.4542020000000  0.4494120000000 1.0
C      1  0.4570770000000  0.5063830000000  0.4416170000000 1.0
C      1  0.5115770000000  0.4399270000000  0.4869900000000 1.0
C      1  0.4753950000000  0.4976170000000  0.5674070000000 1.0
C      1  0.5390370000000  0.4478220000000  0.4916010000000 1.0
C      1  0.4557540000000  0.5584310000000  0.4930380000000 1.0
C      1  0.5632440000000  0.5181090000000  0.4506810000000 1.0
C      1  0.5632490000000  0.5055140000000  0.5272100000000 1.0
C      1  0.5564080000000  0.4600670000000  0.5125760000000 1.0
C      1  0.5556490000000  0.4781860000000  0.5359470000000 1.0
C      1  0.5252630000000  0.4855120000000  0.5817730000000 1.0
C      1  0.4978470000000  0.5610560000000  0.5214120000000 1.0
C      1  0.4390970000000  0.5380900000000  0.5064820000000 1.0
C      1  0.4695920000000  0.5044910000000  0.5160140000000 1.0
C      1  0.4833120000000  0.5476630000000  0.4983050000000 1.0
C      1  0.5099560000000  0.4635690000000  0.5452680000000 1.0
C      1  0.4521240000000  0.4298080000000  0.4763200000000 1.0
C      1  0.4280690000000  0.5163440000000  0.4907220000000 1.0
C      1  0.4917130000000  0.5206220000000  0.5587290000000 1.0
C      1  0.4933430000000  0.4328030000000  0.5108340000000 1.0
C      1  0.4782080000000  0.5542130000000  0.5395620000000 1.0
C      1  0.5587670000000  0.5337630000000  0.5334130000000 1.0
C      1  0.5008270000000  0.4480960000000  0.4610690000000 1.0
END
