TITL C-4164245-3996-147 -6.79538753666293 125000 -10227.0671130751 0 0 70 (C1) n - 1
REM
REM in /home/nfs/bkarasulu/CARBON/AIRSS/Generating-Clusters/ReaxFF-fromJPCA2015/Units_Real/with-SteepDescent/Only-C1/SD-CG/Try1-3A/FIRE-CG
REM
REM
REM
REM
REM
REM ./C.cell (11c1c37f851c82e70ff6c80c92926a4b)
REM
REM compiler GCC version 9.2.1 20190827 (Red Hat 9.2.1-1)
REM options -cpp -mtune=generic -march=x86-64 -g -O0 -fpre-include=/usr/include/finclude/math-vector-fortran.h
REM seed 1369934824 -641342799 -1469711236 856363589 308557626 -1758763735 -90832047 -2110081133 1616156719 -801655459 -1109811983 -2123820929 -756763480 1518041441 -703467697 -710665631 180877531 1491759183 1699319642 -667057574 518538783 1758394553 -1845409107 -30408676 2013165775 -837301180 -1040274950 1175516731 890189301 823722692 944070802 -1313844203 164584318
REM
CELL 1.54180   50.00000   50.00000   50.00000   90.00000   90.00000   90.00000
LATT -1
SFAC C  
C      1  0.4755780000000  0.5684500000000  0.4867020000000 1.0
C      1  0.5215260000000  0.5047930000000  0.4899820000000 1.0
C      1  0.4573560000000  0.5478270000000  0.5306360000000 1.0
C      1  0.4710350000000  0.4253030000000  0.4826080000000 1.0
C      1  0.5135480000000  0.4182050000000  0.5039470000000 1.0
C      1  0.5396930000000  0.5549530000000  0.5302910000000 1.0
C      1  0.4526280000000  0.4881450000000  0.4441690000000 1.0
C      1  0.5692750000000  0.4732660000000  0.4961900000000 1.0
C      1  0.4658740000000  0.4721420000000  0.5256670000000 1.0
C      1  0.4467170000000  0.4583950000000  0.5078640000000 1.0
C      1  0.4394860000000  0.4650030000000  0.4585710000000 1.0
C      1  0.5031970000000  0.4447800000000  0.5518870000000 1.0
C      1  0.4827920000000  0.5590360000000  0.4599660000000 1.0
C      1  0.5216750000000  0.4691700000000  0.4231060000000 1.0
C      1  0.4978440000000  0.4607730000000  0.4380540000000 1.0
C      1  0.4469050000000  0.5177510000000  0.4456690000000 1.0
C      1  0.5437850000000  0.4914710000000  0.5696210000000 1.0
C      1  0.4274610000000  0.4787720000000  0.4977860000000 1.0
C      1  0.4997580000000  0.5055060000000  0.5093750000000 1.0
C      1  0.5148260000000  0.5689420000000  0.5218570000000 1.0
C      1  0.5002200000000  0.4283620000000  0.4790150000000 1.0
C      1  0.4946830000000  0.5062110000000  0.4309950000000 1.0
C      1  0.5143710000000  0.5244880000000  0.4688790000000 1.0
C      1  0.4979960000000  0.5188530000000  0.5716880000000 1.0
C      1  0.5060420000000  0.4543570000000  0.4655120000000 1.0
C      1  0.5438770000000  0.4233490000000  0.5053180000000 1.0
C      1  0.5474000000000  0.4525500000000  0.5062510000000 1.0
C      1  0.4942530000000  0.5593820000000  0.5682140000000 1.0
C      1  0.5200110000000  0.4756020000000  0.4805910000000 1.0
C      1  0.5570300000000  0.5171240000000  0.5602090000000 1.0
C      1  0.5192410000000  0.4615300000000  0.5054570000000 1.0
C      1  0.4957510000000  0.4239540000000  0.5272100000000 1.0
C      1  0.4670210000000  0.5430150000000  0.4390240000000 1.0
C      1  0.4600580000000  0.4950230000000  0.5417260000000 1.0
C      1  0.5398460000000  0.5406350000000  0.5556530000000 1.0
C      1  0.5440170000000  0.4867810000000  0.4273940000000 1.0
C      1  0.5534110000000  0.5269550000000  0.4513560000000 1.0
C      1  0.5116610000000  0.5560760000000  0.4686960000000 1.0
C      1  0.4975210000000  0.4682420000000  0.5719990000000 1.0
C      1  0.5155400000000  0.5403360000000  0.5721900000000 1.0
C      1  0.4135770000000  0.4720840000000  0.4709270000000 1.0
C      1  0.5435020000000  0.5515010000000  0.4544930000000 1.0
C      1  0.4777540000000  0.4814350000000  0.4326580000000 1.0
C      1  0.4960650000000  0.4648920000000  0.5267940000000 1.0
C      1  0.4464740000000  0.5204480000000  0.5355400000000 1.0
C      1  0.4888690000000  0.5114080000000  0.4654410000000 1.0
C      1  0.5789730000000  0.4978980000000  0.5128420000000 1.0
C      1  0.5717570000000  0.5252270000000  0.5054570000000 1.0
C      1  0.4519050000000  0.4473860000000  0.4809890000000 1.0
C      1  0.5714640000000  0.5036800000000  0.5398090000000 1.0
C      1  0.4317780000000  0.5442800000000  0.4909680000000 1.0
C      1  0.4534370000000  0.5591230000000  0.5037980000000 1.0
C      1  0.4309740000000  0.5214480000000  0.5107280000000 1.0
C      1  0.4830490000000  0.5328640000000  0.4174600000000 1.0
C      1  0.5343660000000  0.4787360000000  0.5440750000000 1.0
C      1  0.4730440000000  0.4255840000000  0.5111020000000 1.0
C      1  0.5189440000000  0.4839650000000  0.5820130000000 1.0
C      1  0.5579350000000  0.5423760000000  0.5124840000000 1.0
C      1  0.4374640000000  0.5322870000000  0.4661120000000 1.0
C      1  0.4975240000000  0.5749700000000  0.5444210000000 1.0
C      1  0.5652650000000  0.4856130000000  0.4733960000000 1.0
C      1  0.5335460000000  0.4498720000000  0.5510800000000 1.0
C      1  0.4467490000000  0.5011170000000  0.4969670000000 1.0
C      1  0.4728520000000  0.5631990000000  0.5498600000000 1.0
C      1  0.5195250000000  0.4963150000000  0.4190050000000 1.0
C      1  0.5039790000000  0.5689310000000  0.4952250000000 1.0
C      1  0.5061790000000  0.4905370000000  0.5343470000000 1.0
C      1  0.5608190000000  0.4988710000000  0.4488240000000 1.0
C      1  0.4767460000000  0.5035900000000  0.4905180000000 1.0
C      1  0.4845760000000  0.4948520000000  0.5613420000000 1.0
END
