TITL C-4164246-3563-161 28.2446664759779 125000 -9523.78999995402 0 0 65 (C1) n - 1
REM
REM in /home/nfs/bkarasulu/CARBON/AIRSS/Generating-Clusters/ReaxFF-fromJPCA2015/Units_Real/with-SteepDescent/Only-C1/SD-CG/Try1-3A/FIRE-CG
REM
REM
REM
REM
REM
REM ./C.cell (11c1c37f851c82e70ff6c80c92926a4b)
REM
REM compiler GCC version 9.2.1 20190827 (Red Hat 9.2.1-1)
REM options -cpp -mtune=generic -march=x86-64 -g -O0 -fpre-include=/usr/include/finclude/math-vector-fortran.h
REM seed 1020634698 -2115003964 -1871640290 645558911 1597471195 706668709 168989852 90546606 -1857622224 -1934677155 806408449 1813611012 623509464 1017015027 -225228700 1949370516 -591684937 -1641558146 -874736283 252798419 -1829425085 1059395836 1989115168 694829493 -2052353389 1250272104 -2075737887 -155483379 -1233145541 -345237432 -658169009 -147526745 1163150918
REM
CELL 1.54180   50.00000   50.00000   50.00000   90.00000   90.00000   90.00000
LATT -1
SFAC C  
C      1  0.4691040000000  0.5489120000000  0.5417410000000 1.0
C      1  0.5614850000000  0.4622520000000  0.4880220000000 1.0
C      1  0.4610390000000  0.5125210000000  0.4393210000000 1.0
C      1  0.5417300000000  0.5294800000000  0.4600400000000 1.0
C      1  0.4756460000000  0.4389610000000  0.5440740000000 1.0
C      1  0.4694650000000  0.5563470000000  0.4703210000000 1.0
C      1  0.5234260000000  0.5167560000000  0.4988380000000 1.0
C      1  0.5127410000000  0.4779380000000  0.4771850000000 1.0
C      1  0.4694940000000  0.5420510000000  0.4467200000000 1.0
C      1  0.5268690000000  0.5693720000000  0.4826850000000 1.0
C      1  0.5049700000000  0.4719420000000  0.5730060000000 1.0
C      1  0.5607260000000  0.4654800000000  0.5175610000000 1.0
C      1  0.4493310000000  0.4954760000000  0.4557320000000 1.0
C      1  0.4751420000000  0.5135740000000  0.5722240000000 1.0
C      1  0.4430400000000  0.4746440000000  0.5394120000000 1.0
C      1  0.5619940000000  0.5077390000000  0.5419840000000 1.0
C      1  0.4563460000000  0.5586320000000  0.5167640000000 1.0
C      1  0.5563470000000  0.5420090000000  0.5096740000000 1.0
C      1  0.5425010000000  0.4461040000000  0.4735860000000 1.0
C      1  0.4673660000000  0.5250900000000  0.4968860000000 1.0
C      1  0.5378920000000  0.4577670000000  0.5345460000000 1.0
C      1  0.5485700000000  0.5489410000000  0.4812620000000 1.0
C      1  0.5733820000000  0.5203520000000  0.5188630000000 1.0
C      1  0.4910670000000  0.4961380000000  0.5787690000000 1.0
C      1  0.4228960000000  0.4888180000000  0.4979720000000 1.0
C      1  0.4755020000000  0.4993480000000  0.4876000000000 1.0
C      1  0.4742890000000  0.5686990000000  0.4948270000000 1.0
C      1  0.5137860000000  0.4745230000000  0.5049180000000 1.0
C      1  0.4577650000000  0.4569510000000  0.5550100000000 1.0
C      1  0.4487090000000  0.4557080000000  0.4909220000000 1.0
C      1  0.5040490000000  0.5747580000000  0.5003800000000 1.0
C      1  0.5208080000000  0.4331750000000  0.4869980000000 1.0
C      1  0.4368710000000  0.4774750000000  0.4732640000000 1.0
C      1  0.4737750000000  0.4407190000000  0.4935350000000 1.0
C      1  0.5380980000000  0.5515880000000  0.5312030000000 1.0
C      1  0.4871250000000  0.4387040000000  0.5189020000000 1.0
C      1  0.4983760000000  0.5517170000000  0.5456610000000 1.0
C      1  0.4831320000000  0.4530170000000  0.5668980000000 1.0
C      1  0.4980460000000  0.4464610000000  0.4473150000000 1.0
C      1  0.5252960000000  0.4622300000000  0.4534910000000 1.0
C      1  0.4948870000000  0.4341330000000  0.4739140000000 1.0
C      1  0.4805140000000  0.4929660000000  0.4263180000000 1.0
C      1  0.5158160000000  0.4444710000000  0.5152020000000 1.0
C      1  0.5308020000000  0.5049550000000  0.5463780000000 1.0
C      1  0.5755120000000  0.4898640000000  0.5249860000000 1.0
C      1  0.4407970000000  0.5372530000000  0.5033490000000 1.0
C      1  0.5136980000000  0.4993700000000  0.5198130000000 1.0
C      1  0.5279880000000  0.4753620000000  0.5551880000000 1.0
C      1  0.4479850000000  0.5033810000000  0.5343470000000 1.0
C      1  0.4977400000000  0.5005290000000  0.4700850000000 1.0
C      1  0.5224760000000  0.5349150000000  0.5495300000000 1.0
C      1  0.5104350000000  0.5009730000000  0.4229240000000 1.0
C      1  0.4579480000000  0.5260890000000  0.5554320000000 1.0
C      1  0.5140610000000  0.5691220000000  0.5274980000000 1.0
C      1  0.5522680000000  0.5035320000000  0.4512050000000 1.0
C      1  0.5442440000000  0.5013090000000  0.4923190000000 1.0
C      1  0.5320590000000  0.4878370000000  0.4372710000000 1.0
C      1  0.4986560000000  0.5434160000000  0.4442300000000 1.0
C      1  0.5130820000000  0.5260900000000  0.4681660000000 1.0
C      1  0.4278160000000  0.5133060000000  0.5125160000000 1.0
C      1  0.4710790000000  0.5040710000000  0.5151320000000 1.0
C      1  0.5104160000000  0.5312030000000  0.4199030000000 1.0
C      1  0.4329900000000  0.4658080000000  0.5136170000000 1.0
C      1  0.5629920000000  0.4897790000000  0.4763300000000 1.0
C      1  0.4855480000000  0.4678950000000  0.4362330000000 1.0
END
