TITL C-4164244-2836-360 15.6789479544481 125000 -14248.0223482251 0 0 97 (C1) n - 1
REM
REM in /home/nfs/bkarasulu/CARBON/AIRSS/Generating-Clusters/ReaxFF-fromJPCA2015/Units_Real/with-SteepDescent/Only-C1/SD-CG/Try1-3A/FIRE-CG
REM
REM
REM
REM
REM
REM ./C.cell (11c1c37f851c82e70ff6c80c92926a4b)
REM
REM compiler GCC version 9.2.1 20190827 (Red Hat 9.2.1-1)
REM options -cpp -mtune=generic -march=x86-64 -g -O0 -fpre-include=/usr/include/finclude/math-vector-fortran.h
REM seed -1720474955 -580237704 -734049178 -1638537254 -58943615 928266106 538598472 -110518360 -1837599779 11845900 1590275591 -310907860 837660767 1769571856 -81339303 76840503 2127610383 -1682262745 1197454637 -594374588 1400554887 929857474 1527449926 -400680215 -1550111947 -1837412995 888866110 -33449109 1344958765 -777658588 -235969704 -1508387145 299431206
REM
CELL 1.54180   50.00000   50.00000   50.00000   90.00000   90.00000   90.00000
LATT -1
SFAC C  
C      1  0.5118290000000  0.5593690000000  0.4424900000000 1.0
C      1  0.5020370000000  0.4269800000000  0.4657820000000 1.0
C      1  0.4697260000000  0.5008190000000  0.4967120000000 1.0
C      1  0.5201210000000  0.5357610000000  0.4753800000000 1.0
C      1  0.5197930000000  0.4791590000000  0.5194440000000 1.0
C      1  0.4261860000000  0.4828530000000  0.4870000000000 1.0
C      1  0.5696150000000  0.4857950000000  0.5453050000000 1.0
C      1  0.5204250000000  0.4873520000000  0.5485350000000 1.0
C      1  0.5556200000000  0.4632260000000  0.5583390000000 1.0
C      1  0.4900070000000  0.4328560000000  0.4405290000000 1.0
C      1  0.5181730000000  0.4296220000000  0.5490000000000 1.0
C      1  0.4979810000000  0.5438750000000  0.5765030000000 1.0
C      1  0.4986010000000  0.4413850000000  0.5666110000000 1.0
C      1  0.4495740000000  0.4399910000000  0.4982640000000 1.0
C      1  0.4395860000000  0.5310080000000  0.4168340000000 1.0
C      1  0.5164050000000  0.4719000000000  0.4532410000000 1.0
C      1  0.4558530000000  0.5415830000000  0.5777750000000 1.0
C      1  0.5179080000000  0.5102770000000  0.4184150000000 1.0
C      1  0.4308770000000  0.4664320000000  0.5065670000000 1.0
C      1  0.4522980000000  0.5056900000000  0.4107740000000 1.0
C      1  0.4457020000000  0.5498890000000  0.4872900000000 1.0
C      1  0.4426540000000  0.5171160000000  0.5325010000000 1.0
C      1  0.5782940000000  0.4552480000000  0.5047040000000 1.0
C      1  0.5104800000000  0.5025360000000  0.5047950000000 1.0
C      1  0.4865860000000  0.5817440000000  0.5069720000000 1.0
C      1  0.5771450000000  0.5373870000000  0.4389640000000 1.0
C      1  0.5091910000000  0.5383390000000  0.4234800000000 1.0
C      1  0.4734880000000  0.4528090000000  0.5520460000000 1.0
C      1  0.5133460000000  0.5232370000000  0.5823840000000 1.0
C      1  0.4580880000000  0.4765090000000  0.5869290000000 1.0
C      1  0.4722970000000  0.4257270000000  0.5118560000000 1.0
C      1  0.4975740000000  0.4261830000000  0.5282310000000 1.0
C      1  0.5019400000000  0.5763620000000  0.5313260000000 1.0
C      1  0.5465310000000  0.4909500000000  0.4727670000000 1.0
C      1  0.5460290000000  0.4396180000000  0.5437920000000 1.0
C      1  0.4880640000000  0.5661520000000  0.4605480000000 1.0
C      1  0.5079030000000  0.4612950000000  0.5856730000000 1.0
C      1  0.5609890000000  0.5120970000000  0.5525310000000 1.0
C      1  0.4616940000000  0.5473970000000  0.4062900000000 1.0
C      1  0.5701010000000  0.5286980000000  0.5298310000000 1.0
C      1  0.5299600000000  0.4395660000000  0.4738410000000 1.0
C      1  0.4712210000000  0.4846210000000  0.4086220000000 1.0
C      1  0.4778350000000  0.4795620000000  0.4792360000000 1.0
C      1  0.4912840000000  0.5084430000000  0.5971050000000 1.0
C      1  0.5015610000000  0.4896500000000  0.4049670000000 1.0
C      1  0.5579710000000  0.4432870000000  0.4698210000000 1.0
C      1  0.5206710000000  0.5262730000000  0.5254130000000 1.0
C      1  0.4414300000000  0.5219690000000  0.5617930000000 1.0
C      1  0.4764290000000  0.5604980000000  0.5708330000000 1.0
C      1  0.5121400000000  0.4508180000000  0.4336550000000 1.0
C      1  0.4747070000000  0.5223110000000  0.4775690000000 1.0
C      1  0.4279050000000  0.4949550000000  0.4628020000000 1.0
C      1  0.4940740000000  0.5433510000000  0.4791800000000 1.0
C      1  0.5227730000000  0.5080920000000  0.4786670000000 1.0
C      1  0.5470760000000  0.5175000000000  0.5141710000000 1.0
C      1  0.4865790000000  0.4797940000000  0.5939290000000 1.0
C      1  0.4448720000000  0.5024200000000  0.5847680000000 1.0
C      1  0.5486850000000  0.4903150000000  0.5036920000000 1.0
C      1  0.5785180000000  0.5343080000000  0.4880240000000 1.0
C      1  0.5092880000000  0.4466280000000  0.5102960000000 1.0
C      1  0.5360030000000  0.5573290000000  0.4616510000000 1.0
C      1  0.4591100000000  0.4694420000000  0.4306930000000 1.0
C      1  0.4640310000000  0.5210130000000  0.5970560000000 1.0
C      1  0.5305760000000  0.5770270000000  0.4844330000000 1.0
C      1  0.5049920000000  0.4718240000000  0.4789670000000 1.0
C      1  0.5694250000000  0.5511910000000  0.5106610000000 1.0
C      1  0.5437050000000  0.5669690000000  0.5085050000000 1.0
C      1  0.4802510000000  0.5354400000000  0.4289980000000 1.0
C      1  0.4680750000000  0.5012970000000  0.5261330000000 1.0
C      1  0.4356410000000  0.5434180000000  0.4469810000000 1.0
C      1  0.4776830000000  0.5708810000000  0.5452330000000 1.0
C      1  0.4887670000000  0.4365630000000  0.4904180000000 1.0
C      1  0.5310730000000  0.4730980000000  0.5717670000000 1.0
C      1  0.4618630000000  0.4428130000000  0.4434280000000 1.0
C      1  0.4550890000000  0.5575160000000  0.4630790000000 1.0
C      1  0.5020880000000  0.5832170000000  0.4827110000000 1.0
C      1  0.4461740000000  0.5448180000000  0.5145550000000 1.0
C      1  0.4259550000000  0.4682470000000  0.5496470000000 1.0
C      1  0.4534870000000  0.4404820000000  0.4706990000000 1.0
C      1  0.5226600000000  0.5567190000000  0.5256820000000 1.0
C      1  0.4261910000000  0.4871070000000  0.5274440000000 1.0
C      1  0.4626130000000  0.5676650000000  0.5209380000000 1.0
C      1  0.5755640000000  0.4891510000000  0.4710070000000 1.0
C      1  0.5208510000000  0.4692640000000  0.4131890000000 1.0
C      1  0.5805040000000  0.4589320000000  0.4756860000000 1.0
C      1  0.5344560000000  0.4329760000000  0.5019780000000 1.0
C      1  0.4717730000000  0.4767710000000  0.5388650000000 1.0
C      1  0.5316330000000  0.4887420000000  0.4339450000000 1.0
C      1  0.5583580000000  0.4374510000000  0.5174150000000 1.0
C      1  0.4720270000000  0.5159670000000  0.4501510000000 1.0
C      1  0.5669320000000  0.5438460000000  0.4607960000000 1.0
C      1  0.4481300000000  0.4569530000000  0.5673510000000 1.0
C      1  0.5849380000000  0.5063580000000  0.4917930000000 1.0
C      1  0.5302690000000  0.5144650000000  0.5555850000000 1.0
C      1  0.4177960000000  0.5227730000000  0.4591310000000 1.0
C      1  0.5768440000000  0.4836620000000  0.5149060000000 1.0
C      1  0.4587840000000  0.4890230000000  0.4537300000000 1.0
END
