TITL C-4164237-1827-70 -3.76278570224626 125000 -20239.5695665589 0 0 135 (C1) n - 1
REM
REM in /home/nfs/bkarasulu/CARBON/AIRSS/Generating-Clusters/ReaxFF-fromJPCA2015/Units_Real/with-SteepDescent/Only-C1/SD-CG/Try1-3A/FIRE-CG
REM
REM
REM
REM
REM
REM ./C.cell (11c1c37f851c82e70ff6c80c92926a4b)
REM
REM compiler GCC version 9.2.1 20190827 (Red Hat 9.2.1-1)
REM options -cpp -mtune=generic -march=x86-64 -g -O0 -fpre-include=/usr/include/finclude/math-vector-fortran.h
REM seed -288155738 511931091 -877168721 -1963641118 -1512249138 1303871840 911705023 633777866 -473565853 709112039 2039427850 1541563192 -2039120740 -1388305940 -1486902801 -2129597367 -434223623 2063715290 -1380710316 -1074682050 516249376 388956441 -1335957970 -389758984 367487302 -1390921652 -410146572 -1206802072 -484052442 209979575 -568871098 1482385510 878131006
REM
CELL 1.54180   50.00000   50.00000   50.00000   90.00000   90.00000   90.00000
LATT -1
SFAC C  
C      1  0.4864960000000  0.5284910000000  0.4090130000000 1.0
C      1  0.4168050000000  0.4517800000000  0.4682650000000 1.0
C      1  0.4734360000000  0.3907180000000  0.4739340000000 1.0
C      1  0.5387730000000  0.4507390000000  0.5389000000000 1.0
C      1  0.5317950000000  0.4960680000000  0.5285930000000 1.0
C      1  0.4837630000000  0.4007650000000  0.5003000000000 1.0
C      1  0.4501990000000  0.5758270000000  0.4832280000000 1.0
C      1  0.5041880000000  0.4475340000000  0.5043650000000 1.0
C      1  0.5088400000000  0.3978370000000  0.5148610000000 1.0
C      1  0.4904060000000  0.4940380000000  0.5012190000000 1.0
C      1  0.4028460000000  0.4384640000000  0.4896090000000 1.0
C      1  0.4131410000000  0.4806090000000  0.4607100000000 1.0
C      1  0.4147270000000  0.4395230000000  0.5441370000000 1.0
C      1  0.4676790000000  0.4387670000000  0.4737610000000 1.0
C      1  0.5171280000000  0.4098560000000  0.4437530000000 1.0
C      1  0.5353010000000  0.5147240000000  0.4699040000000 1.0
C      1  0.5174810000000  0.5983670000000  0.5375940000000 1.0
C      1  0.5433520000000  0.4678850000000  0.4567480000000 1.0
C      1  0.4680540000000  0.5123020000000  0.4677420000000 1.0
C      1  0.5501270000000  0.5625700000000  0.4735620000000 1.0
C      1  0.5180920000000  0.5318850000000  0.4093700000000 1.0
C      1  0.4471560000000  0.5694750000000  0.5314480000000 1.0
C      1  0.4252650000000  0.5375720000000  0.4672450000000 1.0
C      1  0.5144280000000  0.5025130000000  0.6001270000000 1.0
C      1  0.4163900000000  0.4454590000000  0.5114700000000 1.0
C      1  0.5156590000000  0.4624320000000  0.4675480000000 1.0
C      1  0.5409650000000  0.4963480000000  0.5881390000000 1.0
C      1  0.4071740000000  0.5225740000000  0.4809890000000 1.0
C      1  0.5085430000000  0.5309560000000  0.6020040000000 1.0
C      1  0.4574180000000  0.5682260000000  0.4318610000000 1.0
C      1  0.5151010000000  0.5541780000000  0.5038790000000 1.0
C      1  0.4912500000000  0.6079570000000  0.5375420000000 1.0
C      1  0.4880500000000  0.5000570000000  0.4537020000000 1.0
C      1  0.5480990000000  0.5436060000000  0.5682400000000 1.0
C      1  0.5827750000000  0.5046220000000  0.5260540000000 1.0
C      1  0.4281880000000  0.5574110000000  0.4891800000000 1.0
C      1  0.4806910000000  0.4782640000000  0.4375200000000 1.0
C      1  0.5313730000000  0.3997910000000  0.4955050000000 1.0
C      1  0.4267430000000  0.5542320000000  0.5191060000000 1.0
C      1  0.4895340000000  0.5381190000000  0.5381010000000 1.0
C      1  0.4251520000000  0.5332800000000  0.5619600000000 1.0
C      1  0.4991570000000  0.3812070000000  0.4671340000000 1.0
C      1  0.5825280000000  0.4515190000000  0.5161540000000 1.0
C      1  0.5725030000000  0.4373540000000  0.4916790000000 1.0
C      1  0.4863560000000  0.5454570000000  0.5085250000000 1.0
C      1  0.4828520000000  0.4798440000000  0.4048140000000 1.0
C      1  0.4517940000000  0.5041170000000  0.5893850000000 1.0
C      1  0.4396110000000  0.5760220000000  0.4147120000000 1.0
C      1  0.5906540000000  0.5523600000000  0.4503420000000 1.0
C      1  0.5089850000000  0.4799660000000  0.4028240000000 1.0
C      1  0.5225190000000  0.4762530000000  0.5429150000000 1.0
C      1  0.5769730000000  0.5246320000000  0.4995690000000 1.0
C      1  0.5285200000000  0.5790710000000  0.4970970000000 1.0
C      1  0.5058060000000  0.5978580000000  0.4895070000000 1.0
C      1  0.5059570000000  0.4716910000000  0.4918360000000 1.0
C      1  0.4726650000000  0.4930230000000  0.5246310000000 1.0
C      1  0.5236460000000  0.5525030000000  0.4281900000000 1.0
C      1  0.4661540000000  0.4220050000000  0.4322820000000 1.0
C      1  0.5678160000000  0.4498990000000  0.5424600000000 1.0
C      1  0.4740830000000  0.5071530000000  0.3930890000000 1.0
C      1  0.4552350000000  0.4581690000000  0.5713230000000 1.0
C      1  0.4852340000000  0.5997390000000  0.5099590000000 1.0
C      1  0.5962560000000  0.5723650000000  0.4944870000000 1.0
C      1  0.5523260000000  0.4928540000000  0.4695830000000 1.0
C      1  0.5688710000000  0.4715390000000  0.5624120000000 1.0
C      1  0.5507900000000  0.4706140000000  0.4255820000000 1.0
C      1  0.6017670000000  0.5430640000000  0.4937670000000 1.0
C      1  0.4393900000000  0.4627530000000  0.5051560000000 1.0
C      1  0.5358480000000  0.4832170000000  0.4033830000000 1.0
C      1  0.5278000000000  0.4433840000000  0.5807660000000 1.0
C      1  0.4048230000000  0.5055880000000  0.5366810000000 1.0
C      1  0.4624940000000  0.5841690000000  0.4589360000000 1.0
C      1  0.4963190000000  0.4282790000000  0.4344220000000 1.0
C      1  0.5657260000000  0.5144630000000  0.4200760000000 1.0
C      1  0.4458880000000  0.5211380000000  0.4498890000000 1.0
C      1  0.5706140000000  0.5409280000000  0.4322900000000 1.0
C      1  0.5403800000000  0.5133210000000  0.4066750000000 1.0
C      1  0.6089710000000  0.5352300000000  0.4662790000000 1.0
C      1  0.4795710000000  0.4311370000000  0.5046760000000 1.0
C      1  0.4568850000000  0.5714820000000  0.5593290000000 1.0
C      1  0.5276280000000  0.5489370000000  0.5887020000000 1.0
C      1  0.3974590000000  0.4963720000000  0.4825860000000 1.0
C      1  0.4980840000000  0.5432530000000  0.4480070000000 1.0
C      1  0.4760680000000  0.4408840000000  0.5591730000000 1.0
C      1  0.4865920000000  0.5493060000000  0.5941420000000 1.0
C      1  0.4649300000000  0.4801650000000  0.5902640000000 1.0
C      1  0.4691360000000  0.5388410000000  0.4311460000000 1.0
C      1  0.5390240000000  0.5830510000000  0.5287120000000 1.0
C      1  0.5746260000000  0.4860550000000  0.4262310000000 1.0
C      1  0.4467570000000  0.4833230000000  0.5224220000000 1.0
C      1  0.4745460000000  0.4241450000000  0.5346840000000 1.0
C      1  0.5786360000000  0.5718290000000  0.4696110000000 1.0
C      1  0.4010060000000  0.4954920000000  0.5111590000000 1.0
C      1  0.5519160000000  0.5345520000000  0.4836500000000 1.0
C      1  0.5562440000000  0.5159450000000  0.5711970000000 1.0
C      1  0.5856160000000  0.4789860000000  0.5180570000000 1.0
C      1  0.5296890000000  0.4366450000000  0.5161980000000 1.0
C      1  0.5401400000000  0.5139410000000  0.5156970000000 1.0
C      1  0.5003720000000  0.4895490000000  0.5591630000000 1.0
C      1  0.5101300000000  0.5165890000000  0.4561360000000 1.0
C      1  0.5484870000000  0.5572110000000  0.4420760000000 1.0
C      1  0.4607910000000  0.4135240000000  0.4597650000000 1.0
C      1  0.5355030000000  0.5422900000000  0.5214940000000 1.0
C      1  0.4802850000000  0.5198190000000  0.4925100000000 1.0
C      1  0.4294070000000  0.4620250000000  0.5589670000000 1.0
C      1  0.5502620000000  0.4208840000000  0.5013420000000 1.0
C      1  0.5037210000000  0.4303470000000  0.5638940000000 1.0
C      1  0.4668620000000  0.5750730000000  0.5087520000000 1.0
C      1  0.4923090000000  0.4514010000000  0.4529810000000 1.0
C      1  0.4902850000000  0.5945480000000  0.4636160000000 1.0
C      1  0.4840570000000  0.5104960000000  0.5455370000000 1.0
C      1  0.4267950000000  0.4862000000000  0.5426790000000 1.0
C      1  0.4978270000000  0.5609810000000  0.5534690000000 1.0
C      1  0.5061110000000  0.5643020000000  0.5800970000000 1.0
C      1  0.5478750000000  0.5582940000000  0.5425240000000 1.0
C      1  0.4123170000000  0.5363780000000  0.5385610000000 1.0
C      1  0.4824540000000  0.5860900000000  0.5563140000000 1.0
C      1  0.4485540000000  0.4444400000000  0.4249540000000 1.0
C      1  0.5317980000000  0.4216030000000  0.5924710000000 1.0
C      1  0.4078410000000  0.4170550000000  0.5543050000000 1.0
C      1  0.4398400000000  0.5301400000000  0.5862900000000 1.0
C      1  0.4950570000000  0.4848540000000  0.5873430000000 1.0
C      1  0.5862210000000  0.4667630000000  0.4479010000000 1.0
C      1  0.5786350000000  0.5016470000000  0.4783840000000 1.0
C      1  0.5470150000000  0.4694130000000  0.5807160000000 1.0
C      1  0.5693530000000  0.4506740000000  0.4657740000000 1.0
C      1  0.5733250000000  0.5001050000000  0.5534840000000 1.0
C      1  0.4450070000000  0.4575970000000  0.4769970000000 1.0
C      1  0.4329940000000  0.4932710000000  0.4442020000000 1.0
C      1  0.5254320000000  0.3913370000000  0.4666070000000 1.0
C      1  0.5026010000000  0.5700580000000  0.4586180000000 1.0
C      1  0.4605510000000  0.5516950000000  0.5808320000000 1.0
C      1  0.5003410000000  0.4113700000000  0.5405890000000 1.0
C      1  0.4505820000000  0.4736840000000  0.4311790000000 1.0
C      1  0.6045550000000  0.5053770000000  0.4638360000000 1.0
END
