TITL C-4164238-4211-312 18.5965743822059 125000 -27628.6118045399 0 0 185 (C1) n - 1
REM
REM in /home/nfs/bkarasulu/CARBON/AIRSS/Generating-Clusters/ReaxFF-fromJPCA2015/Units_Real/with-SteepDescent/Only-C1/SD-CG/Try1-3A/FIRE-CG
REM
REM
REM
REM
REM
REM ./C.cell (11c1c37f851c82e70ff6c80c92926a4b)
REM
REM compiler GCC version 9.2.1 20190827 (Red Hat 9.2.1-1)
REM options -cpp -mtune=generic -march=x86-64 -g -O0 -fpre-include=/usr/include/finclude/math-vector-fortran.h
REM seed -719597087 781040368 488356930 880204052 1550372093 1924723139 -1566448051 -898724322 -1178546969 752686771 691126142 1337662117 -1681389544 -630682799 -1588566959 284941804 828492214 186076519 -323231442 -137418000 -1826820574 -2018499085 -1708324845 1908057518 -1935868196 10314162 941009416 245061710 355410826 2074877891 1393059496 90067343 2083128538
REM
CELL 1.54180   50.00000   50.00000   50.00000   90.00000   90.00000   90.00000
LATT -1
SFAC C  
C      1  0.5104930000000  0.5149770000000  0.3850130000000 1.0
C      1  0.4015320000000  0.5213410000000  0.4613080000000 1.0
C      1  0.4698510000000  0.4143570000000  0.4820590000000 1.0
C      1  0.5450140000000  0.4811060000000  0.4331520000000 1.0
C      1  0.5557560000000  0.5272090000000  0.4987780000000 1.0
C      1  0.4227010000000  0.5504840000000  0.5494530000000 1.0
C      1  0.4685300000000  0.4584520000000  0.4111640000000 1.0
C      1  0.4965930000000  0.5698310000000  0.4680460000000 1.0
C      1  0.5576230000000  0.5612040000000  0.4481840000000 1.0
C      1  0.4878680000000  0.4380180000000  0.5301630000000 1.0
C      1  0.5414930000000  0.5104450000000  0.6009090000000 1.0
C      1  0.4521940000000  0.4670020000000  0.5373440000000 1.0
C      1  0.4077520000000  0.4944820000000  0.4285490000000 1.0
C      1  0.5471140000000  0.4892900000000  0.4830250000000 1.0
C      1  0.4302360000000  0.4522700000000  0.5836380000000 1.0
C      1  0.4709530000000  0.4036810000000  0.5474920000000 1.0
C      1  0.5072110000000  0.4864420000000  0.3930540000000 1.0
C      1  0.4909010000000  0.5585640000000  0.4016130000000 1.0
C      1  0.4896860000000  0.4894210000000  0.4393950000000 1.0
C      1  0.5239360000000  0.4465340000000  0.4672700000000 1.0
C      1  0.4923080000000  0.4420940000000  0.4796520000000 1.0
C      1  0.4424060000000  0.5964560000000  0.4997270000000 1.0
C      1  0.3931320000000  0.4542070000000  0.4922680000000 1.0
C      1  0.5439830000000  0.5510850000000  0.3997270000000 1.0
C      1  0.5438540000000  0.5105420000000  0.4361150000000 1.0
C      1  0.4402430000000  0.4750090000000  0.5996600000000 1.0
C      1  0.5242880000000  0.5810870000000  0.4249940000000 1.0
C      1  0.5101220000000  0.4208640000000  0.5380010000000 1.0
C      1  0.5111190000000  0.5572130000000  0.5987220000000 1.0
C      1  0.4856670000000  0.5425110000000  0.5990390000000 1.0
C      1  0.5372630000000  0.5334060000000  0.4531740000000 1.0
C      1  0.5800800000000  0.5004080000000  0.4082590000000 1.0
C      1  0.4838500000000  0.4953640000000  0.5779710000000 1.0
C      1  0.5646490000000  0.5501920000000  0.4203300000000 1.0
C      1  0.4872880000000  0.5312040000000  0.3912110000000 1.0
C      1  0.4873080000000  0.5542750000000  0.4475810000000 1.0
C      1  0.3806170000000  0.4758120000000  0.5050100000000 1.0
C      1  0.4199100000000  0.5787110000000  0.4913000000000 1.0
C      1  0.4489190000000  0.5855310000000  0.4608720000000 1.0
C      1  0.5120000000000  0.5455510000000  0.5313520000000 1.0
C      1  0.5851500000000  0.4202960000000  0.5105420000000 1.0
C      1  0.4492180000000  0.4662480000000  0.5082980000000 1.0
C      1  0.6033650000000  0.5238680000000  0.4412970000000 1.0
C      1  0.5399380000000  0.4057460000000  0.4858740000000 1.0
C      1  0.4150120000000  0.5423410000000  0.4460420000000 1.0
C      1  0.4869760000000  0.4124820000000  0.4291320000000 1.0
C      1  0.4931440000000  0.4536070000000  0.5066840000000 1.0
C      1  0.5326780000000  0.5378920000000  0.5923330000000 1.0
C      1  0.4433460000000  0.5252690000000  0.5834650000000 1.0
C      1  0.4943120000000  0.5907510000000  0.5719890000000 1.0
C      1  0.5182860000000  0.4436630000000  0.4141860000000 1.0
C      1  0.4272800000000  0.5664190000000  0.4638880000000 1.0
C      1  0.4272770000000  0.4250780000000  0.5199030000000 1.0
C      1  0.5223350000000  0.5247580000000  0.4309930000000 1.0
C      1  0.5223930000000  0.4343850000000  0.5838310000000 1.0
C      1  0.5121120000000  0.3947750000000  0.4816100000000 1.0
C      1  0.6045370000000  0.5298470000000  0.5292590000000 1.0
C      1  0.5983180000000  0.5114100000000  0.4827270000000 1.0
C      1  0.4688900000000  0.4757690000000  0.5972730000000 1.0
C      1  0.4568000000000  0.5495300000000  0.5904320000000 1.0
C      1  0.5408470000000  0.4348810000000  0.4901120000000 1.0
C      1  0.4954000000000  0.5561620000000  0.5125120000000 1.0
C      1  0.4501610000000  0.5968860000000  0.5275090000000 1.0
C      1  0.5627010000000  0.4941540000000  0.5882170000000 1.0
C      1  0.5483970000000  0.4494430000000  0.5145160000000 1.0
C      1  0.4871360000000  0.4553910000000  0.6075460000000 1.0
C      1  0.4971920000000  0.3947680000000  0.5355860000000 1.0
C      1  0.4798620000000  0.4676580000000  0.4410080000000 1.0
C      1  0.4492830000000  0.4062520000000  0.5283990000000 1.0
C      1  0.4399510000000  0.5351350000000  0.5306680000000 1.0
C      1  0.5609400000000  0.4742840000000  0.5228440000000 1.0
C      1  0.4647000000000  0.4809060000000  0.4871820000000 1.0
C      1  0.4392900000000  0.5654260000000  0.5690730000000 1.0
C      1  0.4944090000000  0.4317480000000  0.5914220000000 1.0
C      1  0.5092260000000  0.5562460000000  0.4882060000000 1.0
C      1  0.5772390000000  0.4204240000000  0.5362070000000 1.0
C      1  0.5922760000000  0.4806960000000  0.5229060000000 1.0
C      1  0.4298160000000  0.5003010000000  0.5884800000000 1.0
C      1  0.4780140000000  0.5080940000000  0.4973570000000 1.0
C      1  0.5190250000000  0.5682090000000  0.4011180000000 1.0
C      1  0.4392200000000  0.4411820000000  0.4991210000000 1.0
C      1  0.5516670000000  0.4371110000000  0.5824870000000 1.0
C      1  0.4504780000000  0.5201640000000  0.4524650000000 1.0
C      1  0.5776610000000  0.5543980000000  0.5599650000000 1.0
C      1  0.5176400000000  0.6025460000000  0.5323440000000 1.0
C      1  0.4390780000000  0.5123780000000  0.4061350000000 1.0
C      1  0.5950110000000  0.4511400000000  0.4734780000000 1.0
C      1  0.4974260000000  0.6032900000000  0.5105930000000 1.0
C      1  0.4379650000000  0.4605040000000  0.4182960000000 1.0
C      1  0.5156730000000  0.4997250000000  0.6113310000000 1.0
C      1  0.6066180000000  0.4984060000000  0.4559710000000 1.0
C      1  0.5554440000000  0.5423790000000  0.5463410000000 1.0
C      1  0.5197720000000  0.5269600000000  0.5692440000000 1.0
C      1  0.5850400000000  0.5288910000000  0.4188050000000 1.0
C      1  0.5639560000000  0.4637520000000  0.5899880000000 1.0
C      1  0.5997140000000  0.5397310000000  0.4649860000000 1.0
C      1  0.4720360000000  0.4250900000000  0.5705180000000 1.0
C      1  0.4203670000000  0.5205870000000  0.5126030000000 1.0
C      1  0.5867290000000  0.4231260000000  0.4822280000000 1.0
C      1  0.5597490000000  0.5102090000000  0.3919560000000 1.0
C      1  0.4251630000000  0.4485100000000  0.4404050000000 1.0
C      1  0.4245480000000  0.4776460000000  0.4773800000000 1.0
C      1  0.4427100000000  0.5364440000000  0.4755500000000 1.0
C      1  0.4252020000000  0.4859430000000  0.4089170000000 1.0
C      1  0.4952840000000  0.3897050000000  0.5065440000000 1.0
C      1  0.5119480000000  0.4708880000000  0.6103420000000 1.0
C      1  0.4802760000000  0.5683040000000  0.5619530000000 1.0
C      1  0.5205860000000  0.4698120000000  0.5422020000000 1.0
C      1  0.5680830000000  0.5084590000000  0.4830880000000 1.0
C      1  0.4950850000000  0.5396800000000  0.5569980000000 1.0
C      1  0.4938570000000  0.5159200000000  0.4752000000000 1.0
C      1  0.5514680000000  0.4166130000000  0.4462470000000 1.0
C      1  0.4928030000000  0.5022270000000  0.5231130000000 1.0
C      1  0.6005270000000  0.4584330000000  0.4998690000000 1.0
C      1  0.5389640000000  0.6034310000000  0.5124950000000 1.0
C      1  0.5750620000000  0.5800220000000  0.5434300000000 1.0
C      1  0.5581890000000  0.4250130000000  0.5563170000000 1.0
C      1  0.4630550000000  0.5328190000000  0.4950580000000 1.0
C      1  0.4437390000000  0.4272030000000  0.5839670000000 1.0
C      1  0.5103180000000  0.5942780000000  0.4618020000000 1.0
C      1  0.3970610000000  0.5479400000000  0.5340030000000 1.0
C      1  0.5808800000000  0.5609020000000  0.4669280000000 1.0
C      1  0.5186220000000  0.5989730000000  0.5616370000000 1.0
C      1  0.4005140000000  0.4649420000000  0.5384080000000 1.0
C      1  0.5253500000000  0.4706350000000  0.4095770000000 1.0
C      1  0.5370170000000  0.4728320000000  0.4624900000000 1.0
C      1  0.4783920000000  0.4633480000000  0.4677570000000 1.0
C      1  0.6031510000000  0.5542980000000  0.5136480000000 1.0
C      1  0.4449360000000  0.4246530000000  0.4766880000000 1.0
C      1  0.5819550000000  0.5691470000000  0.4978430000000 1.0
C      1  0.4749570000000  0.4533620000000  0.5515720000000 1.0
C      1  0.5355140000000  0.4364290000000  0.5388150000000 1.0
C      1  0.4665270000000  0.5095110000000  0.3954570000000 1.0
C      1  0.4348890000000  0.5313570000000  0.4285380000000 1.0
C      1  0.4315320000000  0.4940010000000  0.5598590000000 1.0
C      1  0.4030720000000  0.4434660000000  0.5192060000000 1.0
C      1  0.4789780000000  0.5128270000000  0.5521100000000 1.0
C      1  0.5647690000000  0.4064160000000  0.4687900000000 1.0
C      1  0.5165130000000  0.6042420000000  0.4899400000000 1.0
C      1  0.4981360000000  0.3955200000000  0.4559410000000 1.0
C      1  0.5184690000000  0.5302430000000  0.4785520000000 1.0
C      1  0.4774710000000  0.5703170000000  0.4254850000000 1.0
C      1  0.5048050000000  0.4761360000000  0.5193200000000 1.0
C      1  0.4679260000000  0.5873340000000  0.5082480000000 1.0
C      1  0.5847860000000  0.5038680000000  0.5699030000000 1.0
C      1  0.3952300000000  0.5182860000000  0.5261630000000 1.0
C      1  0.4071090000000  0.5639820000000  0.5124340000000 1.0
C      1  0.5760760000000  0.4782050000000  0.4279440000000 1.0
C      1  0.5935010000000  0.5297590000000  0.5585310000000 1.0
C      1  0.3861960000000  0.4897870000000  0.5290130000000 1.0
C      1  0.4045520000000  0.4632460000000  0.4628100000000 1.0
C      1  0.5010740000000  0.4711600000000  0.5644370000000 1.0
C      1  0.5941290000000  0.4730890000000  0.4494750000000 1.0
C      1  0.4900680000000  0.4356860000000  0.4130510000000 1.0
C      1  0.4663570000000  0.5540080000000  0.5149750000000 1.0
C      1  0.5658190000000  0.5926880000000  0.5187920000000 1.0
C      1  0.4448850000000  0.4930250000000  0.4675150000000 1.0
C      1  0.5562600000000  0.5544840000000  0.5054850000000 1.0
C      1  0.5441380000000  0.4857100000000  0.5421530000000 1.0
C      1  0.4812590000000  0.5263940000000  0.4510350000000 1.0
C      1  0.5827770000000  0.4616390000000  0.5704750000000 1.0
C      1  0.5160860000000  0.5834040000000  0.5865690000000 1.0
C      1  0.4676900000000  0.3977740000000  0.5065170000000 1.0
C      1  0.5379660000000  0.5141460000000  0.5480580000000 1.0
C      1  0.4923330000000  0.5140430000000  0.6009920000000 1.0
C      1  0.4273460000000  0.4664730000000  0.5539820000000 1.0
C      1  0.5356750000000  0.5856980000000  0.4479120000000 1.0
C      1  0.5384740000000  0.5260840000000  0.3836860000000 1.0
C      1  0.5321050000000  0.5137440000000  0.4983930000000 1.0
C      1  0.4782560000000  0.4829210000000  0.3955640000000 1.0
C      1  0.5188520000000  0.5174090000000  0.5242890000000 1.0
C      1  0.5188020000000  0.4619060000000  0.5846180000000 1.0
C      1  0.4705850000000  0.3921300000000  0.4614940000000 1.0
C      1  0.5953480000000  0.4808390000000  0.5548640000000 1.0
C      1  0.6030480000000  0.5063060000000  0.5124320000000 1.0
C      1  0.4602660000000  0.4056680000000  0.4376970000000 1.0
C      1  0.4720500000000  0.5917510000000  0.4452010000000 1.0
C      1  0.5403480000000  0.5599520000000  0.5293630000000 1.0
C      1  0.4498150000000  0.5152350000000  0.5511830000000 1.0
C      1  0.4975610000000  0.5137080000000  0.4301920000000 1.0
C      1  0.4187790000000  0.5248650000000  0.4848030000000 1.0
C      1  0.5314660000000  0.4323790000000  0.4393210000000 1.0
C      1  0.4388920000000  0.4250010000000  0.4489740000000 1.0
C      1  0.4560470000000  0.5810590000000  0.5515020000000 1.0
C      1  0.3947730000000  0.4929070000000  0.4524580000000 1.0
END
