TITL C-4164233-775-491 3.31387230325709 125000 -26857.4693984489 0 0 176 (C1) n - 1
REM
REM in /home/nfs/bkarasulu/CARBON/AIRSS/Generating-Clusters/ReaxFF-fromJPCA2015/Units_Real/with-SteepDescent/Only-C1/SD-CG/Try1-3A/FIRE-CG
REM
REM
REM
REM
REM
REM ./C.cell (11c1c37f851c82e70ff6c80c92926a4b)
REM
REM compiler GCC version 9.2.1 20190827 (Red Hat 9.2.1-1)
REM options -cpp -mtune=generic -march=x86-64 -g -O0 -fpre-include=/usr/include/finclude/math-vector-fortran.h
REM seed 1342453510 -690910391 1857436715 863195528 25126737 -826106333 -864655344 49425460 -1357484597 -1464070352 -1207046403 -4393995 1856227082 -1400414711 1713919876 -935095971 -1444717655 1777609551 -1748796966 934391065 -2034453947 608404209 200042938 626726943 -43231037 2111519628 -2079364672 1772949525 -1537855867 251967972 -657185510 -315727522 8743655
REM
CELL 1.54180   50.00000   50.00000   50.00000   90.00000   90.00000   90.00000
LATT -1
SFAC C  
C      1  0.4042760000000  0.5306220000000  0.5171470000000 1.0
C      1  0.5124080000000  0.3934080000000  0.5259760000000 1.0
C      1  0.4007260000000  0.5348230000000  0.4584220000000 1.0
C      1  0.4252670000000  0.4542450000000  0.4322090000000 1.0
C      1  0.4337090000000  0.4944400000000  0.4034060000000 1.0
C      1  0.5712620000000  0.4166750000000  0.4960680000000 1.0
C      1  0.5418390000000  0.4659900000000  0.3970860000000 1.0
C      1  0.6075760000000  0.5204350000000  0.4662650000000 1.0
C      1  0.5730510000000  0.5318330000000  0.4251580000000 1.0
C      1  0.5270970000000  0.5454020000000  0.5271860000000 1.0
C      1  0.5989400000000  0.4758280000000  0.5436610000000 1.0
C      1  0.3995720000000  0.5616650000000  0.4739090000000 1.0
C      1  0.4580570000000  0.5401990000000  0.4056470000000 1.0
C      1  0.4819510000000  0.5233070000000  0.5574480000000 1.0
C      1  0.5598420000000  0.5616630000000  0.4796460000000 1.0
C      1  0.5894160000000  0.5397320000000  0.5248340000000 1.0
C      1  0.5336090000000  0.4376140000000  0.4063930000000 1.0
C      1  0.5522600000000  0.4935670000000  0.4814920000000 1.0
C      1  0.4407630000000  0.4357840000000  0.4545160000000 1.0
C      1  0.5743330000000  0.5638960000000  0.5308780000000 1.0
C      1  0.5828760000000  0.4725870000000  0.4214140000000 1.0
C      1  0.5220310000000  0.5220130000000  0.4035400000000 1.0
C      1  0.5194930000000  0.5513550000000  0.4592920000000 1.0
C      1  0.5975680000000  0.4885400000000  0.4414830000000 1.0
C      1  0.5651490000000  0.5327030000000  0.4800300000000 1.0
C      1  0.4592570000000  0.5566990000000  0.4760250000000 1.0
C      1  0.5122760000000  0.4735650000000  0.6046090000000 1.0
C      1  0.4776720000000  0.4425280000000  0.5105420000000 1.0
C      1  0.4816950000000  0.4001840000000  0.5624880000000 1.0
C      1  0.4147670000000  0.4786500000000  0.4416590000000 1.0
C      1  0.5503890000000  0.4037520000000  0.5116760000000 1.0
C      1  0.4884240000000  0.5799980000000  0.5811840000000 1.0
C      1  0.4852710000000  0.3894370000000  0.5367220000000 1.0
C      1  0.4319670000000  0.5198180000000  0.5092540000000 1.0
C      1  0.4329830000000  0.5928690000000  0.4514310000000 1.0
C      1  0.5850680000000  0.4337580000000  0.4555400000000 1.0
C      1  0.4205660000000  0.4317110000000  0.4791140000000 1.0
C      1  0.4821080000000  0.5967710000000  0.4525870000000 1.0
C      1  0.4560800000000  0.6016020000000  0.4658670000000 1.0
C      1  0.5230360000000  0.5448640000000  0.5984950000000 1.0
C      1  0.5145130000000  0.4575330000000  0.4901070000000 1.0
C      1  0.4999170000000  0.5560230000000  0.5240130000000 1.0
C      1  0.4816400000000  0.5451360000000  0.6059440000000 1.0
C      1  0.4720230000000  0.5228180000000  0.4460730000000 1.0
C      1  0.5268600000000  0.5966070000000  0.4878100000000 1.0
C      1  0.4146640000000  0.5305860000000  0.4326960000000 1.0
C      1  0.5623960000000  0.4843020000000  0.4047400000000 1.0
C      1  0.4648220000000  0.3985450000000  0.5170620000000 1.0
C      1  0.4891740000000  0.5829070000000  0.5174610000000 1.0
C      1  0.5854620000000  0.5921730000000  0.4900020000000 1.0
C      1  0.4152740000000  0.5026930000000  0.4242660000000 1.0
C      1  0.4249620000000  0.4854350000000  0.5823430000000 1.0
C      1  0.5690700000000  0.5872610000000  0.5142510000000 1.0
C      1  0.4855260000000  0.5190500000000  0.4737020000000 1.0
C      1  0.4649940000000  0.4591500000000  0.4116020000000 1.0
C      1  0.3961870000000  0.4891300000000  0.5418020000000 1.0
C      1  0.4774540000000  0.5027680000000  0.4241610000000 1.0
C      1  0.5555800000000  0.5119310000000  0.4607300000000 1.0
C      1  0.5614010000000  0.4648210000000  0.5871030000000 1.0
C      1  0.6066400000000  0.5024770000000  0.4893140000000 1.0
C      1  0.4794270000000  0.4163840000000  0.4993740000000 1.0
C      1  0.4470860000000  0.4748830000000  0.5997450000000 1.0
C      1  0.4905560000000  0.4160670000000  0.4701210000000 1.0
C      1  0.5026380000000  0.4444290000000  0.4672790000000 1.0
C      1  0.5350020000000  0.4085430000000  0.5374820000000 1.0
C      1  0.3913690000000  0.4919450000000  0.4927340000000 1.0
C      1  0.4701860000000  0.4913220000000  0.5917350000000 1.0
C      1  0.4547300000000  0.5918350000000  0.5425600000000 1.0
C      1  0.5609200000000  0.5566610000000  0.4314730000000 1.0
C      1  0.6025090000000  0.5176430000000  0.5422480000000 1.0
C      1  0.4369150000000  0.4971970000000  0.4936700000000 1.0
C      1  0.5722420000000  0.5733770000000  0.4547180000000 1.0
C      1  0.5525200000000  0.5129120000000  0.4125300000000 1.0
C      1  0.4355470000000  0.5072330000000  0.5701810000000 1.0
C      1  0.4268260000000  0.4784920000000  0.4714510000000 1.0
C      1  0.5576770000000  0.4468220000000  0.5634720000000 1.0
C      1  0.5283540000000  0.5983870000000  0.5404750000000 1.0
C      1  0.4327220000000  0.5487560000000  0.4176990000000 1.0
C      1  0.6075900000000  0.4962820000000  0.5241880000000 1.0
C      1  0.5013670000000  0.4888830000000  0.5290990000000 1.0
C      1  0.3984110000000  0.5180380000000  0.5435440000000 1.0
C      1  0.5042150000000  0.5982850000000  0.4708130000000 1.0
C      1  0.5335790000000  0.4305770000000  0.5567100000000 1.0
C      1  0.4579460000000  0.5460900000000  0.4506540000000 1.0
C      1  0.4758680000000  0.4502360000000  0.5408680000000 1.0
C      1  0.4549930000000  0.4613090000000  0.4633000000000 1.0
C      1  0.5384150000000  0.4219110000000  0.4294430000000 1.0
C      1  0.4366650000000  0.5721400000000  0.5461500000000 1.0
C      1  0.5053780000000  0.4483430000000  0.4090440000000 1.0
C      1  0.6013630000000  0.4792060000000  0.4692350000000 1.0
C      1  0.5073600000000  0.4867470000000  0.4962240000000 1.0
C      1  0.4786700000000  0.4343630000000  0.4039460000000 1.0
C      1  0.5138970000000  0.4744750000000  0.3958740000000 1.0
C      1  0.5852320000000  0.5253950000000  0.4999940000000 1.0
C      1  0.5957340000000  0.4517520000000  0.4766290000000 1.0
C      1  0.5341080000000  0.5793240000000  0.5619840000000 1.0
C      1  0.4279730000000  0.5558490000000  0.5655370000000 1.0
C      1  0.4990400000000  0.6014790000000  0.5378800000000 1.0
C      1  0.5238200000000  0.4698280000000  0.5596510000000 1.0
C      1  0.4749580000000  0.5792120000000  0.4283040000000 1.0
C      1  0.5250240000000  0.4976770000000  0.5677130000000 1.0
C      1  0.4731660000000  0.4794630000000  0.5372410000000 1.0
C      1  0.5777200000000  0.4898220000000  0.5861250000000 1.0
C      1  0.4189480000000  0.5273120000000  0.5614910000000 1.0
C      1  0.4203230000000  0.4252350000000  0.5081160000000 1.0
C      1  0.4830240000000  0.5563590000000  0.4134850000000 1.0
C      1  0.5133660000000  0.5253760000000  0.4697480000000 1.0
C      1  0.5417540000000  0.5985290000000  0.5146070000000 1.0
C      1  0.5373670000000  0.5052320000000  0.4389360000000 1.0
C      1  0.5488600000000  0.5312830000000  0.5951090000000 1.0
C      1  0.4836520000000  0.4946710000000  0.4868210000000 1.0
C      1  0.4627120000000  0.5007090000000  0.5630360000000 1.0
C      1  0.5159260000000  0.5693910000000  0.5822000000000 1.0
C      1  0.5257890000000  0.3929290000000  0.4986800000000 1.0
C      1  0.4733330000000  0.4719260000000  0.4370040000000 1.0
C      1  0.5011300000000  0.4489070000000  0.5916570000000 1.0
C      1  0.4365060000000  0.4647000000000  0.4074020000000 1.0
C      1  0.4602980000000  0.5867030000000  0.5156200000000 1.0
C      1  0.5759490000000  0.4555760000000  0.5422550000000 1.0
C      1  0.4066820000000  0.4472240000000  0.5221100000000 1.0
C      1  0.5018890000000  0.4612590000000  0.4422170000000 1.0
C      1  0.5182430000000  0.4011940000000  0.4719080000000 1.0
C      1  0.5681140000000  0.4137340000000  0.4673260000000 1.0
C      1  0.5718470000000  0.4479380000000  0.4333370000000 1.0
C      1  0.5510190000000  0.5078150000000  0.5579150000000 1.0
C      1  0.5961640000000  0.5186170000000  0.4399410000000 1.0
C      1  0.4473780000000  0.5817350000000  0.4886410000000 1.0
C      1  0.4104210000000  0.4724370000000  0.5611070000000 1.0
C      1  0.4648320000000  0.4596530000000  0.4912360000000 1.0
C      1  0.4219440000000  0.4493320000000  0.5470840000000 1.0
C      1  0.4525910000000  0.4479680000000  0.6101460000000 1.0
C      1  0.5491800000000  0.4986240000000  0.5298810000000 1.0
C      1  0.4458100000000  0.5725990000000  0.4314840000000 1.0
C      1  0.5573630000000  0.5035760000000  0.6028070000000 1.0
C      1  0.4419680000000  0.5601840000000  0.5837950000000 1.0
C      1  0.5913410000000  0.5903290000000  0.4650170000000 1.0
C      1  0.4189720000000  0.5838800000000  0.4746460000000 1.0
C      1  0.4948700000000  0.4965980000000  0.6053730000000 1.0
C      1  0.4769110000000  0.5407160000000  0.5352210000000 1.0
C      1  0.4570820000000  0.5348240000000  0.5148500000000 1.0
C      1  0.4424800000000  0.4153210000000  0.5262200000000 1.0
C      1  0.4094180000000  0.4568050000000  0.4831320000000 1.0
C      1  0.5499060000000  0.5570300000000  0.5485610000000 1.0
C      1  0.5410600000000  0.4079190000000  0.4542930000000 1.0
C      1  0.5417650000000  0.4504580000000  0.4983680000000 1.0
C      1  0.3931580000000  0.4749100000000  0.5160380000000 1.0
C      1  0.4641660000000  0.4155520000000  0.4507700000000 1.0
C      1  0.5038860000000  0.5001850000000  0.4056090000000 1.0
C      1  0.5486330000000  0.4587690000000  0.4479510000000 1.0
C      1  0.5364310000000  0.5213700000000  0.5161530000000 1.0
C      1  0.5415080000000  0.4783150000000  0.6045160000000 1.0
C      1  0.5311230000000  0.5570080000000  0.4326680000000 1.0
C      1  0.4785490000000  0.4336800000000  0.6032650000000 1.0
C      1  0.4484290000000  0.4368160000000  0.5447840000000 1.0
C      1  0.4720120000000  0.4193260000000  0.4259540000000 1.0
C      1  0.3938080000000  0.5476380000000  0.4974660000000 1.0
C      1  0.5958940000000  0.4967350000000  0.5640650000000 1.0
C      1  0.5270430000000  0.5078850000000  0.4886880000000 1.0
C      1  0.5527010000000  0.4659210000000  0.4757330000000 1.0
C      1  0.5292150000000  0.4768010000000  0.5324860000000 1.0
C      1  0.5280350000000  0.4776580000000  0.4405890000000 1.0
C      1  0.4796640000000  0.4136800000000  0.5835300000000 1.0
C      1  0.4573920000000  0.5114260000000  0.4029380000000 1.0
C      1  0.3942010000000  0.5125900000000  0.4753840000000 1.0
C      1  0.5118140000000  0.5478260000000  0.4125040000000 1.0
C      1  0.5635140000000  0.4617070000000  0.5160960000000 1.0
C      1  0.5575390000000  0.5338890000000  0.5677840000000 1.0
C      1  0.4730410000000  0.5390600000000  0.4911780000000 1.0
C      1  0.4657500000000  0.5665980000000  0.5974340000000 1.0
C      1  0.5060590000000  0.5099600000000  0.5500920000000 1.0
C      1  0.5062600000000  0.4457950000000  0.5622040000000 1.0
C      1  0.5835490000000  0.4431770000000  0.5022120000000 1.0
C      1  0.5311370000000  0.5680710000000  0.4808790000000 1.0
C      1  0.5016450000000  0.5271980000000  0.6099060000000 1.0
C      1  0.4629480000000  0.4861150000000  0.5047330000000 1.0
C      1  0.4798040000000  0.5962810000000  0.5590340000000 1.0
END
