TITL C-4164233-775-237 24.1261979390583 125000 -22788.55548381 0 0 153 (C1) n - 1
REM
REM in /home/nfs/bkarasulu/CARBON/AIRSS/Generating-Clusters/ReaxFF-fromJPCA2015/Units_Real/with-SteepDescent/Only-C1/SD-CG/Try1-3A/FIRE-CG
REM
REM
REM
REM
REM
REM ./C.cell (11c1c37f851c82e70ff6c80c92926a4b)
REM
REM compiler GCC version 9.2.1 20190827 (Red Hat 9.2.1-1)
REM options -cpp -mtune=generic -march=x86-64 -g -O0 -fpre-include=/usr/include/finclude/math-vector-fortran.h
REM seed -1067705554 -1358427295 -1315382694 1962135541 -841016263 -1210158187 1930166139 759867904 1945618094 -69111550 -201533879 713872919 -1760076699 1007270266 -671280461 647399139 519170605 -1464807252 -1803147612 589906162 1082823131 -370609233 -245180620 -243536888 1884727101 946315868 -18627805 -1200505907 -1290458522 147180207 1132134259 -30159332 -1826050281
REM
CELL 1.54180   50.00000   50.00000   50.00000   90.00000   90.00000   90.00000
LATT -1
SFAC C  
C      1  0.6092090000000  0.4629540000000  0.5218320000000 1.0
C      1  0.4454220000000  0.5221010000000  0.4273150000000 1.0
C      1  0.5598620000000  0.4834320000000  0.4328640000000 1.0
C      1  0.5156700000000  0.5804590000000  0.5840730000000 1.0
C      1  0.4734670000000  0.4255930000000  0.4886420000000 1.0
C      1  0.5212560000000  0.4523790000000  0.4132340000000 1.0
C      1  0.5490460000000  0.5324470000000  0.4158580000000 1.0
C      1  0.5627860000000  0.4417580000000  0.4349990000000 1.0
C      1  0.5116850000000  0.4512400000000  0.4733440000000 1.0
C      1  0.4364520000000  0.4578280000000  0.4126530000000 1.0
C      1  0.5924200000000  0.5406850000000  0.5315850000000 1.0
C      1  0.5808060000000  0.4287030000000  0.4812590000000 1.0
C      1  0.4529520000000  0.5671670000000  0.4335600000000 1.0
C      1  0.4075520000000  0.4501350000000  0.5219640000000 1.0
C      1  0.5008930000000  0.5082780000000  0.5256300000000 1.0
C      1  0.5059120000000  0.5988560000000  0.5651680000000 1.0
C      1  0.5836700000000  0.5444420000000  0.4599140000000 1.0
C      1  0.4841820000000  0.4131520000000  0.4627730000000 1.0
C      1  0.5033930000000  0.3902110000000  0.5327350000000 1.0
C      1  0.4260140000000  0.4703200000000  0.5563460000000 1.0
C      1  0.5853370000000  0.5173150000000  0.4484540000000 1.0
C      1  0.4076110000000  0.5051220000000  0.5198660000000 1.0
C      1  0.5584740000000  0.4110510000000  0.4906530000000 1.0
C      1  0.5102590000000  0.4464700000000  0.5151220000000 1.0
C      1  0.4814740000000  0.4566100000000  0.4778610000000 1.0
C      1  0.5381490000000  0.5565990000000  0.4781010000000 1.0
C      1  0.4567460000000  0.5592330000000  0.5738120000000 1.0
C      1  0.5936270000000  0.5114150000000  0.5320150000000 1.0
C      1  0.5115800000000  0.4231740000000  0.4587180000000 1.0
C      1  0.4350240000000  0.4573980000000  0.5296230000000 1.0
C      1  0.4604680000000  0.5500660000000  0.4882980000000 1.0
C      1  0.5772300000000  0.5117590000000  0.5861640000000 1.0
C      1  0.5885580000000  0.4556760000000  0.4956620000000 1.0
C      1  0.5329280000000  0.6021800000000  0.5146360000000 1.0
C      1  0.5021870000000  0.4658010000000  0.5931480000000 1.0
C      1  0.5219560000000  0.5460940000000  0.4573110000000 1.0
C      1  0.4485160000000  0.4971840000000  0.4801100000000 1.0
C      1  0.4485460000000  0.5660980000000  0.5067150000000 1.0
C      1  0.4470470000000  0.4620640000000  0.5753330000000 1.0
C      1  0.4383520000000  0.4563750000000  0.4456170000000 1.0
C      1  0.5114430000000  0.4003210000000  0.5030100000000 1.0
C      1  0.5008520000000  0.5872600000000  0.5360610000000 1.0
C      1  0.3938820000000  0.5996480000000  0.4468180000000 1.0
C      1  0.3841670000000  0.4582560000000  0.5173340000000 1.0
C      1  0.6021660000000  0.4813830000000  0.4856290000000 1.0
C      1  0.4671730000000  0.4643920000000  0.4537720000000 1.0
C      1  0.4650280000000  0.4391160000000  0.5720650000000 1.0
C      1  0.5794480000000  0.5413970000000  0.4885910000000 1.0
C      1  0.4778450000000  0.4839860000000  0.4094430000000 1.0
C      1  0.5148530000000  0.5185470000000  0.4592030000000 1.0
C      1  0.5749720000000  0.5816750000000  0.4980310000000 1.0
C      1  0.4526930000000  0.5071060000000  0.5231380000000 1.0
C      1  0.4431350000000  0.5551510000000  0.5347740000000 1.0
C      1  0.4707390000000  0.5190790000000  0.4056960000000 1.0
C      1  0.5250930000000  0.5214150000000  0.4024040000000 1.0
C      1  0.5671710000000  0.5660640000000  0.4485690000000 1.0
C      1  0.5670450000000  0.5115680000000  0.4263570000000 1.0
C      1  0.4326030000000  0.5505630000000  0.4371980000000 1.0
C      1  0.5216770000000  0.4735100000000  0.4586640000000 1.0
C      1  0.5067650000000  0.5589420000000  0.5299800000000 1.0
C      1  0.4265460000000  0.4308400000000  0.4773190000000 1.0
C      1  0.5919970000000  0.5588120000000  0.5072100000000 1.0
C      1  0.5170560000000  0.3997000000000  0.5574820000000 1.0
C      1  0.5302770000000  0.4060350000000  0.4819500000000 1.0
C      1  0.4642370000000  0.4563060000000  0.4072650000000 1.0
C      1  0.4339320000000  0.5096860000000  0.5011970000000 1.0
C      1  0.4595640000000  0.5948590000000  0.5068600000000 1.0
C      1  0.5573940000000  0.4920850000000  0.4858640000000 1.0
C      1  0.5634620000000  0.4503360000000  0.5565150000000 1.0
C      1  0.5101470000000  0.4950680000000  0.4437650000000 1.0
C      1  0.4898230000000  0.5345190000000  0.5375590000000 1.0
C      1  0.3981300000000  0.5311760000000  0.5056660000000 1.0
C      1  0.4894000000000  0.4838830000000  0.5420590000000 1.0
C      1  0.5481970000000  0.4822260000000  0.4594580000000 1.0
C      1  0.4217100000000  0.5072820000000  0.4171550000000 1.0
C      1  0.4414390000000  0.5089080000000  0.5637120000000 1.0
C      1  0.4972540000000  0.5298430000000  0.3972280000000 1.0
C      1  0.5108860000000  0.4622740000000  0.5396940000000 1.0
C      1  0.4941400000000  0.5309980000000  0.5658250000000 1.0
C      1  0.4446990000000  0.5758570000000  0.5544760000000 1.0
C      1  0.4830860000000  0.4907290000000  0.5923110000000 1.0
C      1  0.5117180000000  0.4199930000000  0.5772530000000 1.0
C      1  0.5195970000000  0.5649640000000  0.4342950000000 1.0
C      1  0.4640220000000  0.4803390000000  0.5250970000000 1.0
C      1  0.5239090000000  0.5486430000000  0.6045590000000 1.0
C      1  0.3988840000000  0.5308590000000  0.4760520000000 1.0
C      1  0.6082050000000  0.4910840000000  0.5153210000000 1.0
C      1  0.4979770000000  0.5017730000000  0.5693640000000 1.0
C      1  0.5563150000000  0.4636390000000  0.5814430000000 1.0
C      1  0.4447790000000  0.4231670000000  0.4988740000000 1.0
C      1  0.4384460000000  0.4264400000000  0.4507770000000 1.0
C      1  0.4538880000000  0.5986430000000  0.5346420000000 1.0
C      1  0.5353760000000  0.4476110000000  0.4998330000000 1.0
C      1  0.5649420000000  0.5333540000000  0.5719850000000 1.0
C      1  0.5586930000000  0.5931950000000  0.5203300000000 1.0
C      1  0.4594890000000  0.4192060000000  0.5503390000000 1.0
C      1  0.4576160000000  0.5103460000000  0.4552600000000 1.0
C      1  0.5435100000000  0.5120240000000  0.5031970000000 1.0
C      1  0.4564500000000  0.5292430000000  0.5421240000000 1.0
C      1  0.5263070000000  0.5029180000000  0.5815840000000 1.0
C      1  0.5349110000000  0.5544400000000  0.5260810000000 1.0
C      1  0.5718870000000  0.4309900000000  0.4562830000000 1.0
C      1  0.5335810000000  0.4793750000000  0.5352810000000 1.0
C      1  0.5312440000000  0.5060060000000  0.5281960000000 1.0
C      1  0.4793670000000  0.4012960000000  0.5420730000000 1.0
C      1  0.5053950000000  0.4748430000000  0.4016840000000 1.0
C      1  0.4998500000000  0.5860510000000  0.4410570000000 1.0
C      1  0.4944220000000  0.4229260000000  0.5093590000000 1.0
C      1  0.5605390000000  0.4719510000000  0.5343050000000 1.0
C      1  0.4775010000000  0.4881700000000  0.4406280000000 1.0
C      1  0.5607290000000  0.4663890000000  0.5034060000000 1.0
C      1  0.5246860000000  0.4268060000000  0.5535530000000 1.0
C      1  0.3970620000000  0.5026220000000  0.4333750000000 1.0
C      1  0.3897450000000  0.4833230000000  0.5055380000000 1.0
C      1  0.5523610000000  0.4271970000000  0.5438280000000 1.0
C      1  0.4977400000000  0.5231470000000  0.4812770000000 1.0
C      1  0.4648830000000  0.4168780000000  0.4417320000000 1.0
C      1  0.5066540000000  0.4321160000000  0.4283400000000 1.0
C      1  0.4723470000000  0.5398520000000  0.5848700000000 1.0
C      1  0.5485220000000  0.4243450000000  0.5149800000000 1.0
C      1  0.3999650000000  0.4791700000000  0.4776600000000 1.0
C      1  0.4158150000000  0.4570380000000  0.4683310000000 1.0
C      1  0.4196150000000  0.4977860000000  0.5497380000000 1.0
C      1  0.5579190000000  0.5771680000000  0.4740280000000 1.0
C      1  0.4926200000000  0.5019920000000  0.4994090000000 1.0
C      1  0.4785650000000  0.5712360000000  0.4242520000000 1.0
C      1  0.5058100000000  0.6062450000000  0.5136040000000 1.0
C      1  0.4791610000000  0.4323070000000  0.4211100000000 1.0
C      1  0.5754690000000  0.5528250000000  0.5517780000000 1.0
C      1  0.4922750000000  0.5946360000000  0.4664230000000 1.0
C      1  0.4110440000000  0.5530020000000  0.4580570000000 1.0
C      1  0.3960570000000  0.5043070000000  0.4630310000000 1.0
C      1  0.4020170000000  0.5771690000000  0.4523690000000 1.0
C      1  0.5475560000000  0.5395160000000  0.4998900000000 1.0
C      1  0.4548440000000  0.4892440000000  0.5810870000000 1.0
C      1  0.5220490000000  0.4950280000000  0.4134010000000 1.0
C      1  0.5478130000000  0.5595570000000  0.4274150000000 1.0
C      1  0.4914740000000  0.4401450000000  0.5844450000000 1.0
C      1  0.4417620000000  0.4280410000000  0.5272270000000 1.0
C      1  0.5850730000000  0.4984030000000  0.4709560000000 1.0
C      1  0.5294260000000  0.4737600000000  0.5893240000000 1.0
C      1  0.4721150000000  0.5344130000000  0.4703410000000 1.0
C      1  0.5725220000000  0.4969750000000  0.5481140000000 1.0
C      1  0.4714250000000  0.4829560000000  0.4958930000000 1.0
C      1  0.5504170000000  0.4590860000000  0.4177500000000 1.0
C      1  0.5548020000000  0.5701020000000  0.5400520000000 1.0
C      1  0.5768760000000  0.4847580000000  0.5777760000000 1.0
C      1  0.5172670000000  0.5215230000000  0.6067750000000 1.0
C      1  0.5164820000000  0.5533390000000  0.5798330000000 1.0
C      1  0.5462540000000  0.5141230000000  0.5592810000000 1.0
C      1  0.4827030000000  0.5436000000000  0.4128690000000 1.0
C      1  0.4848970000000  0.6029990000000  0.4911350000000 1.0
C      1  0.4855180000000  0.5207630000000  0.6081950000000 1.0
END
