TITL C-4164238-4211-669 64.4707104700014 125000 -28617.7490531485 0 0 191 (C1) n - 1
REM
REM in /home/nfs/bkarasulu/CARBON/AIRSS/Generating-Clusters/ReaxFF-fromJPCA2015/Units_Real/with-SteepDescent/Only-C1/SD-CG/Try1-3A/FIRE-CG
REM
REM
REM
REM
REM
REM ./C.cell (11c1c37f851c82e70ff6c80c92926a4b)
REM
REM compiler GCC version 9.2.1 20190827 (Red Hat 9.2.1-1)
REM options -cpp -mtune=generic -march=x86-64 -g -O0 -fpre-include=/usr/include/finclude/math-vector-fortran.h
REM seed 1484400686 -751077872 -87290760 -691641754 74123657 522588116 -1240537387 -677356523 -1733827205 584841507 2144277105 -90116816 -2092226437 -1207877258 1453307257 -1373891910 1950425621 -1237111195 773274251 -656848995 -2115547071 -1106875271 1542253439 545593025 -401103495 -2122516248 1916299272 -585900059 1320484648 -1464284793 1753324176 -1053612639 1507112013
REM
CELL 1.54180   50.00000   50.00000   50.00000   90.00000   90.00000   90.00000
LATT -1
SFAC C  
C      1  0.6117760000000  0.5182130000000  0.4987910000000 1.0
C      1  0.4538700000000  0.4608740000000  0.4750400000000 1.0
C      1  0.5568610000000  0.5908330000000  0.4869820000000 1.0
C      1  0.5330350000000  0.5218160000000  0.5996460000000 1.0
C      1  0.4795160000000  0.4578500000000  0.4617330000000 1.0
C      1  0.5459980000000  0.3922900000000  0.4596290000000 1.0
C      1  0.5016220000000  0.5119020000000  0.4387910000000 1.0
C      1  0.4098370000000  0.4216000000000  0.4775390000000 1.0
C      1  0.5333460000000  0.5658450000000  0.5752600000000 1.0
C      1  0.5528310000000  0.5045240000000  0.5658770000000 1.0
C      1  0.5467640000000  0.4474070000000  0.5221700000000 1.0
C      1  0.5555560000000  0.4277950000000  0.5712680000000 1.0
C      1  0.3947190000000  0.4960410000000  0.4969490000000 1.0
C      1  0.4573830000000  0.5790290000000  0.4420240000000 1.0
C      1  0.4695150000000  0.5360210000000  0.5542870000000 1.0
C      1  0.5005640000000  0.4882950000000  0.4892930000000 1.0
C      1  0.5399670000000  0.4784640000000  0.5711910000000 1.0
C      1  0.5052460000000  0.5190290000000  0.5870030000000 1.0
C      1  0.4238100000000  0.5889630000000  0.4697400000000 1.0
C      1  0.5125890000000  0.4048790000000  0.5224350000000 1.0
C      1  0.4519500000000  0.4100620000000  0.4518620000000 1.0
C      1  0.5848380000000  0.5043060000000  0.4567850000000 1.0
C      1  0.4250830000000  0.5662520000000  0.4202900000000 1.0
C      1  0.5424800000000  0.5505680000000  0.5051210000000 1.0
C      1  0.4327780000000  0.4605420000000  0.4166680000000 1.0
C      1  0.4292430000000  0.5215540000000  0.5715970000000 1.0
C      1  0.5495170000000  0.5640160000000  0.4587670000000 1.0
C      1  0.5760150000000  0.4489690000000  0.5723620000000 1.0
C      1  0.5384040000000  0.5806670000000  0.4241880000000 1.0
C      1  0.4417200000000  0.5242070000000  0.5121060000000 1.0
C      1  0.4686000000000  0.4694580000000  0.5291640000000 1.0
C      1  0.6022830000000  0.4880560000000  0.5367330000000 1.0
C      1  0.4695920000000  0.5561310000000  0.5340690000000 1.0
C      1  0.5205210000000  0.6069730000000  0.5294940000000 1.0
C      1  0.4696880000000  0.4990190000000  0.4391560000000 1.0
C      1  0.4746910000000  0.5378380000000  0.5827320000000 1.0
C      1  0.4331260000000  0.4305860000000  0.5546790000000 1.0
C      1  0.5809520000000  0.5827240000000  0.5067700000000 1.0
C      1  0.5567190000000  0.4403260000000  0.4576110000000 1.0
C      1  0.4946940000000  0.4142160000000  0.4329990000000 1.0
C      1  0.4280050000000  0.5869240000000  0.4398390000000 1.0
C      1  0.5104670000000  0.6110110000000  0.5040010000000 1.0
C      1  0.5746400000000  0.4291220000000  0.4790440000000 1.0
C      1  0.4258450000000  0.4648680000000  0.4672010000000 1.0
C      1  0.5076750000000  0.5848650000000  0.5430490000000 1.0
C      1  0.5585620000000  0.5349670000000  0.5928130000000 1.0
C      1  0.5062410000000  0.4710380000000  0.4664470000000 1.0
C      1  0.4522980000000  0.4638280000000  0.5054500000000 1.0
C      1  0.5427810000000  0.4958220000000  0.4466810000000 1.0
C      1  0.5982380000000  0.4587970000000  0.4386320000000 1.0
C      1  0.4476620000000  0.6063450000000  0.4734520000000 1.0
C      1  0.5658040000000  0.5154770000000  0.5269990000000 1.0
C      1  0.4191510000000  0.4113380000000  0.5023100000000 1.0
C      1  0.4750120000000  0.5137510000000  0.3946280000000 1.0
C      1  0.3953210000000  0.4798770000000  0.5419090000000 1.0
C      1  0.3897900000000  0.4649760000000  0.5001940000000 1.0
C      1  0.5643490000000  0.4236730000000  0.5227000000000 1.0
C      1  0.5430500000000  0.5223660000000  0.5449140000000 1.0
C      1  0.6045390000000  0.5232470000000  0.4689380000000 1.0
C      1  0.4623460000000  0.6034470000000  0.5237600000000 1.0
C      1  0.5871320000000  0.4943210000000  0.5938660000000 1.0
C      1  0.4131490000000  0.4308900000000  0.5289890000000 1.0
C      1  0.5625520000000  0.4080990000000  0.4943220000000 1.0
C      1  0.4843660000000  0.4517290000000  0.5924300000000 1.0
C      1  0.4567610000000  0.5488180000000  0.5088770000000 1.0
C      1  0.5181470000000  0.5132610000000  0.5303200000000 1.0
C      1  0.4255840000000  0.4383520000000  0.4317940000000 1.0
C      1  0.4594450000000  0.4875090000000  0.5487470000000 1.0
C      1  0.5882710000000  0.4597150000000  0.5456800000000 1.0
C      1  0.4162210000000  0.5430150000000  0.5546400000000 1.0
C      1  0.4178200000000  0.5656860000000  0.4866250000000 1.0
C      1  0.4785100000000  0.5065450000000  0.4892190000000 1.0
C      1  0.5113860000000  0.5263700000000  0.4629160000000 1.0
C      1  0.4017440000000  0.5435860000000  0.4446460000000 1.0
C      1  0.4434280000000  0.3957750000000  0.5000700000000 1.0
C      1  0.3942720000000  0.5057040000000  0.5258930000000 1.0
C      1  0.4972910000000  0.4291230000000  0.5123030000000 1.0
C      1  0.4716550000000  0.4208360000000  0.5232320000000 1.0
C      1  0.4944940000000  0.5347100000000  0.3988530000000 1.0
C      1  0.4224660000000  0.4874690000000  0.4228900000000 1.0
C      1  0.5753930000000  0.5607560000000  0.4422790000000 1.0
C      1  0.4601910000000  0.5067560000000  0.4657520000000 1.0
C      1  0.6001390000000  0.4792600000000  0.4611440000000 1.0
C      1  0.5282350000000  0.4492870000000  0.4745800000000 1.0
C      1  0.5935600000000  0.4450360000000  0.4965250000000 1.0
C      1  0.5159810000000  0.4875120000000  0.4437350000000 1.0
C      1  0.5945600000000  0.5146820000000  0.5438980000000 1.0
C      1  0.5021950000000  0.4102730000000  0.4627620000000 1.0
C      1  0.4583040000000  0.4641230000000  0.5877510000000 1.0
C      1  0.5113830000000  0.5396320000000  0.5132660000000 1.0
C      1  0.5003500000000  0.4379710000000  0.5717460000000 1.0
C      1  0.4902030000000  0.4891510000000  0.3885600000000 1.0
C      1  0.4147240000000  0.4744120000000  0.5635430000000 1.0
C      1  0.4725010000000  0.5561720000000  0.4847840000000 1.0
C      1  0.5820550000000  0.4665020000000  0.5941560000000 1.0
C      1  0.4252600000000  0.5676380000000  0.5401810000000 1.0
C      1  0.4983100000000  0.5713830000000  0.4350850000000 1.0
C      1  0.5692290000000  0.4854610000000  0.6132870000000 1.0
C      1  0.5952490000000  0.5594030000000  0.5117350000000 1.0
C      1  0.4289650000000  0.5133130000000  0.4121690000000 1.0
C      1  0.5604140000000  0.5631990000000  0.5859850000000 1.0
C      1  0.4233110000000  0.4176410000000  0.4506150000000 1.0
C      1  0.4705260000000  0.4698140000000  0.4396190000000 1.0
C      1  0.4864390000000  0.4617910000000  0.3975570000000 1.0
C      1  0.5124690000000  0.3881170000000  0.4991140000000 1.0
C      1  0.4230630000000  0.5094600000000  0.4954690000000 1.0
C      1  0.5574280000000  0.4842140000000  0.4948050000000 1.0
C      1  0.4275500000000  0.5458030000000  0.4653290000000 1.0
C      1  0.4909140000000  0.5803910000000  0.4859210000000 1.0
C      1  0.4133810000000  0.5590470000000  0.5152980000000 1.0
C      1  0.4989900000000  0.5904950000000  0.4586950000000 1.0
C      1  0.4679840000000  0.4231420000000  0.4312380000000 1.0
C      1  0.4545760000000  0.5561350000000  0.4599950000000 1.0
C      1  0.4613760000000  0.3956540000000  0.4765490000000 1.0
C      1  0.5690660000000  0.4562000000000  0.4337120000000 1.0
C      1  0.5706470000000  0.5829580000000  0.5348110000000 1.0
C      1  0.5613840000000  0.5290560000000  0.5023260000000 1.0
C      1  0.5356090000000  0.5883670000000  0.4519190000000 1.0
C      1  0.4621610000000  0.4925030000000  0.5963410000000 1.0
C      1  0.5419370000000  0.4969240000000  0.6133950000000 1.0
C      1  0.4480660000000  0.6166720000000  0.5024100000000 1.0
C      1  0.5783150000000  0.5145920000000  0.5762000000000 1.0
C      1  0.5125670000000  0.4812860000000  0.5611140000000 1.0
C      1  0.4964190000000  0.5342720000000  0.4867120000000 1.0
C      1  0.4336110000000  0.4956540000000  0.5576940000000 1.0
C      1  0.4966280000000  0.4600460000000  0.5263440000000 1.0
C      1  0.6110140000000  0.4907950000000  0.5089800000000 1.0
C      1  0.5339300000000  0.4718890000000  0.3991190000000 1.0
C      1  0.5454060000000  0.5699710000000  0.5267530000000 1.0
C      1  0.4706720000000  0.6013170000000  0.4554190000000 1.0
C      1  0.5896720000000  0.4396000000000  0.5240820000000 1.0
C      1  0.4645120000000  0.4527570000000  0.4182900000000 1.0
C      1  0.5599810000000  0.5100000000000  0.4807510000000 1.0
C      1  0.5576800000000  0.4117790000000  0.4429340000000 1.0
C      1  0.5451890000000  0.5544770000000  0.5504380000000 1.0
C      1  0.4511640000000  0.5186680000000  0.5897720000000 1.0
C      1  0.5247800000000  0.4221030000000  0.5719380000000 1.0
C      1  0.5376500000000  0.4634580000000  0.4997830000000 1.0
C      1  0.3888040000000  0.5225010000000  0.4552260000000 1.0
C      1  0.5371080000000  0.5161320000000  0.4647730000000 1.0
C      1  0.4866260000000  0.5861610000000  0.5858750000000 1.0
C      1  0.4896310000000  0.5613420000000  0.4089250000000 1.0
C      1  0.5184460000000  0.4951840000000  0.3922130000000 1.0
C      1  0.4335050000000  0.5123150000000  0.4696980000000 1.0
C      1  0.5483400000000  0.5285910000000  0.4155900000000 1.0
C      1  0.4033310000000  0.4504870000000  0.4789290000000 1.0
C      1  0.4023390000000  0.5331900000000  0.5311390000000 1.0
C      1  0.5040280000000  0.5070970000000  0.5552530000000 1.0
C      1  0.5565180000000  0.4090600000000  0.5491540000000 1.0
C      1  0.4662460000000  0.5099250000000  0.5150640000000 1.0
C      1  0.6053780000000  0.5348240000000  0.5209700000000 1.0
C      1  0.4155510000000  0.5396220000000  0.4182280000000 1.0
C      1  0.4907790000000  0.4978090000000  0.6016880000000 1.0
C      1  0.4758950000000  0.5108560000000  0.5431230000000 1.0
C      1  0.5119280000000  0.5809670000000  0.4114130000000 1.0
C      1  0.5634840000000  0.5045430000000  0.4264490000000 1.0
C      1  0.5142960000000  0.4842110000000  0.5134790000000 1.0
C      1  0.4854780000000  0.5992920000000  0.5053450000000 1.0
C      1  0.4899920000000  0.3894190000000  0.4792980000000 1.0
C      1  0.4569920000000  0.4162240000000  0.5470820000000 1.0
C      1  0.5566730000000  0.4672980000000  0.5402380000000 1.0
C      1  0.4611310000000  0.5856570000000  0.5735470000000 1.0
C      1  0.5412670000000  0.3890210000000  0.4870650000000 1.0
C      1  0.3904460000000  0.4552560000000  0.5269630000000 1.0
C      1  0.4588630000000  0.3975350000000  0.5251200000000 1.0
C      1  0.6057550000000  0.4700570000000  0.4885840000000 1.0
C      1  0.5361770000000  0.4106600000000  0.4248930000000 1.0
C      1  0.5192260000000  0.5204800000000  0.4092180000000 1.0
C      1  0.5026400000000  0.4711410000000  0.6053400000000 1.0
C      1  0.5390880000000  0.6042390000000  0.5070760000000 1.0
C      1  0.5607740000000  0.4884590000000  0.5212180000000 1.0
C      1  0.5559340000000  0.5556480000000  0.4202120000000 1.0
C      1  0.4699840000000  0.5652920000000  0.5907360000000 1.0
C      1  0.4347240000000  0.4537890000000  0.5716040000000 1.0
C      1  0.5049230000000  0.4327900000000  0.4809100000000 1.0
C      1  0.3882740000000  0.4987690000000  0.4660930000000 1.0
C      1  0.4304610000000  0.4504190000000  0.5170840000000 1.0
C      1  0.5715270000000  0.5655560000000  0.5591240000000 1.0
C      1  0.4985900000000  0.5610640000000  0.5290120000000 1.0
C      1  0.4150450000000  0.4889300000000  0.4536520000000 1.0
C      1  0.5148220000000  0.4230400000000  0.4121510000000 1.0
C      1  0.4559140000000  0.5091810000000  0.4146040000000 1.0
C      1  0.5584050000000  0.4764850000000  0.4148470000000 1.0
C      1  0.5452170000000  0.5668260000000  0.4832380000000 1.0
C      1  0.5315820000000  0.4728290000000  0.6014430000000 1.0
C      1  0.5934290000000  0.5444250000000  0.4554220000000 1.0
C      1  0.5125880000000  0.4509370000000  0.4004170000000 1.0
C      1  0.5117070000000  0.5846020000000  0.5721230000000 1.0
C      1  0.5034800000000  0.4580690000000  0.5528420000000 1.0
C      1  0.5276780000000  0.4043680000000  0.5485180000000 1.0
C      1  0.4515450000000  0.5830630000000  0.5453600000000 1.0
END
