TITL C-4164240-4114-651 10.4339503872138 125000 -24559.1407192615 0 0 161 (C1) n - 1
REM
REM in /home/nfs/bkarasulu/CARBON/AIRSS/Generating-Clusters/ReaxFF-fromJPCA2015/Units_Real/with-SteepDescent/Only-C1/SD-CG/Try1-3A/FIRE-CG
REM
REM
REM
REM
REM
REM ./C.cell (11c1c37f851c82e70ff6c80c92926a4b)
REM
REM compiler GCC version 9.2.1 20190827 (Red Hat 9.2.1-1)
REM options -cpp -mtune=generic -march=x86-64 -g -O0 -fpre-include=/usr/include/finclude/math-vector-fortran.h
REM seed -1401977461 -1077079437 931777580 -1960462619 -471954861 1563569804 1359025363 1859611173 -1234651431 845042523 -1601783044 -1039076944 513009592 -89822131 -232158483 815562442 474301841 1795806098 -2126966226 -183500341 -1906791377 -940174821 1412338392 -1553389155 -1349500494 1148826363 611389622 1897275993 -1779430328 1049046195 2144359265 -1322395981 -2019768838
REM
CELL 1.54180   50.00000   50.00000   50.00000   90.00000   90.00000   90.00000
LATT -1
SFAC C  
C      1  0.4416230000000  0.4272010000000  0.5036450000000 1.0
C      1  0.5093040000000  0.5577610000000  0.4033070000000 1.0
C      1  0.5879190000000  0.5049240000000  0.5516480000000 1.0
C      1  0.5358370000000  0.4556810000000  0.4620470000000 1.0
C      1  0.4793700000000  0.4347720000000  0.5722820000000 1.0
C      1  0.5492760000000  0.5896210000000  0.5141070000000 1.0
C      1  0.5418990000000  0.5084960000000  0.4621790000000 1.0
C      1  0.4618360000000  0.4973560000000  0.4145660000000 1.0
C      1  0.4612120000000  0.5005470000000  0.5206040000000 1.0
C      1  0.5276480000000  0.4471930000000  0.5135690000000 1.0
C      1  0.5297840000000  0.5195790000000  0.6008440000000 1.0
C      1  0.5970750000000  0.5049600000000  0.4779470000000 1.0
C      1  0.5969940000000  0.5486700000000  0.5269310000000 1.0
C      1  0.4361500000000  0.4294680000000  0.5511790000000 1.0
C      1  0.5397300000000  0.4870610000000  0.5763840000000 1.0
C      1  0.4513010000000  0.4446440000000  0.5708910000000 1.0
C      1  0.4990970000000  0.5808700000000  0.4892320000000 1.0
C      1  0.5134580000000  0.4827620000000  0.3943480000000 1.0
C      1  0.5694060000000  0.4833910000000  0.5832560000000 1.0
C      1  0.4962770000000  0.5414990000000  0.5137720000000 1.0
C      1  0.5466160000000  0.4166870000000  0.5456880000000 1.0
C      1  0.5894880000000  0.4456570000000  0.4337590000000 1.0
C      1  0.4668810000000  0.4692640000000  0.4815310000000 1.0
C      1  0.4764160000000  0.5926120000000  0.4152280000000 1.0
C      1  0.4249160000000  0.5215260000000  0.4997430000000 1.0
C      1  0.4440570000000  0.5580240000000  0.5955080000000 1.0
C      1  0.5973570000000  0.4913070000000  0.4523850000000 1.0
C      1  0.5683710000000  0.5812160000000  0.4632600000000 1.0
C      1  0.4990590000000  0.4738090000000  0.6023770000000 1.0
C      1  0.4916020000000  0.4138420000000  0.5535790000000 1.0
C      1  0.4996470000000  0.4911810000000  0.4405490000000 1.0
C      1  0.4574540000000  0.4947770000000  0.4703140000000 1.0
C      1  0.5464430000000  0.5584590000000  0.5782250000000 1.0
C      1  0.5714670000000  0.4605090000000  0.5646290000000 1.0
C      1  0.5679560000000  0.4556580000000  0.4160500000000 1.0
C      1  0.4884470000000  0.5907380000000  0.5357950000000 1.0
C      1  0.5702500000000  0.5544220000000  0.5396450000000 1.0
C      1  0.4637270000000  0.5421440000000  0.4005560000000 1.0
C      1  0.4482830000000  0.4794130000000  0.6053570000000 1.0
C      1  0.5246410000000  0.4910140000000  0.6018740000000 1.0
C      1  0.5419170000000  0.5308150000000  0.4832060000000 1.0
C      1  0.5613000000000  0.5747030000000  0.5583930000000 1.0
C      1  0.4336280000000  0.4545170000000  0.5134320000000 1.0
C      1  0.4854750000000  0.5563240000000  0.4929090000000 1.0
C      1  0.4787540000000  0.4323460000000  0.4280230000000 1.0
C      1  0.5024300000000  0.5083250000000  0.3858770000000 1.0
C      1  0.4037650000000  0.5337310000000  0.5796830000000 1.0
C      1  0.5193270000000  0.5516340000000  0.5292130000000 1.0
C      1  0.5457210000000  0.4276360000000  0.4609410000000 1.0
C      1  0.5390410000000  0.4044040000000  0.4731910000000 1.0
C      1  0.4168730000000  0.5578630000000  0.4740720000000 1.0
C      1  0.4164570000000  0.5534680000000  0.5928850000000 1.0
C      1  0.5879960000000  0.5711880000000  0.4803390000000 1.0
C      1  0.4634040000000  0.6095060000000  0.4976570000000 1.0
C      1  0.4826290000000  0.4932640000000  0.5595480000000 1.0
C      1  0.4647940000000  0.5820210000000  0.5481930000000 1.0
C      1  0.5156940000000  0.5779010000000  0.5451370000000 1.0
C      1  0.4499680000000  0.4143090000000  0.5303050000000 1.0
C      1  0.4207190000000  0.5249510000000  0.4319540000000 1.0
C      1  0.5008800000000  0.4503290000000  0.5827660000000 1.0
C      1  0.4772720000000  0.4077470000000  0.5272700000000 1.0
C      1  0.5031800000000  0.4421440000000  0.4937950000000 1.0
C      1  0.5040100000000  0.4293190000000  0.4409560000000 1.0
C      1  0.5048020000000  0.4931600000000  0.5041630000000 1.0
C      1  0.6045750000000  0.4466210000000  0.4783690000000 1.0
C      1  0.4663030000000  0.4692550000000  0.4155550000000 1.0
C      1  0.5219710000000  0.4520450000000  0.5622000000000 1.0
C      1  0.5962000000000  0.5604970000000  0.5013340000000 1.0
C      1  0.5763960000000  0.4264470000000  0.5017640000000 1.0
C      1  0.5496040000000  0.4212750000000  0.5151650000000 1.0
C      1  0.5081810000000  0.3989040000000  0.4991160000000 1.0
C      1  0.4154000000000  0.5494250000000  0.5025040000000 1.0
C      1  0.5409620000000  0.4938240000000  0.3957960000000 1.0
C      1  0.4180460000000  0.4855570000000  0.5630260000000 1.0
C      1  0.4447400000000  0.4563670000000  0.4307260000000 1.0
C      1  0.4878110000000  0.5996380000000  0.5081400000000 1.0
C      1  0.5326030000000  0.4957800000000  0.5196000000000 1.0
C      1  0.5052100000000  0.5865340000000  0.4623700000000 1.0
C      1  0.4482470000000  0.5321020000000  0.6034770000000 1.0
C      1  0.4660610000000  0.5123190000000  0.5480980000000 1.0
C      1  0.5739850000000  0.5118190000000  0.5770930000000 1.0
C      1  0.5297650000000  0.5205680000000  0.3883860000000 1.0
C      1  0.3977060000000  0.4820050000000  0.5118760000000 1.0
C      1  0.4209380000000  0.4694310000000  0.4433630000000 1.0
C      1  0.4666460000000  0.5609110000000  0.5719060000000 1.0
C      1  0.4587250000000  0.4415640000000  0.4841270000000 1.0
C      1  0.5059320000000  0.5363940000000  0.4481510000000 1.0
C      1  0.5827760000000  0.4207860000000  0.4469400000000 1.0
C      1  0.4864240000000  0.5134660000000  0.5103670000000 1.0
C      1  0.5846340000000  0.5054960000000  0.5052260000000 1.0
C      1  0.5778020000000  0.4739500000000  0.5144980000000 1.0
C      1  0.5331540000000  0.4927580000000  0.5492500000000 1.0
C      1  0.5214440000000  0.5632210000000  0.4546930000000 1.0
C      1  0.3982710000000  0.5105890000000  0.4652640000000 1.0
C      1  0.4956840000000  0.5528040000000  0.5824520000000 1.0
C      1  0.5098360000000  0.4449920000000  0.4654650000000 1.0
C      1  0.5186890000000  0.5669850000000  0.5742260000000 1.0
C      1  0.5527320000000  0.5203790000000  0.5079900000000 1.0
C      1  0.4857590000000  0.5014980000000  0.5883910000000 1.0
C      1  0.4604750000000  0.4720500000000  0.5233260000000 1.0
C      1  0.4602270000000  0.5078110000000  0.6058660000000 1.0
C      1  0.5465620000000  0.4715040000000  0.5033900000000 1.0
C      1  0.4584710000000  0.4181530000000  0.4679810000000 1.0
C      1  0.4480030000000  0.5184120000000  0.4823780000000 1.0
C      1  0.4274430000000  0.5366420000000  0.5469470000000 1.0
C      1  0.4075670000000  0.4549640000000  0.4659210000000 1.0
C      1  0.5912360000000  0.4509060000000  0.5044320000000 1.0
C      1  0.4789190000000  0.5327500000000  0.4515630000000 1.0
C      1  0.4404130000000  0.5830020000000  0.5320130000000 1.0
C      1  0.4066760000000  0.5370420000000  0.4555800000000 1.0
C      1  0.5977050000000  0.5195520000000  0.5286250000000 1.0
C      1  0.5552230000000  0.5464130000000  0.4262890000000 1.0
C      1  0.5195290000000  0.4117250000000  0.5510990000000 1.0
C      1  0.4432970000000  0.5686480000000  0.4703510000000 1.0
C      1  0.4450590000000  0.5948670000000  0.4817200000000 1.0
C      1  0.5176240000000  0.4434530000000  0.4192430000000 1.0
C      1  0.4914670000000  0.4697440000000  0.4954230000000 1.0
C      1  0.4852030000000  0.4141710000000  0.4988110000000 1.0
C      1  0.4054620000000  0.4728720000000  0.5403450000000 1.0
C      1  0.4378250000000  0.4697440000000  0.5789740000000 1.0
C      1  0.5362150000000  0.3971690000000  0.4998660000000 1.0
C      1  0.4168390000000  0.4465920000000  0.5373160000000 1.0
C      1  0.4880630000000  0.5983560000000  0.4420680000000 1.0
C      1  0.4840550000000  0.4701430000000  0.5402700000000 1.0
C      1  0.5444720000000  0.5917090000000  0.5406860000000 1.0
C      1  0.4127140000000  0.4969180000000  0.4435740000000 1.0
C      1  0.5516380000000  0.5687750000000  0.4435240000000 1.0
C      1  0.5532290000000  0.5308320000000  0.5860780000000 1.0
C      1  0.5618670000000  0.5216820000000  0.4401940000000 1.0
C      1  0.4746350000000  0.5152140000000  0.3953180000000 1.0
C      1  0.4837120000000  0.5662510000000  0.4025950000000 1.0
C      1  0.5313580000000  0.5574360000000  0.4814510000000 1.0
C      1  0.4550880000000  0.5378470000000  0.5565420000000 1.0
C      1  0.4227130000000  0.5597170000000  0.5286530000000 1.0
C      1  0.5819130000000  0.4769340000000  0.5436050000000 1.0
C      1  0.5447780000000  0.4789390000000  0.4752520000000 1.0
C      1  0.4000860000000  0.5058750000000  0.4949760000000 1.0
C      1  0.5645570000000  0.4841090000000  0.4107850000000 1.0
C      1  0.4106630000000  0.5147080000000  0.5608480000000 1.0
C      1  0.4399350000000  0.6016080000000  0.5093990000000 1.0
C      1  0.5554850000000  0.4165590000000  0.4382490000000 1.0
C      1  0.4740350000000  0.5045900000000  0.4448260000000 1.0
C      1  0.5104660000000  0.4549580000000  0.5365710000000 1.0
C      1  0.4717270000000  0.4687500000000  0.6185260000000 1.0
C      1  0.5170810000000  0.5111330000000  0.4473670000000 1.0
C      1  0.4420960000000  0.5346970000000  0.4162460000000 1.0
C      1  0.5485670000000  0.5817730000000  0.4874250000000 1.0
C      1  0.5003620000000  0.4704380000000  0.4189510000000 1.0
C      1  0.5460670000000  0.5416910000000  0.5279860000000 1.0
C      1  0.4644180000000  0.5458760000000  0.4739190000000 1.0
C      1  0.4539920000000  0.4288770000000  0.4393800000000 1.0
C      1  0.4124140000000  0.4654660000000  0.4940420000000 1.0
C      1  0.4316800000000  0.4101330000000  0.4783270000000 1.0
C      1  0.5026070000000  0.5271120000000  0.5932470000000 1.0
C      1  0.6025990000000  0.4622590000000  0.4535380000000 1.0
C      1  0.5496220000000  0.4404270000000  0.5627610000000 1.0
C      1  0.4137710000000  0.4277340000000  0.4685870000000 1.0
C      1  0.5457020000000  0.4371970000000  0.4188520000000 1.0
C      1  0.5899380000000  0.4212650000000  0.4754070000000 1.0
C      1  0.5340050000000  0.5459700000000  0.4031120000000 1.0
C      1  0.5789290000000  0.5013370000000  0.4298030000000 1.0
END
