TITL C-4164236-1577-399 -0.688415532297191 125000 -6749.2681771897 0 0 47 (C1) n - 1
REM
REM in /home/nfs/bkarasulu/CARBON/AIRSS/Generating-Clusters/ReaxFF-fromJPCA2015/Units_Real/with-SteepDescent/Only-C1/SD-CG/Try1-3A/FIRE-CG
REM
REM
REM
REM
REM
REM ./C.cell (11c1c37f851c82e70ff6c80c92926a4b)
REM
REM compiler GCC version 9.2.1 20190827 (Red Hat 9.2.1-1)
REM options -cpp -mtune=generic -march=x86-64 -g -O0 -fpre-include=/usr/include/finclude/math-vector-fortran.h
REM seed -1518119271 -1651721278 -1246957326 999218854 -1769210557 1775446379 2064688048 -1274637985 -732456279 -1304513258 1049257533 1431189223 -39082885 -315552959 1497030083 820050389 441778212 -1415975766 1744487445 -1103512164 -2069029464 792527826 -1620657397 1141811961 2084668011 682261941 -218011108 1078343368 -1706531578 828648198 -1972916475 555462889 -14103592
REM
CELL 1.54180   50.00000   50.00000   50.00000   90.00000   90.00000   90.00000
LATT -1
SFAC C  
C      1  0.5022020000000  0.4947350000000  0.5113680000000 1.0
C      1  0.5235470000000  0.5184540000000  0.4704140000000 1.0
C      1  0.4763630000000  0.5320120000000  0.4823590000000 1.0
C      1  0.5433380000000  0.4382480000000  0.5000300000000 1.0
C      1  0.5361360000000  0.4472160000000  0.5273170000000 1.0
C      1  0.4888280000000  0.4452850000000  0.5178930000000 1.0
C      1  0.4896810000000  0.5817810000000  0.4954760000000 1.0
C      1  0.4725300000000  0.4725190000000  0.4787330000000 1.0
C      1  0.4719250000000  0.4796970000000  0.5555210000000 1.0
C      1  0.5633960000000  0.4889560000000  0.5201620000000 1.0
C      1  0.5437320000000  0.4735280000000  0.5345580000000 1.0
C      1  0.5087040000000  0.4495210000000  0.5395020000000 1.0
C      1  0.5210410000000  0.5438790000000  0.5414060000000 1.0
C      1  0.4280510000000  0.4800740000000  0.4351170000000 1.0
C      1  0.5076800000000  0.5731150000000  0.4728340000000 1.0
C      1  0.5295850000000  0.4740710000000  0.4665030000000 1.0
C      1  0.4374550000000  0.4832800000000  0.5127350000000 1.0
C      1  0.4350290000000  0.5114390000000  0.5265380000000 1.0
C      1  0.5340640000000  0.5195510000000  0.5429940000000 1.0
C      1  0.4902690000000  0.4210670000000  0.5030110000000 1.0
C      1  0.5307630000000  0.5513840000000  0.4348990000000 1.0
C      1  0.4943830000000  0.5521340000000  0.5350530000000 1.0
C      1  0.5127370000000  0.5416320000000  0.5159240000000 1.0
C      1  0.4619210000000  0.5002280000000  0.4434010000000 1.0
C      1  0.4838230000000  0.4846260000000  0.4546160000000 1.0
C      1  0.4676070000000  0.5279070000000  0.4549180000000 1.0
C      1  0.5611280000000  0.4864690000000  0.4906910000000 1.0
C      1  0.4486030000000  0.4733030000000  0.5381370000000 1.0
C      1  0.5127950000000  0.4924670000000  0.4559550000000 1.0
C      1  0.5492460000000  0.4611430000000  0.4806680000000 1.0
C      1  0.4449090000000  0.4772030000000  0.4855440000000 1.0
C      1  0.4760320000000  0.5665490000000  0.5175010000000 1.0
C      1  0.4511650000000  0.5336460000000  0.5221660000000 1.0
C      1  0.5278440000000  0.4167330000000  0.4905240000000 1.0
C      1  0.5155450000000  0.5915780000000  0.4905140000000 1.0
C      1  0.4897490000000  0.4712800000000  0.5028920000000 1.0
C      1  0.5051420000000  0.4056590000000  0.4899200000000 1.0
C      1  0.5626770000000  0.5320020000000  0.5015730000000 1.0
C      1  0.4361670000000  0.4899010000000  0.4582070000000 1.0
C      1  0.5588910000000  0.5170530000000  0.5277600000000 1.0
C      1  0.5206920000000  0.5473110000000  0.4574820000000 1.0
C      1  0.4518710000000  0.5010760000000  0.5488110000000 1.0
C      1  0.5001070000000  0.4740220000000  0.5528190000000 1.0
C      1  0.5028570000000  0.5203930000000  0.4960950000000 1.0
C      1  0.4592000000000  0.5491250000000  0.5007550000000 1.0
C      1  0.5186920000000  0.4935760000000  0.5375380000000 1.0
C      1  0.5518990000000  0.5131750000000  0.4811700000000 1.0
END
