TITL C-4164243-3780-407 78.7725459285866 125000 -18495.1558339165 0 0 125 (C1) n - 1
REM
REM in /home/nfs/bkarasulu/CARBON/AIRSS/Generating-Clusters/ReaxFF-fromJPCA2015/Units_Real/with-SteepDescent/Only-C1/SD-CG/Try1-3A/FIRE-CG
REM
REM
REM
REM
REM
REM ./C.cell (11c1c37f851c82e70ff6c80c92926a4b)
REM
REM compiler GCC version 9.2.1 20190827 (Red Hat 9.2.1-1)
REM options -cpp -mtune=generic -march=x86-64 -g -O0 -fpre-include=/usr/include/finclude/math-vector-fortran.h
REM seed 1544345214 -57145112 -863396570 -1215102591 -22414496 2130060656 -1608037309 -2027850980 -1532734575 -1826949559 -1386220180 464654234 -1395803444 -409947490 -537313508 -205054586 149711786 -2091903961 1145027594 -2023702056 -1158522792 2097645117 -1989142054 777940081 157728531 -1983589068 -1932557292 -1655118403 90087045 -1746839713 1102687381 1856789773 1882222859
REM
CELL 1.54180   50.00000   50.00000   50.00000   90.00000   90.00000   90.00000
LATT -1
SFAC C  
C      1  0.5371270000000  0.4722690000000  0.5121890000000 1.0
C      1  0.5119790000000  0.4678250000000  0.5267010000000 1.0
C      1  0.5545270000000  0.5901290000000  0.5133700000000 1.0
C      1  0.5000480000000  0.4047420000000  0.4220270000000 1.0
C      1  0.4737420000000  0.4015870000000  0.4525250000000 1.0
C      1  0.4315960000000  0.4305610000000  0.5173080000000 1.0
C      1  0.5603170000000  0.5496580000000  0.5427170000000 1.0
C      1  0.4525290000000  0.4154060000000  0.5341320000000 1.0
C      1  0.5988170000000  0.4992160000000  0.4955210000000 1.0
C      1  0.4547950000000  0.4897700000000  0.5894320000000 1.0
C      1  0.5339960000000  0.5551940000000  0.4915110000000 1.0
C      1  0.5902980000000  0.5084150000000  0.4679940000000 1.0
C      1  0.5374530000000  0.4470760000000  0.4948300000000 1.0
C      1  0.5387320000000  0.5846970000000  0.4887480000000 1.0
C      1  0.5610590000000  0.5430020000000  0.4918040000000 1.0
C      1  0.5477390000000  0.4659550000000  0.4183830000000 1.0
C      1  0.5828460000000  0.4860760000000  0.4498780000000 1.0
C      1  0.4464510000000  0.4810140000000  0.4679890000000 1.0
C      1  0.4921940000000  0.4478620000000  0.5206960000000 1.0
C      1  0.4886660000000  0.4460920000000  0.5840580000000 1.0
C      1  0.4190430000000  0.5309440000000  0.5315610000000 1.0
C      1  0.4501680000000  0.4274660000000  0.5603420000000 1.0
C      1  0.5077140000000  0.5627760000000  0.4089930000000 1.0
C      1  0.4756990000000  0.4575650000000  0.4982400000000 1.0
C      1  0.5579550000000  0.4462640000000  0.4728020000000 1.0
C      1  0.4591210000000  0.5182580000000  0.5873160000000 1.0
C      1  0.5452810000000  0.5168440000000  0.3967840000000 1.0
C      1  0.5505640000000  0.5374310000000  0.4175340000000 1.0
C      1  0.5333600000000  0.4964950000000  0.5640630000000 1.0
C      1  0.4995680000000  0.4902660000000  0.5363500000000 1.0
C      1  0.4800830000000  0.4734580000000  0.5925560000000 1.0
C      1  0.5197080000000  0.5832730000000  0.5473890000000 1.0
C      1  0.5082530000000  0.4798260000000  0.5998610000000 1.0
C      1  0.5338190000000  0.5614760000000  0.4181250000000 1.0
C      1  0.4789590000000  0.5851540000000  0.5210660000000 1.0
C      1  0.4902970000000  0.4878240000000  0.4494170000000 1.0
C      1  0.5029250000000  0.5987680000000  0.5291320000000 1.0
C      1  0.5469990000000  0.5759370000000  0.5388050000000 1.0
C      1  0.4337290000000  0.5203180000000  0.5511460000000 1.0
C      1  0.4548110000000  0.4170150000000  0.4584970000000 1.0
C      1  0.4197580000000  0.4525670000000  0.5325460000000 1.0
C      1  0.5083740000000  0.6166110000000  0.5056900000000 1.0
C      1  0.5271930000000  0.5198400000000  0.5200940000000 1.0
C      1  0.5241000000000  0.4480150000000  0.4169110000000 1.0
C      1  0.3982950000000  0.4927250000000  0.4786870000000 1.0
C      1  0.4315100000000  0.4440900000000  0.4922020000000 1.0
C      1  0.4819790000000  0.4117450000000  0.5390040000000 1.0
C      1  0.5305710000000  0.4236140000000  0.5112880000000 1.0
C      1  0.4781480000000  0.4239020000000  0.5665890000000 1.0
C      1  0.4415030000000  0.4618590000000  0.4482360000000 1.0
C      1  0.4613910000000  0.5730570000000  0.5395490000000 1.0
C      1  0.4051290000000  0.5114900000000  0.4895320000000 1.0
C      1  0.4283230000000  0.5616440000000  0.4846970000000 1.0
C      1  0.5718430000000  0.5315190000000  0.4668050000000 1.0
C      1  0.5890430000000  0.5139860000000  0.5195430000000 1.0
C      1  0.5723650000000  0.5379450000000  0.5184090000000 1.0
C      1  0.4851370000000  0.5322200000000  0.5027490000000 1.0
C      1  0.4644560000000  0.5422870000000  0.5805340000000 1.0
C      1  0.5628610000000  0.4714010000000  0.5368160000000 1.0
C      1  0.5133020000000  0.5421840000000  0.5077410000000 1.0
C      1  0.5822910000000  0.4958700000000  0.5412070000000 1.0
C      1  0.5142140000000  0.4434230000000  0.4443560000000 1.0
C      1  0.4960510000000  0.5092220000000  0.4087340000000 1.0
C      1  0.4477450000000  0.5542890000000  0.4639130000000 1.0
C      1  0.5271360000000  0.5097410000000  0.4736820000000 1.0
C      1  0.4171130000000  0.4958100000000  0.5539950000000 1.0
C      1  0.3941990000000  0.4912430000000  0.5075060000000 1.0
C      1  0.4707280000000  0.5880610000000  0.4903710000000 1.0
C      1  0.4653870000000  0.4965340000000  0.4139220000000 1.0
C      1  0.4452810000000  0.5403510000000  0.4362250000000 1.0
C      1  0.4627950000000  0.4758400000000  0.5397210000000 1.0
C      1  0.4085470000000  0.4790460000000  0.5304990000000 1.0
C      1  0.5896830000000  0.4735560000000  0.4965900000000 1.0
C      1  0.5051600000000  0.5285070000000  0.4664250000000 1.0
C      1  0.5374100000000  0.5004250000000  0.4471410000000 1.0
C      1  0.5204840000000  0.4170460000000  0.4572960000000 1.0
C      1  0.5206600000000  0.5027620000000  0.3917940000000 1.0
C      1  0.5788230000000  0.5124010000000  0.5655620000000 1.0
C      1  0.5444930000000  0.4867920000000  0.3982260000000 1.0
C      1  0.5341980000000  0.5003940000000  0.5000270000000 1.0
C      1  0.4548090000000  0.4703960000000  0.4221480000000 1.0
C      1  0.5804400000000  0.4487310000000  0.4976180000000 1.0
C      1  0.5494580000000  0.4182570000000  0.4640370000000 1.0
C      1  0.5556820000000  0.5250300000000  0.4431470000000 1.0
C      1  0.4497810000000  0.5114830000000  0.4334000000000 1.0
C      1  0.4806100000000  0.5198780000000  0.4789270000000 1.0
C      1  0.4657920000000  0.5458060000000  0.4185790000000 1.0
C      1  0.4396890000000  0.5843760000000  0.4976980000000 1.0
C      1  0.5410120000000  0.4481920000000  0.5765590000000 1.0
C      1  0.5025640000000  0.4203770000000  0.5193710000000 1.0
C      1  0.5596970000000  0.5351470000000  0.5684950000000 1.0
C      1  0.5485140000000  0.4739550000000  0.5631910000000 1.0
C      1  0.4325290000000  0.4800980000000  0.5732730000000 1.0
C      1  0.5198350000000  0.5475110000000  0.5776110000000 1.0
C      1  0.5726380000000  0.4447640000000  0.5261010000000 1.0
C      1  0.4653230000000  0.5171430000000  0.5172520000000 1.0
C      1  0.5161020000000  0.5092750000000  0.5457560000000 1.0
C      1  0.4886260000000  0.5409680000000  0.4052870000000 1.0
C      1  0.5472370000000  0.4309300000000  0.5560030000000 1.0
C      1  0.5124250000000  0.4239860000000  0.4087150000000 1.0
C      1  0.5005530000000  0.3953240000000  0.4483810000000 1.0
C      1  0.4360800000000  0.4366360000000  0.4640520000000 1.0
C      1  0.5577050000000  0.4707830000000  0.4464220000000 1.0
C      1  0.4408230000000  0.4576660000000  0.5549170000000 1.0
C      1  0.4459700000000  0.4717600000000  0.4946630000000 1.0
C      1  0.4178970000000  0.5518840000000  0.5138790000000 1.0
C      1  0.4642220000000  0.5205210000000  0.5462600000000 1.0
C      1  0.5158570000000  0.4520090000000  0.5933610000000 1.0
C      1  0.5358360000000  0.5285820000000  0.5876890000000 1.0
C      1  0.4349690000000  0.5741230000000  0.5245470000000 1.0
C      1  0.5093970000000  0.5009450000000  0.4341280000000 1.0
C      1  0.4926860000000  0.4617920000000  0.4819530000000 1.0
C      1  0.4991570000000  0.5558810000000  0.4579090000000 1.0
C      1  0.5290220000000  0.4987800000000  0.5898600000000 1.0
C      1  0.4735760000000  0.5641680000000  0.5648960000000 1.0
C      1  0.4734470000000  0.5656640000000  0.4686620000000 1.0
C      1  0.5538870000000  0.4218360000000  0.5308440000000 1.0
C      1  0.5085270000000  0.4681970000000  0.4605540000000 1.0
C      1  0.4789090000000  0.4955780000000  0.5533720000000 1.0
C      1  0.5129470000000  0.5691930000000  0.4356850000000 1.0
C      1  0.5194640000000  0.6060940000000  0.4806390000000 1.0
C      1  0.4647560000000  0.5012410000000  0.4606320000000 1.0
C      1  0.4909020000000  0.6101740000000  0.4837820000000 1.0
C      1  0.5039990000000  0.5672450000000  0.5667590000000 1.0
C      1  0.4560040000000  0.4897060000000  0.5163800000000 1.0
END
