TITL C-4164232-771-461 -2.35152210194468 125000 -13293.5985262325 0 0 90 (C1) n - 1
REM
REM in /home/nfs/bkarasulu/CARBON/AIRSS/Generating-Clusters/ReaxFF-fromJPCA2015/Units_Real/with-SteepDescent/Only-C1/SD-CG/Try1-3A/FIRE-CG
REM
REM
REM
REM
REM
REM ./C.cell (11c1c37f851c82e70ff6c80c92926a4b)
REM
REM compiler GCC version 9.2.1 20190827 (Red Hat 9.2.1-1)
REM options -cpp -mtune=generic -march=x86-64 -g -O0 -fpre-include=/usr/include/finclude/math-vector-fortran.h
REM seed -249375796 -356199460 1466197181 1369440434 -90690116 1508734659 -1300392381 -188008175 1326086906 -862097415 -1684582700 1108750383 -438454724 1459008661 -585180156 1294995561 1905687302 -222734944 -1954864351 1505582585 1487896179 -826632462 64095337 1945501214 1758557640 -1015703248 958140676 -1355174061 207507807 292515238 890715770 1847332545 984311274
REM
CELL 1.54180   50.00000   50.00000   50.00000   90.00000   90.00000   90.00000
LATT -1
SFAC C  
C      1  0.5090720000000  0.5921370000000  0.5000050000000 1.0
C      1  0.5480240000000  0.5444580000000  0.5356320000000 1.0
C      1  0.4820730000000  0.5805990000000  0.4990380000000 1.0
C      1  0.5520990000000  0.4647330000000  0.5392160000000 1.0
C      1  0.5223750000000  0.4352930000000  0.5608610000000 1.0
C      1  0.5675600000000  0.5477310000000  0.4898400000000 1.0
C      1  0.5303170000000  0.5322900000000  0.5764060000000 1.0
C      1  0.4599880000000  0.5169900000000  0.4815300000000 1.0
C      1  0.5287260000000  0.5532020000000  0.5562550000000 1.0
C      1  0.4834610000000  0.4626460000000  0.5816960000000 1.0
C      1  0.5403380000000  0.4583720000000  0.5654030000000 1.0
C      1  0.4663420000000  0.4898410000000  0.4829230000000 1.0
C      1  0.5300930000000  0.4846630000000  0.5725250000000 1.0
C      1  0.5300840000000  0.5917330000000  0.4798040000000 1.0
C      1  0.5266650000000  0.5080830000000  0.5065880000000 1.0
C      1  0.5275390000000  0.5265360000000  0.4833530000000 1.0
C      1  0.4582530000000  0.5069340000000  0.5737360000000 1.0
C      1  0.5561070000000  0.5227390000000  0.4489430000000 1.0
C      1  0.4162550000000  0.5104020000000  0.4670420000000 1.0
C      1  0.4985020000000  0.5549720000000  0.5602900000000 1.0
C      1  0.5773810000000  0.5093710000000  0.4666000000000 1.0
C      1  0.4429250000000  0.4719800000000  0.4787740000000 1.0
C      1  0.4666320000000  0.5672190000000  0.5199070000000 1.0
C      1  0.5201570000000  0.5389690000000  0.4193810000000 1.0
C      1  0.4841890000000  0.5106690000000  0.4328160000000 1.0
C      1  0.4303880000000  0.4912950000000  0.5383470000000 1.0
C      1  0.4436890000000  0.5569950000000  0.5032570000000 1.0
C      1  0.4397240000000  0.5169380000000  0.5307820000000 1.0
C      1  0.4744420000000  0.4851430000000  0.5281050000000 1.0
C      1  0.4998790000000  0.4889230000000  0.5733860000000 1.0
C      1  0.5535670000000  0.5608820000000  0.5122900000000 1.0
C      1  0.5012250000000  0.5137640000000  0.5193590000000 1.0
C      1  0.4740480000000  0.4615400000000  0.5268640000000 1.0
C      1  0.4618150000000  0.5253280000000  0.5495950000000 1.0
C      1  0.5742780000000  0.4764840000000  0.5054010000000 1.0
C      1  0.5250690000000  0.4626070000000  0.5267520000000 1.0
C      1  0.4837260000000  0.4933490000000  0.5055990000000 1.0
C      1  0.4433720000000  0.5588060000000  0.4741650000000 1.0
C      1  0.4159310000000  0.4795420000000  0.5146540000000 1.0
C      1  0.5378760000000  0.5851220000000  0.5068150000000 1.0
C      1  0.4747170000000  0.5530810000000  0.5439770000000 1.0
C      1  0.5052250000000  0.4373290000000  0.4748670000000 1.0
C      1  0.5333360000000  0.4239970000000  0.4839510000000 1.0
C      1  0.4843840000000  0.5110440000000  0.5860810000000 1.0
C      1  0.5258970000000  0.5656300000000  0.4274460000000 1.0
C      1  0.5574380000000  0.5481720000000  0.4625720000000 1.0
C      1  0.4836090000000  0.5239490000000  0.4640710000000 1.0
C      1  0.4493860000000  0.4667690000000  0.4500130000000 1.0
C      1  0.5182590000000  0.4645790000000  0.4786370000000 1.0
C      1  0.5127600000000  0.4927700000000  0.4316780000000 1.0
C      1  0.5174860000000  0.5526810000000  0.4758320000000 1.0
C      1  0.4686520000000  0.4405930000000  0.5397170000000 1.0
C      1  0.5186050000000  0.4332620000000  0.5295080000000 1.0
C      1  0.5362120000000  0.5688830000000  0.4576770000000 1.0
C      1  0.4985930000000  0.4426010000000  0.5723480000000 1.0
C      1  0.5719090000000  0.5037000000000  0.5167150000000 1.0
C      1  0.4603410000000  0.4561070000000  0.5653810000000 1.0
C      1  0.4216170000000  0.4523490000000  0.5084330000000 1.0
C      1  0.4557230000000  0.4909060000000  0.4334530000000 1.0
C      1  0.4188120000000  0.4879300000000  0.4863090000000 1.0
C      1  0.4645140000000  0.4421490000000  0.4542010000000 1.0
C      1  0.5217060000000  0.4852870000000  0.4587880000000 1.0
C      1  0.4704280000000  0.5708270000000  0.4733210000000 1.0
C      1  0.4885100000000  0.5032190000000  0.5436490000000 1.0
C      1  0.4371370000000  0.4359060000000  0.4966230000000 1.0
C      1  0.5465590000000  0.4537890000000  0.4512910000000 1.0
C      1  0.5808610000000  0.4817810000000  0.4760070000000 1.0
C      1  0.4898310000000  0.5312280000000  0.4134370000000 1.0
C      1  0.5237200000000  0.4781650000000  0.5032620000000 1.0
C      1  0.4302270000000  0.5361800000000  0.4586650000000 1.0
C      1  0.4844210000000  0.4262680000000  0.4947880000000 1.0
C      1  0.4890770000000  0.4246510000000  0.5232790000000 1.0
C      1  0.5342730000000  0.5149910000000  0.4306780000000 1.0
C      1  0.4325100000000  0.5119280000000  0.4432420000000 1.0
C      1  0.4593440000000  0.4280030000000  0.4805630000000 1.0
C      1  0.4464230000000  0.4823990000000  0.5623200000000 1.0
C      1  0.4961510000000  0.4649310000000  0.4267780000000 1.0
C      1  0.4706090000000  0.4714510000000  0.4134720000000 1.0
C      1  0.5779560000000  0.5209920000000  0.4937010000000 1.0
C      1  0.5634950000000  0.4512480000000  0.5157270000000 1.0
C      1  0.5479560000000  0.4319610000000  0.4678640000000 1.0
C      1  0.5442560000000  0.5087150000000  0.5644240000000 1.0
C      1  0.4907280000000  0.5517640000000  0.4660830000000 1.0
C      1  0.4919860000000  0.4441680000000  0.4470040000000 1.0
C      1  0.5097830000000  0.5097620000000  0.4694540000000 1.0
C      1  0.5575310000000  0.5167870000000  0.5391350000000 1.0
C      1  0.4433090000000  0.5275960000000  0.5032560000000 1.0
C      1  0.5011210000000  0.5349420000000  0.5823150000000 1.0
C      1  0.5644930000000  0.4728070000000  0.4562170000000 1.0
C      1  0.5439370000000  0.4304940000000  0.5078520000000 1.0
END
