TITL C-4164241-3639-734 135.899658351968 125000 -20128.9507953871 0 0 137 (C1) n - 1
REM
REM in /home/nfs/bkarasulu/CARBON/AIRSS/Generating-Clusters/ReaxFF-fromJPCA2015/Units_Real/with-SteepDescent/Only-C1/SD-CG/Try1-3A/FIRE-CG
REM
REM
REM
REM
REM
REM ./C.cell (11c1c37f851c82e70ff6c80c92926a4b)
REM
REM compiler GCC version 9.2.1 20190827 (Red Hat 9.2.1-1)
REM options -cpp -mtune=generic -march=x86-64 -g -O0 -fpre-include=/usr/include/finclude/math-vector-fortran.h
REM seed 597986185 -780326348 1894700881 -903966667 -720809929 125003578 -55042012 -1240358032 311724014 -113547645 -2100781018 -1901532050 -2099944880 68969460 -1340192334 1952395839 71074156 -1687354706 1556663031 -85782739 1924334522 1419298936 1107945136 1458495054 89411929 1481671463 73835778 -1470130503 757315197 -111028603 958831054 -1554186479 -70684429
REM
CELL 1.54180   50.00000   50.00000   50.00000   90.00000   90.00000   90.00000
LATT -1
SFAC C  
C      1  0.5111700000000  0.5924000000000  0.4453300000000 1.0
C      1  0.4394290000000  0.4323910000000  0.5334920000000 1.0
C      1  0.4589120000000  0.5179780000000  0.5319690000000 1.0
C      1  0.4757940000000  0.4086400000000  0.5013710000000 1.0
C      1  0.4387470000000  0.4864510000000  0.4335420000000 1.0
C      1  0.5027160000000  0.4624120000000  0.4998570000000 1.0
C      1  0.5471610000000  0.5176580000000  0.5115140000000 1.0
C      1  0.5127770000000  0.5209520000000  0.5436020000000 1.0
C      1  0.5417740000000  0.4300840000000  0.4395970000000 1.0
C      1  0.4265480000000  0.5359500000000  0.4534890000000 1.0
C      1  0.4581220000000  0.4366910000000  0.4404340000000 1.0
C      1  0.4735190000000  0.5200790000000  0.4715330000000 1.0
C      1  0.4915600000000  0.4084250000000  0.5497900000000 1.0
C      1  0.4952740000000  0.5633640000000  0.4467020000000 1.0
C      1  0.5169050000000  0.4925560000000  0.4048070000000 1.0
C      1  0.5518140000000  0.5134470000000  0.5686210000000 1.0
C      1  0.4660920000000  0.4995400000000  0.5940290000000 1.0
C      1  0.5042930000000  0.4909450000000  0.4964900000000 1.0
C      1  0.4814510000000  0.5318800000000  0.5225210000000 1.0
C      1  0.4699560000000  0.4667490000000  0.4922310000000 1.0
C      1  0.4553910000000  0.5547210000000  0.5034620000000 1.0
C      1  0.4586160000000  0.5529990000000  0.4124020000000 1.0
C      1  0.5109920000000  0.5452870000000  0.5003250000000 1.0
C      1  0.4880110000000  0.5917950000000  0.5227070000000 1.0
C      1  0.5882480000000  0.5136000000000  0.5317300000000 1.0
C      1  0.5400710000000  0.4796320000000  0.5166090000000 1.0
C      1  0.4010520000000  0.5147330000000  0.4959620000000 1.0
C      1  0.5256410000000  0.5480360000000  0.4582030000000 1.0
C      1  0.4588120000000  0.4901580000000  0.4122050000000 1.0
C      1  0.5299250000000  0.5173770000000  0.4588640000000 1.0
C      1  0.4189220000000  0.5130800000000  0.5672340000000 1.0
C      1  0.5595130000000  0.4692910000000  0.4232920000000 1.0
C      1  0.5376430000000  0.5803720000000  0.5388980000000 1.0
C      1  0.4185640000000  0.5530620000000  0.4763200000000 1.0
C      1  0.4231880000000  0.4782880000000  0.5163790000000 1.0
C      1  0.4848410000000  0.5451860000000  0.4254790000000 1.0
C      1  0.5093190000000  0.4663880000000  0.4512530000000 1.0
C      1  0.4657950000000  0.5664240000000  0.5597600000000 1.0
C      1  0.4593410000000  0.5253340000000  0.5923530000000 1.0
C      1  0.5243980000000  0.5590730000000  0.4095240000000 1.0
C      1  0.5414510000000  0.4214960000000  0.5275530000000 1.0
C      1  0.5097300000000  0.5907250000000  0.4769860000000 1.0
C      1  0.4536860000000  0.4866250000000  0.5050790000000 1.0
C      1  0.5259320000000  0.4741150000000  0.5391430000000 1.0
C      1  0.4164560000000  0.4693210000000  0.4850590000000 1.0
C      1  0.4241190000000  0.5065650000000  0.4509740000000 1.0
C      1  0.4816760000000  0.4231640000000  0.4490130000000 1.0
C      1  0.4443940000000  0.5283140000000  0.5092030000000 1.0
C      1  0.5356810000000  0.4296300000000  0.4707250000000 1.0
C      1  0.4492820000000  0.4188860000000  0.5094520000000 1.0
C      1  0.5139490000000  0.5275220000000  0.5935250000000 1.0
C      1  0.5449940000000  0.5417130000000  0.5643660000000 1.0
C      1  0.5689500000000  0.4701010000000  0.5499120000000 1.0
C      1  0.5624350000000  0.5176770000000  0.4260810000000 1.0
C      1  0.4097390000000  0.4967840000000  0.4742180000000 1.0
C      1  0.5140510000000  0.4174490000000  0.5660300000000 1.0
C      1  0.5330860000000  0.5781820000000  0.4266520000000 1.0
C      1  0.5185710000000  0.5184250000000  0.5110500000000 1.0
C      1  0.4707570000000  0.4729050000000  0.5941000000000 1.0
C      1  0.4858450000000  0.5389790000000  0.5984810000000 1.0
C      1  0.4170520000000  0.5466020000000  0.5311980000000 1.0
C      1  0.5809050000000  0.4916450000000  0.4628040000000 1.0
C      1  0.4735010000000  0.4251280000000  0.5638580000000 1.0
C      1  0.5371670000000  0.4304600000000  0.5542460000000 1.0
C      1  0.5232390000000  0.4411370000000  0.4201620000000 1.0
C      1  0.5619330000000  0.4293980000000  0.4837020000000 1.0
C      1  0.5742440000000  0.5532420000000  0.4928290000000 1.0
C      1  0.4471190000000  0.4552010000000  0.4761090000000 1.0
C      1  0.4082410000000  0.5438130000000  0.5020270000000 1.0
C      1  0.5260600000000  0.5650700000000  0.4838860000000 1.0
C      1  0.5365020000000  0.5141060000000  0.4090010000000 1.0
C      1  0.4728970000000  0.5242890000000  0.4422360000000 1.0
C      1  0.4331520000000  0.4305250000000  0.4881330000000 1.0
C      1  0.4567680000000  0.4476050000000  0.5545140000000 1.0
C      1  0.4994870000000  0.5465410000000  0.5404490000000 1.0
C      1  0.6024030000000  0.4894810000000  0.5196740000000 1.0
C      1  0.4390800000000  0.5549320000000  0.5533120000000 1.0
C      1  0.5244510000000  0.4744730000000  0.5835610000000 1.0
C      1  0.4035680000000  0.5009330000000  0.5207780000000 1.0
C      1  0.4771220000000  0.4999360000000  0.4291270000000 1.0
C      1  0.5211610000000  0.4081070000000  0.5118760000000 1.0
C      1  0.4333050000000  0.4873900000000  0.5646310000000 1.0
C      1  0.5218190000000  0.5341380000000  0.4029040000000 1.0
C      1  0.4975640000000  0.4441930000000  0.4344310000000 1.0
C      1  0.4869710000000  0.4947700000000  0.4041890000000 1.0
C      1  0.4181360000000  0.4492880000000  0.5254100000000 1.0
C      1  0.4823260000000  0.5438840000000  0.4944790000000 1.0
C      1  0.4521560000000  0.5098520000000  0.4887340000000 1.0
C      1  0.5444220000000  0.4562110000000  0.5075330000000 1.0
C      1  0.5167600000000  0.4110780000000  0.4836830000000 1.0
C      1  0.5816670000000  0.5390640000000  0.4685050000000 1.0
C      1  0.5950240000000  0.4669470000000  0.5053170000000 1.0
C      1  0.4908650000000  0.5594790000000  0.5793600000000 1.0
C      1  0.4066930000000  0.5213990000000  0.5417930000000 1.0
C      1  0.4894710000000  0.4117780000000  0.4759700000000 1.0
C      1  0.5676080000000  0.5406300000000  0.4423640000000 1.0
C      1  0.4972740000000  0.4722760000000  0.5456820000000 1.0
C      1  0.5903240000000  0.4663120000000  0.4764140000000 1.0
C      1  0.4672010000000  0.5810940000000  0.5379070000000 1.0
C      1  0.5475040000000  0.4973040000000  0.4688220000000 1.0
C      1  0.4422390000000  0.4597640000000  0.4441500000000 1.0
C      1  0.4366810000000  0.5349390000000  0.5736640000000 1.0
C      1  0.4610350000000  0.5863550000000  0.4781640000000 1.0
C      1  0.4948730000000  0.4339460000000  0.5817190000000 1.0
C      1  0.5202460000000  0.5515910000000  0.5787630000000 1.0
C      1  0.6022180000000  0.5122010000000  0.5047850000000 1.0
C      1  0.5565090000000  0.5756880000000  0.4908370000000 1.0
C      1  0.4700880000000  0.4704110000000  0.5386670000000 1.0
C      1  0.4948850000000  0.4038670000000  0.5223690000000 1.0
C      1  0.5191230000000  0.4572160000000  0.4763370000000 1.0
C      1  0.5527330000000  0.4943050000000  0.4972290000000 1.0
C      1  0.5107880000000  0.4965760000000  0.4504680000000 1.0
C      1  0.5668990000000  0.5383230000000  0.5190900000000 1.0
C      1  0.4370720000000  0.5720960000000  0.4896170000000 1.0
C      1  0.5707760000000  0.4986080000000  0.5519050000000 1.0
C      1  0.5797850000000  0.4562700000000  0.5266430000000 1.0
C      1  0.4859940000000  0.5948820000000  0.4924100000000 1.0
C      1  0.4089370000000  0.4431440000000  0.4981900000000 1.0
C      1  0.5791010000000  0.4427970000000  0.4649760000000 1.0
C      1  0.4550090000000  0.4934050000000  0.5459330000000 1.0
C      1  0.4467780000000  0.4659540000000  0.5786560000000 1.0
C      1  0.5734560000000  0.4928350000000  0.4328410000000 1.0
C      1  0.5549710000000  0.5560840000000  0.5423240000000 1.0
C      1  0.5941760000000  0.5148620000000  0.4773660000000 1.0
C      1  0.5661190000000  0.4441720000000  0.4379850000000 1.0
C      1  0.4997920000000  0.4615480000000  0.5897130000000 1.0
C      1  0.4675700000000  0.5694810000000  0.4555170000000 1.0
C      1  0.4920220000000  0.4991580000000  0.4722390000000 1.0
C      1  0.5466860000000  0.5599830000000  0.4434100000000 1.0
C      1  0.5081200000000  0.5751530000000  0.5367660000000 1.0
C      1  0.5295090000000  0.5031150000000  0.5849780000000 1.0
C      1  0.5097540000000  0.4575100000000  0.5261270000000 1.0
C      1  0.5323160000000  0.4685810000000  0.4123410000000 1.0
C      1  0.5628300000000  0.4334210000000  0.5122220000000 1.0
C      1  0.5514010000000  0.5866420000000  0.5156600000000 1.0
C      1  0.4455690000000  0.5547650000000  0.4396410000000 1.0
C      1  0.5437150000000  0.4586390000000  0.5632060000000 1.0
END
