TITL C-4164243-3780-394 -8.30567340787799 125000 -12848.2957690136 0 0 86 (C1) n - 1
REM
REM in /home/nfs/bkarasulu/CARBON/AIRSS/Generating-Clusters/ReaxFF-fromJPCA2015/Units_Real/with-SteepDescent/Only-C1/SD-CG/Try1-3A/FIRE-CG
REM
REM
REM
REM
REM
REM ./C.cell (11c1c37f851c82e70ff6c80c92926a4b)
REM
REM compiler GCC version 9.2.1 20190827 (Red Hat 9.2.1-1)
REM options -cpp -mtune=generic -march=x86-64 -g -O0 -fpre-include=/usr/include/finclude/math-vector-fortran.h
REM seed 1671402937 -2049352550 -1960056741 -1367177024 1297555158 -556293576 1914713031 691193694 -1685051162 221890936 2001217375 2053255638 1918972695 -393197040 601619909 -275194561 -1140082429 -1568978589 430336584 -609229583 -32046349 1949814424 1086700467 -386874178 -1516941397 736001253 1158815078 -1636651395 -1497501718 1051512744 1449267144 1180222272 132712523
REM
CELL 1.54180   50.00000   50.00000   50.00000   90.00000   90.00000   90.00000
LATT -1
SFAC C  
C      1  0.5408070000000  0.4350070000000  0.5458410000000 1.0
C      1  0.5043720000000  0.4909980000000  0.5243900000000 1.0
C      1  0.5796100000000  0.5311350000000  0.5026410000000 1.0
C      1  0.5100680000000  0.5138830000000  0.4244170000000 1.0
C      1  0.4650390000000  0.5067850000000  0.5447560000000 1.0
C      1  0.4746160000000  0.5225570000000  0.5682560000000 1.0
C      1  0.5284230000000  0.5078600000000  0.4822040000000 1.0
C      1  0.5350430000000  0.5151420000000  0.5538620000000 1.0
C      1  0.5863680000000  0.5409210000000  0.4754760000000 1.0
C      1  0.4361340000000  0.4893940000000  0.4994870000000 1.0
C      1  0.4236060000000  0.4795060000000  0.5240520000000 1.0
C      1  0.5413710000000  0.5656130000000  0.4999710000000 1.0
C      1  0.5679360000000  0.4788930000000  0.4898410000000 1.0
C      1  0.5511870000000  0.5415980000000  0.5153390000000 1.0
C      1  0.5006940000000  0.4237670000000  0.5131920000000 1.0
C      1  0.5322810000000  0.5619520000000  0.4729200000000 1.0
C      1  0.4557760000000  0.4898020000000  0.4278320000000 1.0
C      1  0.4406230000000  0.5564600000000  0.4811910000000 1.0
C      1  0.4846260000000  0.5327600000000  0.5022170000000 1.0
C      1  0.4827290000000  0.5105360000000  0.5205520000000 1.0
C      1  0.4640760000000  0.4825210000000  0.4787280000000 1.0
C      1  0.5217630000000  0.4995940000000  0.5756360000000 1.0
C      1  0.5263420000000  0.5852620000000  0.5161600000000 1.0
C      1  0.4392620000000  0.4391040000000  0.5011710000000 1.0
C      1  0.4568630000000  0.4681260000000  0.5609310000000 1.0
C      1  0.5856610000000  0.5019380000000  0.5295760000000 1.0
C      1  0.4799920000000  0.5657610000000  0.5019810000000 1.0
C      1  0.4952310000000  0.5645970000000  0.5484830000000 1.0
C      1  0.4216860000000  0.4621840000000  0.5016610000000 1.0
C      1  0.4716570000000  0.5480440000000  0.5521260000000 1.0
C      1  0.5375700000000  0.4567710000000  0.4521180000000 1.0
C      1  0.4940070000000  0.4495240000000  0.5574590000000 1.0
C      1  0.5557810000000  0.4775120000000  0.4632360000000 1.0
C      1  0.4754930000000  0.4236460000000  0.4675600000000 1.0
C      1  0.4543250000000  0.4404010000000  0.5270000000000 1.0
C      1  0.4492500000000  0.4617700000000  0.4579850000000 1.0
C      1  0.4272370000000  0.5307470000000  0.5282910000000 1.0
C      1  0.5136610000000  0.4401270000000  0.4606570000000 1.0
C      1  0.5364900000000  0.5163300000000  0.5076670000000 1.0
C      1  0.5341000000000  0.4708780000000  0.4277870000000 1.0
C      1  0.4811280000000  0.5759970000000  0.4710020000000 1.0
C      1  0.4793710000000  0.4737150000000  0.4269350000000 1.0
C      1  0.5337100000000  0.5819520000000  0.5435360000000 1.0
C      1  0.4609450000000  0.5378850000000  0.4400230000000 1.0
C      1  0.4812240000000  0.4726420000000  0.5726700000000 1.0
C      1  0.4825890000000  0.4366690000000  0.5329260000000 1.0
C      1  0.4929150000000  0.5005480000000  0.5764840000000 1.0
C      1  0.5787850000000  0.4891690000000  0.5506280000000 1.0
C      1  0.4292510000000  0.5298170000000  0.4777210000000 1.0
C      1  0.5629360000000  0.4705650000000  0.5637430000000 1.0
C      1  0.5290890000000  0.5018970000000  0.5295020000000 1.0
C      1  0.4501650000000  0.4368840000000  0.4744490000000 1.0
C      1  0.5564550000000  0.5026570000000  0.4454910000000 1.0
C      1  0.5834940000000  0.5020210000000  0.5022670000000 1.0
C      1  0.4391140000000  0.5166200000000  0.5494110000000 1.0
C      1  0.4841510000000  0.5302490000000  0.4257220000000 1.0
C      1  0.4909720000000  0.5266650000000  0.4751970000000 1.0
C      1  0.4769940000000  0.5048340000000  0.4640370000000 1.0
C      1  0.4968660000000  0.4917820000000  0.4460170000000 1.0
C      1  0.5343460000000  0.5213780000000  0.4398310000000 1.0
C      1  0.5352640000000  0.4735890000000  0.5743140000000 1.0
C      1  0.4888770000000  0.4373460000000  0.4442420000000 1.0
C      1  0.4979480000000  0.5784200000000  0.5231280000000 1.0
C      1  0.5630300000000  0.4528240000000  0.5396900000000 1.0
C      1  0.5075390000000  0.5726340000000  0.4676010000000 1.0
C      1  0.5590350000000  0.4606350000000  0.5104820000000 1.0
C      1  0.4479290000000  0.5528570000000  0.5333020000000 1.0
C      1  0.5243440000000  0.5606970000000  0.5593900000000 1.0
C      1  0.4661950000000  0.4520870000000  0.4365810000000 1.0
C      1  0.5237790000000  0.4871210000000  0.4081850000000 1.0
C      1  0.4590270000000  0.5610920000000  0.4589990000000 1.0
C      1  0.5223810000000  0.4496610000000  0.5637240000000 1.0
C      1  0.5002880000000  0.4261230000000  0.4827080000000 1.0
C      1  0.4381100000000  0.5188620000000  0.4517180000000 1.0
C      1  0.4353340000000  0.4907960000000  0.4454350000000 1.0
C      1  0.4241020000000  0.5155430000000  0.5025870000000 1.0
C      1  0.5127270000000  0.4858420000000  0.4715430000000 1.0
C      1  0.4379620000000  0.4600830000000  0.5426620000000 1.0
C      1  0.5423850000000  0.5417300000000  0.5466630000000 1.0
C      1  0.4915360000000  0.4723010000000  0.4849980000000 1.0
C      1  0.5076200000000  0.4678510000000  0.5080290000000 1.0
C      1  0.5223880000000  0.5321240000000  0.4654680000000 1.0
C      1  0.5741960000000  0.5246790000000  0.4530620000000 1.0
C      1  0.5323630000000  0.4504620000000  0.5050640000000 1.0
C      1  0.5287280000000  0.4257990000000  0.5207760000000 1.0
C      1  0.4506510000000  0.5654900000000  0.5074080000000 1.0
END
