TITL C-4164237-1827-467 27.7736107797676 125000 -9856.29928287116 0 0 68 (C1) n - 1
REM
REM in /home/nfs/bkarasulu/CARBON/AIRSS/Generating-Clusters/ReaxFF-fromJPCA2015/Units_Real/with-SteepDescent/Only-C1/SD-CG/Try1-3A/FIRE-CG
REM
REM
REM
REM
REM
REM ./C.cell (11c1c37f851c82e70ff6c80c92926a4b)
REM
REM compiler GCC version 9.2.1 20190827 (Red Hat 9.2.1-1)
REM options -cpp -mtune=generic -march=x86-64 -g -O0 -fpre-include=/usr/include/finclude/math-vector-fortran.h
REM seed 1634031744 -830517812 1746184613 1529269251 344101693 235844739 1887584195 -1782127601 -1920969735 903717859 427463676 -442211600 -1386802233 1202665852 1392501692 -1909188910 1257394306 1806852276 1202045797 1476704762 521443702 792852384 550850983 42966988 -304465321 27512181 -1356788599 8297369 -1991915085 -1291913238 -743137019 -277517239 1790101256
REM
CELL 1.54180   50.00000   50.00000   50.00000   90.00000   90.00000   90.00000
LATT -1
SFAC C  
C      1  0.5520710000000  0.5021810000000  0.5714860000000 1.0
C      1  0.5435990000000  0.5473300000000  0.4445300000000 1.0
C      1  0.4267100000000  0.5415860000000  0.5014360000000 1.0
C      1  0.4260650000000  0.5023680000000  0.5112190000000 1.0
C      1  0.4766160000000  0.5434100000000  0.4545010000000 1.0
C      1  0.4790190000000  0.4701960000000  0.4236730000000 1.0
C      1  0.5072770000000  0.4706920000000  0.5672470000000 1.0
C      1  0.5224010000000  0.5666980000000  0.5186350000000 1.0
C      1  0.5100360000000  0.4691670000000  0.4681290000000 1.0
C      1  0.5122560000000  0.5087060000000  0.4463970000000 1.0
C      1  0.5565970000000  0.5530690000000  0.5507700000000 1.0
C      1  0.4499960000000  0.4499720000000  0.4986680000000 1.0
C      1  0.5010780000000  0.5226910000000  0.5166400000000 1.0
C      1  0.4298020000000  0.5134970000000  0.4638790000000 1.0
C      1  0.4502360000000  0.4639380000000  0.4525540000000 1.0
C      1  0.4930510000000  0.4953600000000  0.4139130000000 1.0
C      1  0.5729250000000  0.4868960000000  0.5010620000000 1.0
C      1  0.4763610000000  0.4325030000000  0.5531630000000 1.0
C      1  0.4901420000000  0.5219850000000  0.5727930000000 1.0
C      1  0.4174970000000  0.5287890000000  0.5184190000000 1.0
C      1  0.5030360000000  0.4438050000000  0.5509750000000 1.0
C      1  0.5347230000000  0.5117350000000  0.4799010000000 1.0
C      1  0.4421630000000  0.5376490000000  0.4772670000000 1.0
C      1  0.4706070000000  0.5301270000000  0.4806040000000 1.0
C      1  0.4957340000000  0.4833330000000  0.4924940000000 1.0
C      1  0.5536700000000  0.4694030000000  0.4864140000000 1.0
C      1  0.4944720000000  0.4209830000000  0.4862680000000 1.0
C      1  0.4511770000000  0.4803170000000  0.4304420000000 1.0
C      1  0.5214170000000  0.4370110000000  0.5281250000000 1.0
C      1  0.5451230000000  0.5330980000000  0.5737540000000 1.0
C      1  0.4366900000000  0.4660380000000  0.4773130000000 1.0
C      1  0.5548060000000  0.4595110000000  0.5325590000000 1.0
C      1  0.5207350000000  0.5425680000000  0.4262930000000 1.0
C      1  0.4846160000000  0.5066170000000  0.4399020000000 1.0
C      1  0.4809600000000  0.4310600000000  0.4613970000000 1.0
C      1  0.4782290000000  0.5129590000000  0.5332510000000 1.0
C      1  0.5496810000000  0.5562910000000  0.5209330000000 1.0
C      1  0.5112580000000  0.5779280000000  0.4648180000000 1.0
C      1  0.5180760000000  0.4321490000000  0.4988300000000 1.0
C      1  0.5171780000000  0.5133410000000  0.4177650000000 1.0
C      1  0.4560720000000  0.4657990000000  0.5221220000000 1.0
C      1  0.4598810000000  0.4786370000000  0.5696120000000 1.0
C      1  0.4568350000000  0.4564510000000  0.5493260000000 1.0
C      1  0.5290500000000  0.4908610000000  0.4610080000000 1.0
C      1  0.5292000000000  0.4854510000000  0.5691090000000 1.0
C      1  0.5311110000000  0.4620430000000  0.5249640000000 1.0
C      1  0.5632730000000  0.5418600000000  0.4993620000000 1.0
C      1  0.4810780000000  0.5373320000000  0.5490500000000 1.0
C      1  0.4574550000000  0.4963480000000  0.5172140000000 1.0
C      1  0.4861710000000  0.4913290000000  0.5737450000000 1.0
C      1  0.5018690000000  0.5558870000000  0.4449560000000 1.0
C      1  0.5772370000000  0.4754850000000  0.5304580000000 1.0
C      1  0.5249340000000  0.5090730000000  0.5069670000000 1.0
C      1  0.4660990000000  0.4284440000000  0.4869690000000 1.0
C      1  0.5694890000000  0.4910040000000  0.5526020000000 1.0
C      1  0.4417630000000  0.5081830000000  0.4380720000000 1.0
C      1  0.5147160000000  0.4835780000000  0.5144060000000 1.0
C      1  0.4245510000000  0.4927340000000  0.4835210000000 1.0
C      1  0.5493240000000  0.5360380000000  0.4721040000000 1.0
C      1  0.4745820000000  0.5031380000000  0.4914220000000 1.0
C      1  0.4638660000000  0.5264670000000  0.4339630000000 1.0
C      1  0.5004120000000  0.5485500000000  0.5290610000000 1.0
C      1  0.5701930000000  0.5146550000000  0.5012410000000 1.0
C      1  0.4889540000000  0.4552990000000  0.4472010000000 1.0
C      1  0.5318790000000  0.4510580000000  0.4809610000000 1.0
C      1  0.5172230000000  0.5734560000000  0.4922740000000 1.0
C      1  0.5168530000000  0.5328750000000  0.5803880000000 1.0
C      1  0.5578440000000  0.5710090000000  0.5695040000000 1.0
END
