TITL C-4164238-4211-274 -1.65105698954849 125000 -11991.3355807704 0 0 80 (C1) n - 1
REM
REM in /home/nfs/bkarasulu/CARBON/AIRSS/Generating-Clusters/ReaxFF-fromJPCA2015/Units_Real/with-SteepDescent/Only-C1/SD-CG/Try1-3A/FIRE-CG
REM
REM
REM
REM
REM
REM ./C.cell (11c1c37f851c82e70ff6c80c92926a4b)
REM
REM compiler GCC version 9.2.1 20190827 (Red Hat 9.2.1-1)
REM options -cpp -mtune=generic -march=x86-64 -g -O0 -fpre-include=/usr/include/finclude/math-vector-fortran.h
REM seed -676925038 1586537573 817325789 1371509231 -1771739597 -1286389049 1668009246 -780318877 1663514755 2005342145 -2134865976 -77785121 -721090435 580236226 1991810439 -121023493 870885014 638074183 19389557 412069219 1504333643 1062334828 917286721 859637866 284772584 -2129951956 1387225290 1304009009 1936485376 -296287725 -394585578 -1477869580 565124060
REM
CELL 1.54180   50.00000   50.00000   50.00000   90.00000   90.00000   90.00000
LATT -1
SFAC C  
C      1  0.4715630000000  0.5192170000000  0.4809090000000 1.0
C      1  0.5807760000000  0.4973510000000  0.5254030000000 1.0
C      1  0.5008430000000  0.4691370000000  0.5814130000000 1.0
C      1  0.4746430000000  0.5072250000000  0.4230690000000 1.0
C      1  0.5557930000000  0.4920240000000  0.5684360000000 1.0
C      1  0.5070650000000  0.4954730000000  0.5939920000000 1.0
C      1  0.4271990000000  0.5129650000000  0.5018280000000 1.0
C      1  0.5140870000000  0.4233720000000  0.5206580000000 1.0
C      1  0.5015630000000  0.4933810000000  0.4337660000000 1.0
C      1  0.5783660000000  0.4682190000000  0.5214980000000 1.0
C      1  0.4481850000000  0.5060230000000  0.5473470000000 1.0
C      1  0.4714940000000  0.4678500000000  0.5745070000000 1.0
C      1  0.4778370000000  0.5390040000000  0.4940080000000 1.0
C      1  0.4501060000000  0.5010890000000  0.4367750000000 1.0
C      1  0.4900140000000  0.4420420000000  0.5207720000000 1.0
C      1  0.5465340000000  0.4530560000000  0.4668110000000 1.0
C      1  0.5588940000000  0.5436300000000  0.4854890000000 1.0
C      1  0.5120300000000  0.5133460000000  0.5232360000000 1.0
C      1  0.5231040000000  0.5413880000000  0.5558500000000 1.0
C      1  0.5179990000000  0.4687070000000  0.4282350000000 1.0
C      1  0.4811610000000  0.4562320000000  0.4555620000000 1.0
C      1  0.5091340000000  0.5420370000000  0.5305040000000 1.0
C      1  0.4995100000000  0.4472030000000  0.4342360000000 1.0
C      1  0.5163810000000  0.4640240000000  0.5574740000000 1.0
C      1  0.5080280000000  0.4226050000000  0.4476210000000 1.0
C      1  0.5303230000000  0.4274860000000  0.4675740000000 1.0
C      1  0.5565690000000  0.5097320000000  0.4531740000000 1.0
C      1  0.4953540000000  0.4909290000000  0.5172000000000 1.0
C      1  0.4866580000000  0.5336910000000  0.4264670000000 1.0
C      1  0.5027660000000  0.4669470000000  0.5300060000000 1.0
C      1  0.4443480000000  0.4672400000000  0.5129640000000 1.0
C      1  0.5335370000000  0.4961960000000  0.5847100000000 1.0
C      1  0.4765510000000  0.5725560000000  0.5347680000000 1.0
C      1  0.5602060000000  0.4502430000000  0.5375850000000 1.0
C      1  0.5384730000000  0.5312030000000  0.4438640000000 1.0
C      1  0.4648470000000  0.4526950000000  0.5520710000000 1.0
C      1  0.5172630000000  0.5061250000000  0.4799770000000 1.0
C      1  0.4865890000000  0.5129260000000  0.5807320000000 1.0
C      1  0.5727480000000  0.5197000000000  0.4757400000000 1.0
C      1  0.5737050000000  0.4720000000000  0.4924370000000 1.0
C      1  0.4487460000000  0.5527180000000  0.4585090000000 1.0
C      1  0.5413210000000  0.5520610000000  0.4637360000000 1.0
C      1  0.5185740000000  0.5673220000000  0.5168710000000 1.0
C      1  0.4518570000000  0.4528960000000  0.4598930000000 1.0
C      1  0.4486830000000  0.5358450000000  0.5508340000000 1.0
C      1  0.4811810000000  0.4148640000000  0.4526640000000 1.0
C      1  0.4458580000000  0.5623830000000  0.4854250000000 1.0
C      1  0.5456670000000  0.4645540000000  0.5592480000000 1.0
C      1  0.4545220000000  0.4192590000000  0.4555830000000 1.0
C      1  0.5370750000000  0.4928170000000  0.4649820000000 1.0
C      1  0.5384600000000  0.4351360000000  0.5283240000000 1.0
C      1  0.5648740000000  0.5105750000000  0.5465620000000 1.0
C      1  0.4312820000000  0.5437900000000  0.5037680000000 1.0
C      1  0.5255300000000  0.4149400000000  0.4936600000000 1.0
C      1  0.4652910000000  0.4967760000000  0.5688760000000 1.0
C      1  0.4919550000000  0.4815550000000  0.4602990000000 1.0
C      1  0.4241130000000  0.5113120000000  0.4756920000000 1.0
C      1  0.4229570000000  0.4845600000000  0.4721130000000 1.0
C      1  0.5180810000000  0.5713750000000  0.4675380000000 1.0
C      1  0.4963440000000  0.5378360000000  0.5691240000000 1.0
C      1  0.5826900000000  0.5006330000000  0.4954800000000 1.0
C      1  0.4378180000000  0.4770340000000  0.4467850000000 1.0
C      1  0.4392790000000  0.4947780000000  0.5217070000000 1.0
C      1  0.5129310000000  0.5230120000000  0.4318510000000 1.0
C      1  0.4720310000000  0.5576050000000  0.4405670000000 1.0
C      1  0.4460020000000  0.5221080000000  0.4602770000000 1.0
C      1  0.4734010000000  0.5517360000000  0.5558390000000 1.0
C      1  0.5450080000000  0.4742810000000  0.4868470000000 1.0
C      1  0.5332030000000  0.5097300000000  0.5036420000000 1.0
C      1  0.5041770000000  0.5754070000000  0.4930100000000 1.0
C      1  0.5450430000000  0.5364650000000  0.5107610000000 1.0
C      1  0.4606880000000  0.4445480000000  0.5262600000000 1.0
C      1  0.5478750000000  0.5334190000000  0.5406400000000 1.0
C      1  0.4754730000000  0.5667210000000  0.5012300000000 1.0
C      1  0.4427340000000  0.5505750000000  0.5279780000000 1.0
C      1  0.4370950000000  0.4624750000000  0.4858850000000 1.0
C      1  0.4945880000000  0.5670060000000  0.4530290000000 1.0
C      1  0.4913000000000  0.4954270000000  0.4851510000000 1.0
C      1  0.5026070000000  0.5859440000000  0.5360580000000 1.0
C      1  0.5414380000000  0.4722530000000  0.4446320000000 1.0
END
