TITL C-4164243-3780-3 14.17810199599 125000 -18588.4878641235 0 0 125 (C1) n - 1
REM
REM in /home/nfs/bkarasulu/CARBON/AIRSS/Generating-Clusters/ReaxFF-fromJPCA2015/Units_Real/with-SteepDescent/Only-C1/SD-CG/Try1-3A/FIRE-CG
REM
REM
REM
REM
REM
REM ./C.cell (11c1c37f851c82e70ff6c80c92926a4b)
REM
REM compiler GCC version 9.2.1 20190827 (Red Hat 9.2.1-1)
REM options -cpp -mtune=generic -march=x86-64 -g -O0 -fpre-include=/usr/include/finclude/math-vector-fortran.h
REM seed 1749405744 221422871 -1920177540 -1622839472 2112838316 -2108388316 -71938815 -1755135402 -1955180725 -442008552 -279975548 628232990 382596478 544462948 2087883759 -1877998039 1513867080 -1144573542 1533654935 64304189 405353054 -1545496578 1204816883 1702024614 -259261642 -247216287 -1687278806 -1783942076 -994750522 -1507272933 -1164936595 -1504565329 -135453747
REM
CELL 1.54180   50.00000   50.00000   50.00000   90.00000   90.00000   90.00000
LATT -1
SFAC C  
C      1  0.4306140000000  0.5687780000000  0.4997630000000 1.0
C      1  0.5129910000000  0.5031600000000  0.4046730000000 1.0
C      1  0.6041250000000  0.5237100000000  0.4971400000000 1.0
C      1  0.4290980000000  0.4928930000000  0.5516410000000 1.0
C      1  0.4938730000000  0.5575910000000  0.5676840000000 1.0
C      1  0.5406690000000  0.4100390000000  0.4919820000000 1.0
C      1  0.5567510000000  0.5509410000000  0.5673040000000 1.0
C      1  0.5043140000000  0.5678450000000  0.5433390000000 1.0
C      1  0.5414290000000  0.4967660000000  0.4831540000000 1.0
C      1  0.5320470000000  0.5347220000000  0.5276270000000 1.0
C      1  0.4648890000000  0.5681050000000  0.4609830000000 1.0
C      1  0.5184110000000  0.4069300000000  0.5117370000000 1.0
C      1  0.5105920000000  0.5311270000000  0.4744650000000 1.0
C      1  0.4975630000000  0.4160840000000  0.5597930000000 1.0
C      1  0.4570070000000  0.4527520000000  0.5527670000000 1.0
C      1  0.4543580000000  0.5088490000000  0.4025000000000 1.0
C      1  0.5519690000000  0.4873900000000  0.4283620000000 1.0
C      1  0.4687190000000  0.5922550000000  0.5189260000000 1.0
C      1  0.4169030000000  0.4724440000000  0.5014960000000 1.0
C      1  0.5115990000000  0.4230750000000  0.4456580000000 1.0
C      1  0.4987650000000  0.4676500000000  0.4898410000000 1.0
C      1  0.5796900000000  0.5191540000000  0.4492330000000 1.0
C      1  0.5375000000000  0.5047650000000  0.5860860000000 1.0
C      1  0.5403310000000  0.5098990000000  0.4128130000000 1.0
C      1  0.4608620000000  0.5030110000000  0.5922370000000 1.0
C      1  0.5021140000000  0.4856220000000  0.4268880000000 1.0
C      1  0.5908070000000  0.4921640000000  0.5349230000000 1.0
C      1  0.4165900000000  0.5195050000000  0.4825330000000 1.0
C      1  0.4413000000000  0.4545840000000  0.4508760000000 1.0
C      1  0.5284140000000  0.4703250000000  0.4308670000000 1.0
C      1  0.4380980000000  0.5065790000000  0.4654010000000 1.0
C      1  0.5207360000000  0.4089620000000  0.5415880000000 1.0
C      1  0.5719390000000  0.4460230000000  0.4740150000000 1.0
C      1  0.5020430000000  0.4804030000000  0.5453230000000 1.0
C      1  0.4648900000000  0.5172770000000  0.4611110000000 1.0
C      1  0.4841280000000  0.4703410000000  0.4624240000000 1.0
C      1  0.4723350000000  0.4855970000000  0.3929950000000 1.0
C      1  0.4534780000000  0.5022680000000  0.5372560000000 1.0
C      1  0.5213150000000  0.4420800000000  0.4240210000000 1.0
C      1  0.5257740000000  0.5969790000000  0.5106710000000 1.0
C      1  0.5745980000000  0.5337180000000  0.5030570000000 1.0
C      1  0.5205600000000  0.5600550000000  0.4820590000000 1.0
C      1  0.4476040000000  0.4173610000000  0.4856030000000 1.0
C      1  0.4028230000000  0.5365550000000  0.4567170000000 1.0
C      1  0.4353460000000  0.4975570000000  0.5834800000000 1.0
C      1  0.5049150000000  0.4644550000000  0.5871150000000 1.0
C      1  0.5269450000000  0.5777250000000  0.5569360000000 1.0
C      1  0.5377840000000  0.5377350000000  0.4232510000000 1.0
C      1  0.5681550000000  0.4874490000000  0.5191470000000 1.0
C      1  0.4682100000000  0.5742460000000  0.4333180000000 1.0
C      1  0.4869750000000  0.5111200000000  0.5948700000000 1.0
C      1  0.5612000000000  0.5376530000000  0.5287260000000 1.0
C      1  0.4760400000000  0.4133010000000  0.4790720000000 1.0
C      1  0.4198390000000  0.5388890000000  0.5323120000000 1.0
C      1  0.5625690000000  0.4914380000000  0.5767080000000 1.0
C      1  0.5324820000000  0.4228500000000  0.4659700000000 1.0
C      1  0.4591150000000  0.4894800000000  0.5141010000000 1.0
C      1  0.4859840000000  0.5421430000000  0.5047060000000 1.0
C      1  0.5358180000000  0.5308570000000  0.5738510000000 1.0
C      1  0.4712630000000  0.5214110000000  0.5463600000000 1.0
C      1  0.4642590000000  0.4344980000000  0.5764270000000 1.0
C      1  0.4395230000000  0.5544900000000  0.5510420000000 1.0
C      1  0.5970780000000  0.5195190000000  0.4703380000000 1.0
C      1  0.5631210000000  0.4623160000000  0.5722100000000 1.0
C      1  0.5823420000000  0.5057560000000  0.5590300000000 1.0
C      1  0.4429880000000  0.4954350000000  0.4244180000000 1.0
C      1  0.5534870000000  0.5750760000000  0.5490690000000 1.0
C      1  0.4613810000000  0.5685060000000  0.5362330000000 1.0
C      1  0.5311870000000  0.4694230000000  0.4884230000000 1.0
C      1  0.4478110000000  0.4262430000000  0.5382130000000 1.0
C      1  0.4396900000000  0.4688330000000  0.5161310000000 1.0
C      1  0.4797160000000  0.5404500000000  0.5856110000000 1.0
C      1  0.5258030000000  0.4731580000000  0.5332780000000 1.0
C      1  0.5329700000000  0.5171630000000  0.4638290000000 1.0
C      1  0.4979270000000  0.5089380000000  0.5494180000000 1.0
C      1  0.5207920000000  0.5241610000000  0.5506700000000 1.0
C      1  0.4958300000000  0.6002300000000  0.5084760000000 1.0
C      1  0.4933420000000  0.4381220000000  0.5805160000000 1.0
C      1  0.4468160000000  0.5871760000000  0.5031600000000 1.0
C      1  0.4203730000000  0.5552120000000  0.4479120000000 1.0
C      1  0.4841220000000  0.4585050000000  0.5364050000000 1.0
C      1  0.5610330000000  0.5062160000000  0.5008440000000 1.0
C      1  0.6026100000000  0.4828430000000  0.4887300000000 1.0
C      1  0.5584450000000  0.4469840000000  0.5468630000000 1.0
C      1  0.6084840000000  0.4981390000000  0.5121470000000 1.0
C      1  0.4550280000000  0.5390500000000  0.5698310000000 1.0
C      1  0.4302600000000  0.4366500000000  0.4705170000000 1.0
C      1  0.4073480000000  0.5001810000000  0.5040120000000 1.0
C      1  0.5761580000000  0.5337320000000  0.5539100000000 1.0
C      1  0.5486800000000  0.5597890000000  0.4725620000000 1.0
C      1  0.4851040000000  0.5562610000000  0.4149110000000 1.0
C      1  0.5616390000000  0.5637370000000  0.4976580000000 1.0
C      1  0.4849740000000  0.4923130000000  0.5005930000000 1.0
C      1  0.4855880000000  0.4967750000000  0.4522210000000 1.0
C      1  0.5655140000000  0.4243780000000  0.4905870000000 1.0
C      1  0.4892000000000  0.4463190000000  0.5113100000000 1.0
C      1  0.4955570000000  0.5174910000000  0.4950090000000 1.0
C      1  0.4702160000000  0.4501390000000  0.4438870000000 1.0
C      1  0.4962270000000  0.4976470000000  0.3798490000000 1.0
C      1  0.5484540000000  0.5793260000000  0.5192780000000 1.0
C      1  0.5012980000000  0.4436220000000  0.4019560000000 1.0
C      1  0.5129990000000  0.5484730000000  0.4198050000000 1.0
C      1  0.5108470000000  0.4921500000000  0.5918940000000 1.0
C      1  0.4358320000000  0.4252220000000  0.5113750000000 1.0
C      1  0.4323520000000  0.4830890000000  0.4468080000000 1.0
C      1  0.4164090000000  0.4435900000000  0.4960640000000 1.0
C      1  0.5755920000000  0.4906220000000  0.4463880000000 1.0
C      1  0.4716860000000  0.5432190000000  0.4732370000000 1.0
C      1  0.4121280000000  0.5115060000000  0.5302280000000 1.0
C      1  0.4839340000000  0.4240230000000  0.4533460000000 1.0
C      1  0.5112020000000  0.5888650000000  0.4871000000000 1.0
C      1  0.4689010000000  0.5338860000000  0.4075410000000 1.0
C      1  0.5495170000000  0.4659270000000  0.5212560000000 1.0
C      1  0.4926860000000  0.4179620000000  0.5034470000000 1.0
C      1  0.4403500000000  0.5729850000000  0.4418800000000 1.0
C      1  0.5402160000000  0.4275160000000  0.5451860000000 1.0
C      1  0.4683480000000  0.4131690000000  0.5565190000000 1.0
C      1  0.5873680000000  0.4722300000000  0.4676480000000 1.0
C      1  0.5124510000000  0.5528460000000  0.5159870000000 1.0
C      1  0.5526990000000  0.5369870000000  0.4518000000000 1.0
C      1  0.4700230000000  0.5430710000000  0.5269210000000 1.0
C      1  0.4812080000000  0.4638150000000  0.4126530000000 1.0
C      1  0.5430590000000  0.4506800000000  0.4688870000000 1.0
C      1  0.4324480000000  0.4640670000000  0.5431390000000 1.0
C      1  0.4181170000000  0.5446560000000  0.5039580000000 1.0
END
