TITL C-4164239-2837-143 7.49882124293674 125000 -15503.9827763715 0 0 106 (C1) n - 1
REM
REM in /home/nfs/bkarasulu/CARBON/AIRSS/Generating-Clusters/ReaxFF-fromJPCA2015/Units_Real/with-SteepDescent/Only-C1/SD-CG/Try1-3A/FIRE-CG
REM
REM
REM
REM
REM
REM ./C.cell (11c1c37f851c82e70ff6c80c92926a4b)
REM
REM compiler GCC version 9.2.1 20190827 (Red Hat 9.2.1-1)
REM options -cpp -mtune=generic -march=x86-64 -g -O0 -fpre-include=/usr/include/finclude/math-vector-fortran.h
REM seed 613484069 -1599769617 -360966658 -1599226163 -1991493542 -79090484 1691832348 -992740734 2037081739 1521211915 -589118264 -87703837 -1439219554 613856661 267272122 1385192028 -289690335 334689119 -808944548 1688460796 -1865343170 -28423597 -914981770 2121743708 -294141532 656282513 -19036573 -1092805103 -609056538 810594061 -1237747467 753286805 1981393171
REM
CELL 1.54180   50.00000   50.00000   50.00000   90.00000   90.00000   90.00000
LATT -1
SFAC C  
C      1  0.5186520000000  0.5100210000000  0.4944040000000 1.0
C      1  0.4539220000000  0.5574190000000  0.4552510000000 1.0
C      1  0.5259630000000  0.5379760000000  0.4963570000000 1.0
C      1  0.5230860000000  0.4590670000000  0.4942020000000 1.0
C      1  0.5567660000000  0.5114090000000  0.4430610000000 1.0
C      1  0.5702760000000  0.4535610000000  0.4776460000000 1.0
C      1  0.5676300000000  0.4458800000000  0.5071480000000 1.0
C      1  0.4023800000000  0.5170780000000  0.5191170000000 1.0
C      1  0.5282280000000  0.4811670000000  0.5364970000000 1.0
C      1  0.4290240000000  0.5110410000000  0.4429930000000 1.0
C      1  0.4882550000000  0.5557460000000  0.4146710000000 1.0
C      1  0.4855700000000  0.5840850000000  0.5180350000000 1.0
C      1  0.4575050000000  0.4734950000000  0.4351460000000 1.0
C      1  0.5811500000000  0.5045150000000  0.4537290000000 1.0
C      1  0.5850780000000  0.5027840000000  0.5118830000000 1.0
C      1  0.4871800000000  0.4803470000000  0.5172220000000 1.0
C      1  0.5393060000000  0.5221040000000  0.5800580000000 1.0
C      1  0.4304280000000  0.4578940000000  0.5347430000000 1.0
C      1  0.4318480000000  0.4401490000000  0.4830130000000 1.0
C      1  0.5234320000000  0.5872140000000  0.4855940000000 1.0
C      1  0.5704490000000  0.4582300000000  0.5334240000000 1.0
C      1  0.4257740000000  0.4905140000000  0.4635370000000 1.0
C      1  0.4572990000000  0.4259010000000  0.4778960000000 1.0
C      1  0.4415760000000  0.4977310000000  0.4200160000000 1.0
C      1  0.5488640000000  0.4434920000000  0.4596320000000 1.0
C      1  0.4867440000000  0.4140760000000  0.5540010000000 1.0
C      1  0.5016210000000  0.5703880000000  0.5609020000000 1.0
C      1  0.5027030000000  0.5730290000000  0.4632520000000 1.0
C      1  0.5131460000000  0.5411760000000  0.4173440000000 1.0
C      1  0.4179300000000  0.4811710000000  0.5276270000000 1.0
C      1  0.5502200000000  0.5766530000000  0.4845590000000 1.0
C      1  0.5255070000000  0.4177240000000  0.5192200000000 1.0
C      1  0.5528260000000  0.4555740000000  0.5581240000000 1.0
C      1  0.5824810000000  0.4807710000000  0.4707830000000 1.0
C      1  0.4645340000000  0.4334080000000  0.5532470000000 1.0
C      1  0.4744400000000  0.4837430000000  0.5427260000000 1.0
C      1  0.4648940000000  0.5175090000000  0.4896870000000 1.0
C      1  0.5546130000000  0.5724780000000  0.5359420000000 1.0
C      1  0.5357080000000  0.4938470000000  0.5879010000000 1.0
C      1  0.5012650000000  0.4432040000000  0.4805040000000 1.0
C      1  0.5073580000000  0.4035050000000  0.5335860000000 1.0
C      1  0.4919460000000  0.5068680000000  0.5074170000000 1.0
C      1  0.5790480000000  0.5505290000000  0.4993900000000 1.0
C      1  0.4656610000000  0.4746720000000  0.4691140000000 1.0
C      1  0.4559310000000  0.4628320000000  0.5545710000000 1.0
C      1  0.4772950000000  0.4019430000000  0.5293510000000 1.0
C      1  0.4768900000000  0.5236440000000  0.5779650000000 1.0
C      1  0.5505710000000  0.4997980000000  0.5384830000000 1.0
C      1  0.5355670000000  0.4891510000000  0.4824810000000 1.0
C      1  0.4736300000000  0.4181670000000  0.4542770000000 1.0
C      1  0.4961890000000  0.5241450000000  0.5343390000000 1.0
C      1  0.5115310000000  0.4672660000000  0.5189460000000 1.0
C      1  0.4540280000000  0.5314130000000  0.5616080000000 1.0
C      1  0.4925040000000  0.4880350000000  0.4659680000000 1.0
C      1  0.4583370000000  0.4809670000000  0.5819450000000 1.0
C      1  0.4627090000000  0.5371430000000  0.4192100000000 1.0
C      1  0.5950590000000  0.5419400000000  0.5439770000000 1.0
C      1  0.4843970000000  0.4746700000000  0.5922410000000 1.0
C      1  0.5100590000000  0.4613200000000  0.3995230000000 1.0
C      1  0.4045970000000  0.5425900000000  0.5153040000000 1.0
C      1  0.5192980000000  0.5402000000000  0.5826710000000 1.0
C      1  0.4915340000000  0.5036910000000  0.5568590000000 1.0
C      1  0.4765530000000  0.5646650000000  0.4958230000000 1.0
C      1  0.4356760000000  0.4390540000000  0.5126330000000 1.0
C      1  0.5075920000000  0.5655230000000  0.4330850000000 1.0
C      1  0.4272550000000  0.5478920000000  0.5104780000000 1.0
C      1  0.4730190000000  0.4499880000000  0.4844970000000 1.0
C      1  0.5413040000000  0.4338620000000  0.5036510000000 1.0
C      1  0.5369710000000  0.4938020000000  0.4522760000000 1.0
C      1  0.5101200000000  0.4814530000000  0.5758590000000 1.0
C      1  0.4707320000000  0.5746170000000  0.4677150000000 1.0
C      1  0.5220480000000  0.5394430000000  0.5295800000000 1.0
C      1  0.5082730000000  0.4593600000000  0.4279850000000 1.0
C      1  0.4516150000000  0.5141060000000  0.3989220000000 1.0
C      1  0.4686050000000  0.5421330000000  0.5381130000000 1.0
C      1  0.4952190000000  0.5513540000000  0.5815420000000 1.0
C      1  0.4808490000000  0.5192620000000  0.4350890000000 1.0
C      1  0.4813440000000  0.5159250000000  0.4637840000000 1.0
C      1  0.4382790000000  0.4507060000000  0.4379020000000 1.0
C      1  0.5567090000000  0.5457390000000  0.4813030000000 1.0
C      1  0.4614080000000  0.4319950000000  0.4318640000000 1.0
C      1  0.5763740000000  0.4868050000000  0.5349920000000 1.0
C      1  0.4251390000000  0.4605250000000  0.4620430000000 1.0
C      1  0.4546100000000  0.4218420000000  0.5281650000000 1.0
C      1  0.5134630000000  0.5877610000000  0.5130060000000 1.0
C      1  0.5199330000000  0.4885380000000  0.4298940000000 1.0
C      1  0.4793210000000  0.5708080000000  0.5429300000000 1.0
C      1  0.5687260000000  0.5304580000000  0.4590800000000 1.0
C      1  0.5055940000000  0.5126300000000  0.4215040000000 1.0
C      1  0.5454600000000  0.5272640000000  0.5491810000000 1.0
C      1  0.4764370000000  0.4548650000000  0.4214410000000 1.0
C      1  0.4515520000000  0.5099920000000  0.5801170000000 1.0
C      1  0.5661240000000  0.5748590000000  0.5091700000000 1.0
C      1  0.5671560000000  0.5503370000000  0.5497980000000 1.0
C      1  0.5249080000000  0.4360500000000  0.4462590000000 1.0
C      1  0.5665630000000  0.4932070000000  0.4912300000000 1.0
C      1  0.4444590000000  0.4957910000000  0.4857520000000 1.0
C      1  0.5244110000000  0.5698710000000  0.5364700000000 1.0
C      1  0.4203070000000  0.4973860000000  0.5097170000000 1.0
C      1  0.5023920000000  0.4229900000000  0.4598300000000 1.0
C      1  0.5024550000000  0.5516830000000  0.4835540000000 1.0
C      1  0.5241530000000  0.4613420000000  0.5567450000000 1.0
C      1  0.4554580000000  0.5426830000000  0.5078920000000 1.0
C      1  0.4399210000000  0.5391260000000  0.4408960000000 1.0
C      1  0.5562340000000  0.4731980000000  0.5823050000000 1.0
C      1  0.5928660000000  0.5310540000000  0.5156070000000 1.0
END
