TITL C-4164234-2335-162 -4.92292970805062 125000 -9205.60832057608 0 0 64 (C1) n - 1
REM
REM in /home/nfs/bkarasulu/CARBON/AIRSS/Generating-Clusters/ReaxFF-fromJPCA2015/Units_Real/with-SteepDescent/Only-C1/SD-CG/Try1-3A/FIRE-CG
REM
REM
REM
REM
REM
REM ./C.cell (11c1c37f851c82e70ff6c80c92926a4b)
REM
REM compiler GCC version 9.2.1 20190827 (Red Hat 9.2.1-1)
REM options -cpp -mtune=generic -march=x86-64 -g -O0 -fpre-include=/usr/include/finclude/math-vector-fortran.h
REM seed -1302228141 -107042621 15903219 1351887940 -900133181 876470382 905934740 1083329402 1293517162 -1672394178 484226844 -1031894460 1592541985 1247310726 -1624374205 242856495 1416864317 -1472844033 1313166895 1363006330 -185222468 1154271922 512724353 -1525010236 -1855932116 -135096902 -1883345070 -1031671866 1864597890 1337561969 -2133968411 123371301 -196751996
REM
CELL 1.54180   50.00000   50.00000   50.00000   90.00000   90.00000   90.00000
LATT -1
SFAC C  
C      1  0.4431250000000  0.5710020000000  0.5119970000000 1.0
C      1  0.5138640000000  0.5314450000000  0.5490510000000 1.0
C      1  0.4606130000000  0.5629390000000  0.4695640000000 1.0
C      1  0.5169450000000  0.4512240000000  0.5643260000000 1.0
C      1  0.5463280000000  0.4576570000000  0.4677950000000 1.0
C      1  0.5452350000000  0.4319260000000  0.5091170000000 1.0
C      1  0.5041020000000  0.4748590000000  0.5779610000000 1.0
C      1  0.4784910000000  0.5295600000000  0.4925950000000 1.0
C      1  0.4336030000000  0.5506780000000  0.4700370000000 1.0
C      1  0.5204090000000  0.5663960000000  0.4964600000000 1.0
C      1  0.4951160000000  0.5078610000000  0.4912630000000 1.0
C      1  0.4364220000000  0.5212590000000  0.4677900000000 1.0
C      1  0.5391280000000  0.5106260000000  0.4948610000000 1.0
C      1  0.5670150000000  0.5232860000000  0.5301990000000 1.0
C      1  0.4713480000000  0.4370910000000  0.5423560000000 1.0
C      1  0.5118320000000  0.4648180000000  0.5157620000000 1.0
C      1  0.5396590000000  0.5631270000000  0.5089510000000 1.0
C      1  0.4862470000000  0.4484540000000  0.4465920000000 1.0
C      1  0.4526180000000  0.4517620000000  0.5278910000000 1.0
C      1  0.4698420000000  0.5252710000000  0.5639030000000 1.0
C      1  0.5432730000000  0.5304760000000  0.5460930000000 1.0
C      1  0.5618810000000  0.4766770000000  0.5123460000000 1.0
C      1  0.4974320000000  0.4469680000000  0.5814160000000 1.0
C      1  0.4459060000000  0.5216180000000  0.4981300000000 1.0
C      1  0.4683200000000  0.5725170000000  0.4958520000000 1.0
C      1  0.5119040000000  0.4536140000000  0.4356170000000 1.0
C      1  0.5096890000000  0.5033270000000  0.4688920000000 1.0
C      1  0.4730710000000  0.5542860000000  0.5551700000000 1.0
C      1  0.5206740000000  0.4821290000000  0.4335560000000 1.0
C      1  0.4911360000000  0.4881940000000  0.5561000000000 1.0
C      1  0.5351100000000  0.4894240000000  0.5133120000000 1.0
C      1  0.5006490000000  0.4798080000000  0.5321890000000 1.0
C      1  0.4967580000000  0.5138940000000  0.5662180000000 1.0
C      1  0.5249400000000  0.4398560000000  0.4583210000000 1.0
C      1  0.5213490000000  0.4373470000000  0.5264280000000 1.0
C      1  0.5832120000000  0.5036560000000  0.4821890000000 1.0
C      1  0.5059420000000  0.4344830000000  0.4793080000000 1.0
C      1  0.5475940000000  0.5280740000000  0.4730880000000 1.0
C      1  0.4565210000000  0.5659940000000  0.5360120000000 1.0
C      1  0.4994890000000  0.5014290000000  0.4303280000000 1.0
C      1  0.4296980000000  0.5475760000000  0.4987060000000 1.0
C      1  0.4576990000000  0.5169040000000  0.4487580000000 1.0
C      1  0.4964790000000  0.5516340000000  0.5372270000000 1.0
C      1  0.4411320000000  0.5011670000000  0.5207420000000 1.0
C      1  0.5561650000000  0.5506070000000  0.5282400000000 1.0
C      1  0.4644020000000  0.4657130000000  0.4408960000000 1.0
C      1  0.4375890000000  0.4714440000000  0.5149580000000 1.0
C      1  0.4904410000000  0.4833310000000  0.4782330000000 1.0
C      1  0.5411460000000  0.4840750000000  0.4553550000000 1.0
C      1  0.4513570000000  0.5105580000000  0.5461140000000 1.0
C      1  0.5582820000000  0.4534060000000  0.4940880000000 1.0
C      1  0.4758850000000  0.5381570000000  0.4620050000000 1.0
C      1  0.5781330000000  0.5014700000000  0.5119350000000 1.0
C      1  0.5633190000000  0.5052450000000  0.4605760000000 1.0
C      1  0.4970710000000  0.4309290000000  0.5576410000000 1.0
C      1  0.4980690000000  0.4588370000000  0.4915670000000 1.0
C      1  0.5289940000000  0.5425240000000  0.4546890000000 1.0
C      1  0.4911580000000  0.5556810000000  0.5071560000000 1.0
C      1  0.4516120000000  0.4587500000000  0.4651030000000 1.0
C      1  0.4427400000000  0.4614590000000  0.4894050000000 1.0
C      1  0.5049210000000  0.5251460000000  0.4489530000000 1.0
C      1  0.5256750000000  0.5633050000000  0.4720520000000 1.0
C      1  0.4715920000000  0.4952200000000  0.4352930000000 1.0
C      1  0.5196490000000  0.4218480000000  0.5012720000000 1.0
END
