TITL C-4164237-1827-559 48.5555412738137 125000 -30045.5790760349 0 0 199 (C1) n - 1
REM
REM in /home/nfs/bkarasulu/CARBON/AIRSS/Generating-Clusters/ReaxFF-fromJPCA2015/Units_Real/with-SteepDescent/Only-C1/SD-CG/Try1-3A/FIRE-CG
REM
REM
REM
REM
REM
REM ./C.cell (11c1c37f851c82e70ff6c80c92926a4b)
REM
REM compiler GCC version 9.2.1 20190827 (Red Hat 9.2.1-1)
REM options -cpp -mtune=generic -march=x86-64 -g -O0 -fpre-include=/usr/include/finclude/math-vector-fortran.h
REM seed -682158290 -557341645 -471902241 -618047417 1386453830 -2049456229 838176198 1987663519 1777224020 1111493515 -690771703 -41991924 1656203288 -227148449 -349981701 1706472991 996591667 -1739740187 1868166488 1139135743 1953020131 738600420 1397201015 -930766168 428100996 -703044791 1065823935 119602255 -1334564798 -1674709376 1059993950 -257292604 440190310
REM
CELL 1.54180   50.00000   50.00000   50.00000   90.00000   90.00000   90.00000
LATT -1
SFAC C  
C      1  0.3917840000000  0.4711030000000  0.4533230000000 1.0
C      1  0.4646560000000  0.5773510000000  0.4683200000000 1.0
C      1  0.4045170000000  0.5598360000000  0.5375750000000 1.0
C      1  0.5826790000000  0.4870160000000  0.5673980000000 1.0
C      1  0.4779430000000  0.4666870000000  0.4549840000000 1.0
C      1  0.5346760000000  0.5327490000000  0.4118420000000 1.0
C      1  0.5604230000000  0.5871440000000  0.5464040000000 1.0
C      1  0.4072640000000  0.4307210000000  0.4794290000000 1.0
C      1  0.4369580000000  0.4706870000000  0.4732830000000 1.0
C      1  0.5863290000000  0.4803850000000  0.4998610000000 1.0
C      1  0.4264870000000  0.5743520000000  0.4442470000000 1.0
C      1  0.4631990000000  0.4693190000000  0.6202250000000 1.0
C      1  0.4365290000000  0.4264450000000  0.4395350000000 1.0
C      1  0.5441490000000  0.4877610000000  0.4708350000000 1.0
C      1  0.5499100000000  0.5144640000000  0.4568390000000 1.0
C      1  0.5379460000000  0.5490550000000  0.5473980000000 1.0
C      1  0.5181330000000  0.4719120000000  0.6072680000000 1.0
C      1  0.4734260000000  0.3945860000000  0.4895490000000 1.0
C      1  0.3924290000000  0.4943610000000  0.4870550000000 1.0
C      1  0.5869140000000  0.5441490000000  0.5488210000000 1.0
C      1  0.5156210000000  0.5086430000000  0.3825010000000 1.0
C      1  0.4192760000000  0.4414480000000  0.5537120000000 1.0
C      1  0.4997130000000  0.4690670000000  0.4039590000000 1.0
C      1  0.6056640000000  0.5305290000000  0.5000660000000 1.0
C      1  0.5784220000000  0.4887010000000  0.4196970000000 1.0
C      1  0.5041640000000  0.5879260000000  0.4414680000000 1.0
C      1  0.6116560000000  0.4540540000000  0.4807740000000 1.0
C      1  0.4254930000000  0.5666790000000  0.5560700000000 1.0
C      1  0.4465090000000  0.5610720000000  0.4015330000000 1.0
C      1  0.5891850000000  0.4555240000000  0.4594750000000 1.0
C      1  0.4554540000000  0.4586400000000  0.4927420000000 1.0
C      1  0.5003290000000  0.4949860000000  0.6046560000000 1.0
C      1  0.5100090000000  0.5963550000000  0.5328400000000 1.0
C      1  0.5597390000000  0.4333070000000  0.4284510000000 1.0
C      1  0.5521910000000  0.3929300000000  0.4729600000000 1.0
C      1  0.4671800000000  0.4381990000000  0.4136940000000 1.0
C      1  0.5521980000000  0.5346470000000  0.4770250000000 1.0
C      1  0.4057860000000  0.4654980000000  0.5650010000000 1.0
C      1  0.5555450000000  0.4181700000000  0.5237300000000 1.0
C      1  0.5683390000000  0.4866500000000  0.6110080000000 1.0
C      1  0.4963240000000  0.4928010000000  0.5426630000000 1.0
C      1  0.4710670000000  0.4956400000000  0.6116030000000 1.0
C      1  0.4409890000000  0.5804580000000  0.4205950000000 1.0
C      1  0.4518480000000  0.4408610000000  0.5145340000000 1.0
C      1  0.5039690000000  0.4023140000000  0.5348600000000 1.0
C      1  0.5531690000000  0.5740820000000  0.4497990000000 1.0
C      1  0.4031590000000  0.4944040000000  0.5727920000000 1.0
C      1  0.5190970000000  0.4478750000000  0.4084650000000 1.0
C      1  0.4653010000000  0.4213600000000  0.4298470000000 1.0
C      1  0.6199550000000  0.4822390000000  0.4769940000000 1.0
C      1  0.4857610000000  0.5433970000000  0.5336050000000 1.0
C      1  0.5053700000000  0.5475840000000  0.4050120000000 1.0
C      1  0.4758630000000  0.4787940000000  0.5000490000000 1.0
C      1  0.5166150000000  0.5099960000000  0.5486540000000 1.0
C      1  0.4754310000000  0.5066930000000  0.4985540000000 1.0
C      1  0.4216530000000  0.4778110000000  0.5834020000000 1.0
C      1  0.5954440000000  0.5463220000000  0.4521650000000 1.0
C      1  0.5049020000000  0.4315980000000  0.5174610000000 1.0
C      1  0.5013830000000  0.5155090000000  0.4903150000000 1.0
C      1  0.3918070000000  0.5178030000000  0.5275580000000 1.0
C      1  0.4375540000000  0.5827960000000  0.4699020000000 1.0
C      1  0.5010750000000  0.4863710000000  0.3860730000000 1.0
C      1  0.5371230000000  0.4402810000000  0.5163480000000 1.0
C      1  0.5825550000000  0.4716600000000  0.5423770000000 1.0
C      1  0.5969180000000  0.4754210000000  0.4369050000000 1.0
C      1  0.5122900000000  0.4781280000000  0.5255800000000 1.0
C      1  0.4119840000000  0.5001690000000  0.4324270000000 1.0
C      1  0.5354130000000  0.4036630000000  0.5398890000000 1.0
C      1  0.4440490000000  0.5864200000000  0.5443630000000 1.0
C      1  0.4844730000000  0.5957120000000  0.4620830000000 1.0
C      1  0.5128980000000  0.5884030000000  0.5605690000000 1.0
C      1  0.5033000000000  0.4991230000000  0.4291260000000 1.0
C      1  0.4901030000000  0.4149730000000  0.4399330000000 1.0
C      1  0.4290910000000  0.4157220000000  0.4675070000000 1.0
C      1  0.4628720000000  0.5133990000000  0.3988730000000 1.0
C      1  0.4914810000000  0.4466040000000  0.5386520000000 1.0
C      1  0.5398760000000  0.4107140000000  0.4885240000000 1.0
C      1  0.5088330000000  0.5444560000000  0.5930810000000 1.0
C      1  0.5109720000000  0.5365960000000  0.5452100000000 1.0
C      1  0.4464120000000  0.4855470000000  0.5726120000000 1.0
C      1  0.4027670000000  0.4434860000000  0.5057100000000 1.0
C      1  0.4553560000000  0.4835520000000  0.4565180000000 1.0
C      1  0.4689070000000  0.5953670000000  0.5553390000000 1.0
C      1  0.4672100000000  0.5778200000000  0.4105550000000 1.0
C      1  0.3999060000000  0.5425960000000  0.4912760000000 1.0
C      1  0.5862910000000  0.5735360000000  0.5461290000000 1.0
C      1  0.5929550000000  0.5806530000000  0.5198900000000 1.0
C      1  0.4613840000000  0.4498690000000  0.5398520000000 1.0
C      1  0.5541360000000  0.4827440000000  0.4062110000000 1.0
C      1  0.5373140000000  0.4685590000000  0.5335580000000 1.0
C      1  0.5645850000000  0.5346320000000  0.5647080000000 1.0
C      1  0.4288520000000  0.5809980000000  0.4977320000000 1.0
C      1  0.5556590000000  0.5367630000000  0.5952490000000 1.0
C      1  0.4137310000000  0.5483630000000  0.4431260000000 1.0
C      1  0.5318030000000  0.5945680000000  0.4471340000000 1.0
C      1  0.4872820000000  0.5802580000000  0.5727670000000 1.0
C      1  0.5151140000000  0.5152810000000  0.5909860000000 1.0
C      1  0.5497770000000  0.5319020000000  0.5046670000000 1.0
C      1  0.5747670000000  0.5151290000000  0.4317690000000 1.0
C      1  0.6008280000000  0.5196430000000  0.4434620000000 1.0
C      1  0.4134340000000  0.4296190000000  0.5281940000000 1.0
C      1  0.6002170000000  0.5801120000000  0.4919630000000 1.0
C      1  0.4880220000000  0.6107360000000  0.4865330000000 1.0
C      1  0.5311790000000  0.4417280000000  0.4626850000000 1.0
C      1  0.4625210000000  0.5282430000000  0.5420090000000 1.0
C      1  0.4422440000000  0.5321750000000  0.4054620000000 1.0
C      1  0.5563160000000  0.4504250000000  0.5790890000000 1.0
C      1  0.5190580000000  0.5656160000000  0.4866320000000 1.0
C      1  0.4579380000000  0.5074990000000  0.5879660000000 1.0
C      1  0.5778480000000  0.4289580000000  0.4508940000000 1.0
C      1  0.4586400000000  0.5351420000000  0.5768730000000 1.0
C      1  0.5789050000000  0.4186590000000  0.5030290000000 1.0
C      1  0.5625900000000  0.5384530000000  0.4168540000000 1.0
C      1  0.5072750000000  0.4223720000000  0.5790140000000 1.0
C      1  0.5408660000000  0.6079120000000  0.4996070000000 1.0
C      1  0.4185850000000  0.5118240000000  0.5274810000000 1.0
C      1  0.4196220000000  0.5264830000000  0.4240390000000 1.0
C      1  0.4758100000000  0.4464050000000  0.4748090000000 1.0
C      1  0.5729360000000  0.5576100000000  0.4358990000000 1.0
C      1  0.5464970000000  0.4550600000000  0.4116680000000 1.0
C      1  0.4724410000000  0.4631300000000  0.4027940000000 1.0
C      1  0.4919870000000  0.5256300000000  0.3924320000000 1.0
C      1  0.5357610000000  0.4223090000000  0.4406210000000 1.0
C      1  0.4075440000000  0.5235920000000  0.5685570000000 1.0
C      1  0.4460210000000  0.4029080000000  0.4867480000000 1.0
C      1  0.5419690000000  0.4870540000000  0.6173360000000 1.0
C      1  0.4833620000000  0.5176200000000  0.4402550000000 1.0
C      1  0.4723410000000  0.5554040000000  0.4836090000000 1.0
C      1  0.5121820000000  0.4235510000000  0.4237670000000 1.0
C      1  0.5358090000000  0.5567010000000  0.5914480000000 1.0
C      1  0.4457650000000  0.5941320000000  0.5162710000000 1.0
C      1  0.5998750000000  0.4629960000000  0.5203800000000 1.0
C      1  0.5762000000000  0.4105540000000  0.4743660000000 1.0
C      1  0.4306720000000  0.4517510000000  0.4281670000000 1.0
C      1  0.5363130000000  0.6120750000000  0.4708140000000 1.0
C      1  0.5443170000000  0.5562870000000  0.5196270000000 1.0
C      1  0.5657380000000  0.5119100000000  0.5197110000000 1.0
C      1  0.5602880000000  0.4865910000000  0.5307720000000 1.0
C      1  0.6074020000000  0.5014830000000  0.4953890000000 1.0
C      1  0.4838630000000  0.6072780000000  0.5343270000000 1.0
C      1  0.4590580000000  0.5107530000000  0.4539200000000 1.0
C      1  0.6007210000000  0.4387000000000  0.5036480000000 1.0
C      1  0.4125370000000  0.4563820000000  0.4655380000000 1.0
C      1  0.4049070000000  0.4739190000000  0.5057430000000 1.0
C      1  0.4239140000000  0.4842520000000  0.5243690000000 1.0
C      1  0.4705270000000  0.6083250000000  0.5098510000000 1.0
C      1  0.4293780000000  0.5425850000000  0.5723220000000 1.0
C      1  0.4569650000000  0.3979250000000  0.5327090000000 1.0
C      1  0.5001900000000  0.5445460000000  0.4765400000000 1.0
C      1  0.3912340000000  0.5360610000000  0.5475580000000 1.0
C      1  0.4827380000000  0.5611290000000  0.5113930000000 1.0
C      1  0.5349980000000  0.4090800000000  0.5686740000000 1.0
C      1  0.4289810000000  0.4785640000000  0.4187670000000 1.0
C      1  0.5671850000000  0.4682760000000  0.4815770000000 1.0
C      1  0.4966040000000  0.4066410000000  0.4712370000000 1.0
C      1  0.5457200000000  0.4405890000000  0.4876460000000 1.0
C      1  0.5231190000000  0.3935780000000  0.4766180000000 1.0
C      1  0.6023300000000  0.5516100000000  0.4799500000000 1.0
C      1  0.4400020000000  0.5313680000000  0.5217200000000 1.0
C      1  0.4473790000000  0.5305820000000  0.4735470000000 1.0
C      1  0.5036270000000  0.4712150000000  0.4987630000000 1.0
C      1  0.5339320000000  0.4588300000000  0.5610720000000 1.0
C      1  0.4518400000000  0.5208660000000  0.4986140000000 1.0
C      1  0.5074160000000  0.4487180000000  0.5627940000000 1.0
C      1  0.4896780000000  0.4078480000000  0.5605880000000 1.0
C      1  0.4133140000000  0.5599250000000  0.5098610000000 1.0
C      1  0.5762140000000  0.4703640000000  0.5898160000000 1.0
C      1  0.5182230000000  0.4941860000000  0.4875160000000 1.0
C      1  0.4388960000000  0.4144250000000  0.5155860000000 1.0
C      1  0.3856800000000  0.5191140000000  0.5010050000000 1.0
C      1  0.5242800000000  0.5202790000000  0.4383330000000 1.0
C      1  0.5333250000000  0.5038270000000  0.5708300000000 1.0
C      1  0.5031760000000  0.4748640000000  0.4445650000000 1.0
C      1  0.4176870000000  0.5369830000000  0.4693580000000 1.0
C      1  0.5285980000000  0.4683140000000  0.4551380000000 1.0
C      1  0.4615950000000  0.4098470000000  0.5573280000000 1.0
C      1  0.5049730000000  0.4454520000000  0.6041050000000 1.0
C      1  0.4970100000000  0.4323830000000  0.4879250000000 1.0
C      1  0.4802150000000  0.4541410000000  0.6144540000000 1.0
C      1  0.4691150000000  0.5000200000000  0.5420930000000 1.0
C      1  0.3926540000000  0.4982550000000  0.4564480000000 1.0
C      1  0.4491770000000  0.4797350000000  0.5435740000000 1.0
C      1  0.5447350000000  0.5609990000000  0.4738230000000 1.0
C      1  0.4945180000000  0.5708870000000  0.4186640000000 1.0
C      1  0.6132850000000  0.4943370000000  0.4503450000000 1.0
C      1  0.5557190000000  0.4230530000000  0.5810620000000 1.0
C      1  0.5078430000000  0.5756760000000  0.5105990000000 1.0
C      1  0.5614540000000  0.5071810000000  0.5660980000000 1.0
C      1  0.4829720000000  0.5542290000000  0.5843180000000 1.0
C      1  0.4802790000000  0.3915030000000  0.5174470000000 1.0
C      1  0.5482630000000  0.5860240000000  0.5195000000000 1.0
C      1  0.4541710000000  0.4865710000000  0.4046630000000 1.0
C      1  0.5410150000000  0.5081680000000  0.3972480000000 1.0
C      1  0.5551340000000  0.5126510000000  0.6119510000000 1.0
C      1  0.4469370000000  0.4335870000000  0.5597070000000 1.0
C      1  0.5155970000000  0.6200140000000  0.4899820000000 1.0
C      1  0.5025060000000  0.5360170000000  0.4494440000000 1.0
C      1  0.5910600000000  0.5273510000000  0.5257690000000 1.0
C      1  0.5392230000000  0.5767840000000  0.5670450000000 1.0
END
