TITL C-4164238-4211-159 8.67967823482 125000 -4501.25284603628 0 0 32 (C1) n - 1
REM
REM in /home/nfs/bkarasulu/CARBON/AIRSS/Generating-Clusters/ReaxFF-fromJPCA2015/Units_Real/with-SteepDescent/Only-C1/SD-CG/Try1-3A/FIRE-CG
REM
REM
REM
REM
REM
REM ./C.cell (11c1c37f851c82e70ff6c80c92926a4b)
REM
REM compiler GCC version 9.2.1 20190827 (Red Hat 9.2.1-1)
REM options -cpp -mtune=generic -march=x86-64 -g -O0 -fpre-include=/usr/include/finclude/math-vector-fortran.h
REM seed 1106580792 -958265632 1050254818 -317060583 1205338967 -59353122 663351449 -579204864 -2098284890 1444429017 836252854 -673783392 2025620753 -1838041216 605842265 -657455450 -1324499618 -472024020 188511958 641880227 1565506229 99449069 -1858839632 -116450216 -1580056773 -933527501 209408416 1529373347 89156538 1133809372 -1551285152 -309643272 1723445542
REM
CELL 1.54180   50.00000   50.00000   50.00000   90.00000   90.00000   90.00000
LATT -1
SFAC C  
C      1  0.5406540000000  0.5805630000000  0.4579720000000 1.0
C      1  0.4448990000000  0.4875720000000  0.4717270000000 1.0
C      1  0.5542610000000  0.5355650000000  0.4832070000000 1.0
C      1  0.4957390000000  0.4738550000000  0.5174430000000 1.0
C      1  0.4974590000000  0.5514080000000  0.4809230000000 1.0
C      1  0.4952800000000  0.4741030000000  0.4592300000000 1.0
C      1  0.5431560000000  0.4773130000000  0.5295220000000 1.0
C      1  0.4696480000000  0.4452790000000  0.5272090000000 1.0
C      1  0.5519890000000  0.5552700000000  0.4724080000000 1.0
C      1  0.5310410000000  0.4917970000000  0.4858420000000 1.0
C      1  0.5139180000000  0.5730160000000  0.4677550000000 1.0
C      1  0.5342350000000  0.4980860000000  0.5472730000000 1.0
C      1  0.5046000000000  0.5034440000000  0.5500890000000 1.0
C      1  0.4453820000000  0.5201930000000  0.5171120000000 1.0
C      1  0.5242370000000  0.4690670000000  0.5061470000000 1.0
C      1  0.5112590000000  0.4980410000000  0.4657140000000 1.0
C      1  0.4679970000000  0.4415940000000  0.5026120000000 1.0
C      1  0.4660760000000  0.4691230000000  0.4619570000000 1.0
C      1  0.5025690000000  0.4464090000000  0.4692240000000 1.0
C      1  0.4789190000000  0.5147190000000  0.4920210000000 1.0
C      1  0.4903750000000  0.4823260000000  0.5643290000000 1.0
C      1  0.4632100000000  0.5432920000000  0.5240140000000 1.0
C      1  0.4906070000000  0.5021400000000  0.5203930000000 1.0
C      1  0.5235860000000  0.4420260000000  0.4879510000000 1.0
C      1  0.5540900000000  0.5034770000000  0.5257730000000 1.0
C      1  0.4957690000000  0.5230370000000  0.4705330000000 1.0
C      1  0.4804430000000  0.5570830000000  0.5045880000000 1.0
C      1  0.4498240000000  0.5114960000000  0.4888830000000 1.0
C      1  0.4686530000000  0.5155560000000  0.5337570000000 1.0
C      1  0.5502530000000  0.5097120000000  0.4968690000000 1.0
C      1  0.4721290000000  0.4429020000000  0.4755790000000 1.0
C      1  0.4877420000000  0.4605380000000  0.5419450000000 1.0
END
