TITL C-4164244-2836-536 36.6876177561421 125000 -25979.9737682413 0 0 173 (C1) n - 1
REM
REM in /home/nfs/bkarasulu/CARBON/AIRSS/Generating-Clusters/ReaxFF-fromJPCA2015/Units_Real/with-SteepDescent/Only-C1/SD-CG/Try1-3A/FIRE-CG
REM
REM
REM
REM
REM
REM ./C.cell (11c1c37f851c82e70ff6c80c92926a4b)
REM
REM compiler GCC version 9.2.1 20190827 (Red Hat 9.2.1-1)
REM options -cpp -mtune=generic -march=x86-64 -g -O0 -fpre-include=/usr/include/finclude/math-vector-fortran.h
REM seed -284471885 313883735 1711058556 1863571779 -1912988485 734327590 2117774771 1429201966 851121971 682112051 1028847972 -195718024 509998404 1275597473 858034420 -1987780540 -1879061777 323028943 -738582732 -567258518 -1053684916 -176041592 1157033227 353293189 -75458660 -1580236785 -349365629 151288593 1467583451 2032922358 -186571277 -854106832 -1602366368
REM
CELL 1.54180   50.00000   50.00000   50.00000   90.00000   90.00000   90.00000
LATT -1
SFAC C  
C      1  0.6104850000000  0.5384070000000  0.4704100000000 1.0
C      1  0.4879180000000  0.4749740000000  0.4392910000000 1.0
C      1  0.4045290000000  0.4542340000000  0.4591510000000 1.0
C      1  0.5377480000000  0.5252500000000  0.4528550000000 1.0
C      1  0.5634780000000  0.4188960000000  0.5544310000000 1.0
C      1  0.4824960000000  0.3831140000000  0.5152090000000 1.0
C      1  0.4017960000000  0.5213050000000  0.4870750000000 1.0
C      1  0.4319550000000  0.5208140000000  0.5844090000000 1.0
C      1  0.4751280000000  0.5461610000000  0.5987460000000 1.0
C      1  0.5028900000000  0.4461900000000  0.5860160000000 1.0
C      1  0.5153650000000  0.3899850000000  0.5421970000000 1.0
C      1  0.5009480000000  0.4413080000000  0.5320690000000 1.0
C      1  0.5765740000000  0.5186440000000  0.4087400000000 1.0
C      1  0.4619440000000  0.5240880000000  0.4373940000000 1.0
C      1  0.4672720000000  0.4790670000000  0.4962870000000 1.0
C      1  0.4387080000000  0.5123780000000  0.5114530000000 1.0
C      1  0.5021320000000  0.4697740000000  0.5355390000000 1.0
C      1  0.5510580000000  0.5077080000000  0.5900020000000 1.0
C      1  0.5980430000000  0.4923590000000  0.5339600000000 1.0
C      1  0.4054070000000  0.5477190000000  0.5000500000000 1.0
C      1  0.4189970000000  0.5999320000000  0.5443300000000 1.0
C      1  0.5129330000000  0.4858980000000  0.5173780000000 1.0
C      1  0.5215220000000  0.4049900000000  0.4956000000000 1.0
C      1  0.5731240000000  0.4673560000000  0.4082570000000 1.0
C      1  0.4809100000000  0.4929650000000  0.4742240000000 1.0
C      1  0.4394580000000  0.3970820000000  0.5022690000000 1.0
C      1  0.4454760000000  0.5959230000000  0.5540210000000 1.0
C      1  0.5719780000000  0.4114730000000  0.5034800000000 1.0
C      1  0.4697360000000  0.4657290000000  0.4190660000000 1.0
C      1  0.4572660000000  0.5208710000000  0.5993260000000 1.0
C      1  0.4187220000000  0.4069420000000  0.5171690000000 1.0
C      1  0.4719480000000  0.4387700000000  0.5359150000000 1.0
C      1  0.5557750000000  0.5546280000000  0.5641120000000 1.0
C      1  0.4047410000000  0.4202390000000  0.4948800000000 1.0
C      1  0.4628960000000  0.5116240000000  0.4645290000000 1.0
C      1  0.5386300000000  0.4040800000000  0.5514070000000 1.0
C      1  0.5616040000000  0.4448250000000  0.5702090000000 1.0
C      1  0.4287120000000  0.4364270000000  0.5632060000000 1.0
C      1  0.5303270000000  0.5357170000000  0.5039880000000 1.0
C      1  0.3978690000000  0.4484030000000  0.5040450000000 1.0
C      1  0.5023350000000  0.5477810000000  0.6026710000000 1.0
C      1  0.5290510000000  0.5539070000000  0.5973070000000 1.0
C      1  0.4551780000000  0.4282190000000  0.5745100000000 1.0
C      1  0.4672880000000  0.6134670000000  0.4626320000000 1.0
C      1  0.4528440000000  0.5693550000000  0.4939920000000 1.0
C      1  0.4936640000000  0.5434070000000  0.5524330000000 1.0
C      1  0.5356600000000  0.6018140000000  0.4749400000000 1.0
C      1  0.5756050000000  0.5519480000000  0.5116130000000 1.0
C      1  0.5594000000000  0.4568710000000  0.4530390000000 1.0
C      1  0.4217750000000  0.4707580000000  0.4421350000000 1.0
C      1  0.5423790000000  0.4788370000000  0.4552710000000 1.0
C      1  0.4007510000000  0.5092770000000  0.5390210000000 1.0
C      1  0.4981910000000  0.5523770000000  0.4650880000000 1.0
C      1  0.5051670000000  0.4490230000000  0.4814910000000 1.0
C      1  0.4729610000000  0.4462560000000  0.5886460000000 1.0
C      1  0.5522640000000  0.5804130000000  0.4426510000000 1.0
C      1  0.5036100000000  0.4960900000000  0.4307400000000 1.0
C      1  0.4161930000000  0.4621100000000  0.5597750000000 1.0
C      1  0.5498780000000  0.5193700000000  0.4003110000000 1.0
C      1  0.5335540000000  0.4897540000000  0.4798270000000 1.0
C      1  0.4772890000000  0.5414970000000  0.5280080000000 1.0
C      1  0.5483170000000  0.5807330000000  0.5248200000000 1.0
C      1  0.5283530000000  0.5982840000000  0.4461980000000 1.0
C      1  0.4703780000000  0.3887040000000  0.4617270000000 1.0
C      1  0.5867990000000  0.5355250000000  0.4524830000000 1.0
C      1  0.5208370000000  0.5927190000000  0.5581410000000 1.0
C      1  0.5030980000000  0.5795450000000  0.5081830000000 1.0
C      1  0.4416350000000  0.5569780000000  0.5433600000000 1.0
C      1  0.4085010000000  0.4828680000000  0.5461920000000 1.0
C      1  0.4416550000000  0.5271930000000  0.5419950000000 1.0
C      1  0.4033830000000  0.5476400000000  0.5284570000000 1.0
C      1  0.4907650000000  0.5194690000000  0.4173300000000 1.0
C      1  0.4468610000000  0.4573240000000  0.4357260000000 1.0
C      1  0.4708850000000  0.4178770000000  0.4222400000000 1.0
C      1  0.5364450000000  0.4017100000000  0.4683990000000 1.0
C      1  0.4571870000000  0.4910620000000  0.4028430000000 1.0
C      1  0.5435890000000  0.4687130000000  0.4005080000000 1.0
C      1  0.5362030000000  0.4964580000000  0.4063380000000 1.0
C      1  0.4104140000000  0.5054190000000  0.5103790000000 1.0
C      1  0.5655660000000  0.4507670000000  0.5263420000000 1.0
C      1  0.5744700000000  0.4461730000000  0.4282270000000 1.0
C      1  0.4969400000000  0.3954470000000  0.4564460000000 1.0
C      1  0.5743180000000  0.4929030000000  0.5521760000000 1.0
C      1  0.6074020000000  0.4881600000000  0.4696020000000 1.0
C      1  0.4630440000000  0.4658430000000  0.5398420000000 1.0
C      1  0.4488740000000  0.5502470000000  0.4394930000000 1.0
C      1  0.5827200000000  0.4756510000000  0.5128800000000 1.0
C      1  0.4761920000000  0.5080750000000  0.3902950000000 1.0
C      1  0.4691170000000  0.6223110000000  0.4844340000000 1.0
C      1  0.4275960000000  0.5611690000000  0.4835430000000 1.0
C      1  0.4167470000000  0.5254060000000  0.5596860000000 1.0
C      1  0.5599680000000  0.5291210000000  0.4969120000000 1.0
C      1  0.5073600000000  0.4293460000000  0.5018360000000 1.0
C      1  0.5714820000000  0.4518720000000  0.4796040000000 1.0
C      1  0.4262490000000  0.5477200000000  0.4573690000000 1.0
C      1  0.4237570000000  0.4559560000000  0.5183810000000 1.0
C      1  0.4731270000000  0.4962800000000  0.6037160000000 1.0
C      1  0.5347880000000  0.5719500000000  0.5738810000000 1.0
C      1  0.4590560000000  0.5645730000000  0.5217830000000 1.0
C      1  0.4622310000000  0.3875570000000  0.4926200000000 1.0
C      1  0.5118070000000  0.3829980000000  0.5131210000000 1.0
C      1  0.4793540000000  0.6256800000000  0.5080040000000 1.0
C      1  0.5467000000000  0.4807910000000  0.5935010000000 1.0
C      1  0.5179570000000  0.4074750000000  0.4454610000000 1.0
C      1  0.5361210000000  0.5430300000000  0.4093420000000 1.0
C      1  0.4178730000000  0.4303010000000  0.4708330000000 1.0
C      1  0.5132400000000  0.4995470000000  0.5715300000000 1.0
C      1  0.4928490000000  0.6212970000000  0.5320320000000 1.0
C      1  0.5195050000000  0.6214840000000  0.5197800000000 1.0
C      1  0.4415690000000  0.5071490000000  0.4220390000000 1.0
C      1  0.5684080000000  0.4730000000000  0.5744430000000 1.0
C      1  0.6084470000000  0.5072050000000  0.5123710000000 1.0
C      1  0.6081810000000  0.5661210000000  0.4812700000000 1.0
C      1  0.5271970000000  0.5637060000000  0.5123220000000 1.0
C      1  0.4600600000000  0.4837580000000  0.5622690000000 1.0
C      1  0.5367870000000  0.6049590000000  0.5375440000000 1.0
C      1  0.5246140000000  0.5124400000000  0.5269290000000 1.0
C      1  0.4132810000000  0.5216050000000  0.4601130000000 1.0
C      1  0.5074870000000  0.5036310000000  0.4765180000000 1.0
C      1  0.4647880000000  0.5077550000000  0.5463070000000 1.0
C      1  0.5023460000000  0.5924520000000  0.4352220000000 1.0
C      1  0.5601830000000  0.4041410000000  0.4820350000000 1.0
C      1  0.5118710000000  0.4285420000000  0.4203120000000 1.0
C      1  0.5568410000000  0.5592570000000  0.4228430000000 1.0
C      1  0.3872550000000  0.4651420000000  0.4815530000000 1.0
C      1  0.5879660000000  0.4926210000000  0.4176550000000 1.0
C      1  0.4778250000000  0.5590430000000  0.5718130000000 1.0
C      1  0.4959500000000  0.5621160000000  0.4373390000000 1.0
C      1  0.4837480000000  0.5623460000000  0.4877280000000 1.0
C      1  0.4611990000000  0.4454110000000  0.4566010000000 1.0
C      1  0.5522230000000  0.5353910000000  0.5871590000000 1.0
C      1  0.4672210000000  0.4149230000000  0.5510180000000 1.0
C      1  0.5022240000000  0.4932260000000  0.5987400000000 1.0
C      1  0.5596940000000  0.4980080000000  0.5043060000000 1.0
C      1  0.4794250000000  0.5366130000000  0.5004160000000 1.0
C      1  0.5594200000000  0.5843770000000  0.4713100000000 1.0
C      1  0.5257240000000  0.4685730000000  0.4969170000000 1.0
C      1  0.4449390000000  0.4399300000000  0.4779180000000 1.0
C      1  0.5163760000000  0.5310480000000  0.4722610000000 1.0
C      1  0.5085880000000  0.5426570000000  0.4159420000000 1.0
C      1  0.4458470000000  0.4600150000000  0.4979940000000 1.0
C      1  0.4651110000000  0.4890670000000  0.5228990000000 1.0
C      1  0.4612890000000  0.4004470000000  0.4381120000000 1.0
C      1  0.4555000000000  0.5236260000000  0.4899170000000 1.0
C      1  0.4716900000000  0.5859830000000  0.5605740000000 1.0
C      1  0.4147790000000  0.5678180000000  0.5452880000000 1.0
C      1  0.4257400000000  0.4310170000000  0.5344000000000 1.0
C      1  0.5981130000000  0.4906600000000  0.4434590000000 1.0
C      1  0.5670710000000  0.5619180000000  0.5376640000000 1.0
C      1  0.5322210000000  0.4992950000000  0.4364740000000 1.0
C      1  0.4739910000000  0.5984300000000  0.4397100000000 1.0
C      1  0.5773990000000  0.4238120000000  0.5280250000000 1.0
C      1  0.4856070000000  0.4375590000000  0.4104880000000 1.0
C      1  0.5148170000000  0.6041080000000  0.4961150000000 1.0
C      1  0.5369630000000  0.4510790000000  0.5554180000000 1.0
C      1  0.5177820000000  0.4687900000000  0.5991760000000 1.0
C      1  0.5519350000000  0.4516900000000  0.5012000000000 1.0
C      1  0.4948270000000  0.5929630000000  0.5429020000000 1.0
C      1  0.5621150000000  0.5303770000000  0.4655710000000 1.0
C      1  0.5801860000000  0.5724820000000  0.4904170000000 1.0
C      1  0.4843070000000  0.3919930000000  0.5429340000000 1.0
C      1  0.4204340000000  0.5001870000000  0.4402320000000 1.0
C      1  0.5946080000000  0.4679320000000  0.4869060000000 1.0
C      1  0.5123580000000  0.5215400000000  0.5531130000000 1.0
C      1  0.6150300000000  0.5133850000000  0.4864180000000 1.0
C      1  0.4885030000000  0.4536090000000  0.4585180000000 1.0
C      1  0.5806300000000  0.5425740000000  0.4243880000000 1.0
C      1  0.5137150000000  0.4340260000000  0.5616200000000 1.0
C      1  0.4672580000000  0.5705050000000  0.4350970000000 1.0
C      1  0.4619330000000  0.4736520000000  0.5894450000000 1.0
C      1  0.5261090000000  0.4484420000000  0.4098140000000 1.0
C      1  0.5199150000000  0.4758180000000  0.5553850000000 1.0
C      1  0.5551280000000  0.5019280000000  0.5323310000000 1.0
END
