TITL C-4164240-4114-386 3.50170462773065 125000 -21293.4974060799 0 0 141 (C1) n - 1
REM
REM in /home/nfs/bkarasulu/CARBON/AIRSS/Generating-Clusters/ReaxFF-fromJPCA2015/Units_Real/with-SteepDescent/Only-C1/SD-CG/Try1-3A/FIRE-CG
REM
REM
REM
REM
REM
REM ./C.cell (11c1c37f851c82e70ff6c80c92926a4b)
REM
REM compiler GCC version 9.2.1 20190827 (Red Hat 9.2.1-1)
REM options -cpp -mtune=generic -march=x86-64 -g -O0 -fpre-include=/usr/include/finclude/math-vector-fortran.h
REM seed 1869538781 33059090 321992978 1690999585 640507170 283063355 -1463957471 1963299593 55086979 -10670563 530044101 832828744 -1688617507 -368393515 1280692853 2059835106 502861497 726535632 538803713 -1602828032 -526796961 -880291670 1885774336 174089585 649669580 1775616093 558770480 1929694738 -2111832732 337702184 -1507285688 447957662 -1341448980
REM
CELL 1.54180   50.00000   50.00000   50.00000   90.00000   90.00000   90.00000
LATT -1
SFAC C  
C      1  0.5450900000000  0.5373530000000  0.5079220000000 1.0
C      1  0.5975780000000  0.4776810000000  0.4704180000000 1.0
C      1  0.4028440000000  0.4647020000000  0.4986850000000 1.0
C      1  0.5098350000000  0.4430230000000  0.5727720000000 1.0
C      1  0.5066480000000  0.4317310000000  0.4260740000000 1.0
C      1  0.5981620000000  0.5261820000000  0.5427940000000 1.0
C      1  0.4933680000000  0.4030970000000  0.4777480000000 1.0
C      1  0.5255150000000  0.5038660000000  0.4053690000000 1.0
C      1  0.4487300000000  0.4193730000000  0.4747790000000 1.0
C      1  0.5866560000000  0.5180630000000  0.4957310000000 1.0
C      1  0.5781150000000  0.5706090000000  0.5324600000000 1.0
C      1  0.5117270000000  0.4452170000000  0.5019400000000 1.0
C      1  0.5556710000000  0.4557110000000  0.4813590000000 1.0
C      1  0.4433740000000  0.4698430000000  0.5446960000000 1.0
C      1  0.4970970000000  0.5436080000000  0.4968930000000 1.0
C      1  0.5195690000000  0.4945690000000  0.4864970000000 1.0
C      1  0.5030120000000  0.5929260000000  0.4544040000000 1.0
C      1  0.5645420000000  0.5329690000000  0.4885070000000 1.0
C      1  0.5680540000000  0.4705060000000  0.4374020000000 1.0
C      1  0.5020300000000  0.4570890000000  0.4099980000000 1.0
C      1  0.4547180000000  0.5160230000000  0.4817380000000 1.0
C      1  0.5610110000000  0.4194840000000  0.5121870000000 1.0
C      1  0.4663010000000  0.4419770000000  0.4785290000000 1.0
C      1  0.5124010000000  0.4757850000000  0.4652850000000 1.0
C      1  0.5130670000000  0.4929120000000  0.5900960000000 1.0
C      1  0.5287570000000  0.5843470000000  0.5508850000000 1.0
C      1  0.4047650000000  0.5130730000000  0.5030080000000 1.0
C      1  0.5517970000000  0.5237910000000  0.4436100000000 1.0
C      1  0.4883210000000  0.5412040000000  0.5473670000000 1.0
C      1  0.4907270000000  0.4767030000000  0.5280960000000 1.0
C      1  0.5336030000000  0.4859180000000  0.5154900000000 1.0
C      1  0.4655530000000  0.4608240000000  0.5626400000000 1.0
C      1  0.5337550000000  0.4327990000000  0.4384000000000 1.0
C      1  0.5195940000000  0.5520850000000  0.4258210000000 1.0
C      1  0.5577950000000  0.5359130000000  0.5589520000000 1.0
C      1  0.4252630000000  0.5588280000000  0.5203130000000 1.0
C      1  0.3984530000000  0.4951710000000  0.5443900000000 1.0
C      1  0.4730980000000  0.5390500000000  0.4804330000000 1.0
C      1  0.4393210000000  0.5756900000000  0.5014320000000 1.0
C      1  0.4338480000000  0.4698450000000  0.4596310000000 1.0
C      1  0.4726880000000  0.5597300000000  0.5634490000000 1.0
C      1  0.4596820000000  0.5398680000000  0.4058900000000 1.0
C      1  0.5314530000000  0.4270960000000  0.5618280000000 1.0
C      1  0.4865830000000  0.4178340000000  0.4399180000000 1.0
C      1  0.3908220000000  0.5201880000000  0.4581850000000 1.0
C      1  0.4326980000000  0.5113770000000  0.5090110000000 1.0
C      1  0.4813540000000  0.5224520000000  0.4000380000000 1.0
C      1  0.4400530000000  0.4197200000000  0.5028020000000 1.0
C      1  0.5556080000000  0.4430100000000  0.5577360000000 1.0
C      1  0.5786890000000  0.4574340000000  0.4609290000000 1.0
C      1  0.4765630000000  0.4690440000000  0.4078750000000 1.0
C      1  0.4745810000000  0.5586190000000  0.4379820000000 1.0
C      1  0.4347100000000  0.5721760000000  0.4724820000000 1.0
C      1  0.5291550000000  0.5168990000000  0.5949130000000 1.0
C      1  0.5710760000000  0.4373970000000  0.5336510000000 1.0
C      1  0.5642510000000  0.4752430000000  0.5043720000000 1.0
C      1  0.4561960000000  0.4675620000000  0.4760090000000 1.0
C      1  0.5215360000000  0.3976600000000  0.4741140000000 1.0
C      1  0.5438250000000  0.5525110000000  0.4431690000000 1.0
C      1  0.4293960000000  0.5401170000000  0.5654480000000 1.0
C      1  0.4640770000000  0.5153060000000  0.5883980000000 1.0
C      1  0.5888460000000  0.5614420000000  0.5072630000000 1.0
C      1  0.5070620000000  0.5190120000000  0.5526060000000 1.0
C      1  0.4307640000000  0.4516980000000  0.5283880000000 1.0
C      1  0.4428510000000  0.5193470000000  0.4562160000000 1.0
C      1  0.6035730000000  0.4999130000000  0.4498730000000 1.0
C      1  0.4867720000000  0.4289550000000  0.4969600000000 1.0
C      1  0.5687930000000  0.4917390000000  0.5745370000000 1.0
C      1  0.4751190000000  0.5976890000000  0.4554460000000 1.0
C      1  0.4401920000000  0.4990860000000  0.5367530000000 1.0
C      1  0.5887840000000  0.4735680000000  0.5433830000000 1.0
C      1  0.5252500000000  0.5179990000000  0.4664960000000 1.0
C      1  0.5739470000000  0.5592010000000  0.4821190000000 1.0
C      1  0.5534740000000  0.5862600000000  0.5338560000000 1.0
C      1  0.4075100000000  0.4719380000000  0.4706870000000 1.0
C      1  0.5833260000000  0.4590120000000  0.5202980000000 1.0
C      1  0.4021950000000  0.4946950000000  0.4526170000000 1.0
C      1  0.5520750000000  0.4675770000000  0.5729070000000 1.0
C      1  0.4480460000000  0.5554820000000  0.4252000000000 1.0
C      1  0.4767040000000  0.4155650000000  0.5442240000000 1.0
C      1  0.4900080000000  0.4954240000000  0.5034110000000 1.0
C      1  0.5828870000000  0.5488120000000  0.5522350000000 1.0
C      1  0.5243740000000  0.4738750000000  0.4115820000000 1.0
C      1  0.5414890000000  0.4169130000000  0.4626380000000 1.0
C      1  0.3945340000000  0.4884870000000  0.5161390000000 1.0
C      1  0.4984270000000  0.3948590000000  0.5411820000000 1.0
C      1  0.4424620000000  0.5353170000000  0.5188080000000 1.0
C      1  0.5917400000000  0.4982160000000  0.5551060000000 1.0
C      1  0.5419900000000  0.3996750000000  0.5207840000000 1.0
C      1  0.4687630000000  0.4915600000000  0.4839170000000 1.0
C      1  0.5240260000000  0.4675030000000  0.5823600000000 1.0
C      1  0.4997500000000  0.5166900000000  0.4513890000000 1.0
C      1  0.4894330000000  0.5008800000000  0.5724500000000 1.0
C      1  0.5126500000000  0.5947360000000  0.5267550000000 1.0
C      1  0.5093120000000  0.5282440000000  0.4096540000000 1.0
C      1  0.5148660000000  0.4646300000000  0.5209700000000 1.0
C      1  0.5422120000000  0.5296880000000  0.5353500000000 1.0
C      1  0.5858360000000  0.4902080000000  0.4941620000000 1.0
C      1  0.4549460000000  0.5879950000000  0.4625480000000 1.0
C      1  0.5510450000000  0.5182010000000  0.4127070000000 1.0
C      1  0.4215860000000  0.5103210000000  0.5581450000000 1.0
C      1  0.4707800000000  0.4046030000000  0.4589370000000 1.0
C      1  0.4564970000000  0.5764010000000  0.5459180000000 1.0
C      1  0.5249510000000  0.3852530000000  0.5009850000000 1.0
C      1  0.5759450000000  0.4995130000000  0.4395670000000 1.0
C      1  0.5373690000000  0.5954310000000  0.5109660000000 1.0
C      1  0.5009460000000  0.3769670000000  0.5174900000000 1.0
C      1  0.4441700000000  0.4847040000000  0.6064820000000 1.0
C      1  0.4681060000000  0.4835870000000  0.4303850000000 1.0
C      1  0.5036560000000  0.5822940000000  0.4825080000000 1.0
C      1  0.5238580000000  0.4520480000000  0.4765890000000 1.0
C      1  0.5331660000000  0.5851620000000  0.4830880000000 1.0
C      1  0.5607530000000  0.4261300000000  0.4835660000000 1.0
C      1  0.4163840000000  0.4403960000000  0.5091260000000 1.0
C      1  0.5250950000000  0.5391690000000  0.4878680000000 1.0
C      1  0.4628160000000  0.5833880000000  0.5178140000000 1.0
C      1  0.4696230000000  0.4956810000000  0.4039990000000 1.0
C      1  0.5558050000000  0.5170790000000  0.5817270000000 1.0
C      1  0.4548830000000  0.5412570000000  0.5791980000000 1.0
C      1  0.3931910000000  0.5294410000000  0.4831490000000 1.0
C      1  0.5247670000000  0.5645370000000  0.5706190000000 1.0
C      1  0.5434290000000  0.4581470000000  0.4273420000000 1.0
C      1  0.5998810000000  0.5349320000000  0.5151830000000 1.0
C      1  0.5519400000000  0.5697320000000  0.4663930000000 1.0
C      1  0.5262600000000  0.4039750000000  0.5449610000000 1.0
C      1  0.5002730000000  0.5728130000000  0.4323230000000 1.0
C      1  0.4882740000000  0.5215750000000  0.5125340000000 1.0
C      1  0.4826020000000  0.4374110000000  0.5632270000000 1.0
C      1  0.4385350000000  0.5012410000000  0.5881750000000 1.0
C      1  0.4790620000000  0.5355040000000  0.4537550000000 1.0
C      1  0.4904760000000  0.4894290000000  0.4498940000000 1.0
C      1  0.4309640000000  0.4945470000000  0.4445110000000 1.0
C      1  0.4297710000000  0.5638110000000  0.5489360000000 1.0
C      1  0.4902890000000  0.5888940000000  0.5090560000000 1.0
C      1  0.4679830000000  0.5279980000000  0.5303610000000 1.0
C      1  0.5242700000000  0.5436100000000  0.5860310000000 1.0
C      1  0.5277270000000  0.5069170000000  0.5366470000000 1.0
C      1  0.4650660000000  0.4205120000000  0.5179500000000 1.0
C      1  0.4813200000000  0.4806230000000  0.5540400000000 1.0
C      1  0.4045180000000  0.5456360000000  0.4616620000000 1.0
C      1  0.4322170000000  0.5464600000000  0.4519710000000 1.0
END
