TITL C-4164246-3563-525 -12.0556000468256 125000 -23068.583184467 0 0 153 (C1) n - 1
REM
REM in /home/nfs/bkarasulu/CARBON/AIRSS/Generating-Clusters/ReaxFF-fromJPCA2015/Units_Real/with-SteepDescent/Only-C1/SD-CG/Try1-3A/FIRE-CG
REM
REM
REM
REM
REM
REM ./C.cell (11c1c37f851c82e70ff6c80c92926a4b)
REM
REM compiler GCC version 9.2.1 20190827 (Red Hat 9.2.1-1)
REM options -cpp -mtune=generic -march=x86-64 -g -O0 -fpre-include=/usr/include/finclude/math-vector-fortran.h
REM seed 1076868839 -90891952 142242520 -1172750239 -917860865 139301608 -990831010 1186010913 -182178038 -213216204 -1869469381 591789591 536871724 -391653011 -2058409984 1062213 -383354489 -1521066491 -1384512539 -1519428345 2084600792 218924993 -1708023091 685878535 -1223132083 1162377333 1775945067 386987577 1119206775 849796888 169160852 117234141 369742932
REM
CELL 1.54180   50.00000   50.00000   50.00000   90.00000   90.00000   90.00000
LATT -1
SFAC C  
C      1  0.5214240000000  0.4542150000000  0.5042680000000 1.0
C      1  0.4755370000000  0.4563210000000  0.4310490000000 1.0
C      1  0.3995570000000  0.4695890000000  0.4654520000000 1.0
C      1  0.4692820000000  0.5834330000000  0.5727990000000 1.0
C      1  0.4959350000000  0.5946460000000  0.4710640000000 1.0
C      1  0.5867270000000  0.5758760000000  0.5430460000000 1.0
C      1  0.5704510000000  0.4413610000000  0.5718510000000 1.0
C      1  0.6069740000000  0.4522840000000  0.5277730000000 1.0
C      1  0.5058650000000  0.5021170000000  0.5129770000000 1.0
C      1  0.4877360000000  0.5515870000000  0.4495190000000 1.0
C      1  0.4511900000000  0.5950610000000  0.4821210000000 1.0
C      1  0.4141390000000  0.4556690000000  0.5484620000000 1.0
C      1  0.5724440000000  0.4292820000000  0.4457820000000 1.0
C      1  0.5935370000000  0.5731030000000  0.5135040000000 1.0
C      1  0.4682370000000  0.5880160000000  0.4621130000000 1.0
C      1  0.5254450000000  0.4906830000000  0.4090210000000 1.0
C      1  0.3982300000000  0.4937450000000  0.5352410000000 1.0
C      1  0.4165110000000  0.5478260000000  0.4816320000000 1.0
C      1  0.5567480000000  0.5677160000000  0.5708200000000 1.0
C      1  0.4473080000000  0.5144740000000  0.4806700000000 1.0
C      1  0.5310630000000  0.4337520000000  0.4260040000000 1.0
C      1  0.4756060000000  0.4605030000000  0.4037460000000 1.0
C      1  0.4982700000000  0.4150380000000  0.4606160000000 1.0
C      1  0.5290370000000  0.5205330000000  0.5887130000000 1.0
C      1  0.4718410000000  0.5000190000000  0.4733320000000 1.0
C      1  0.5124350000000  0.4006140000000  0.4828730000000 1.0
C      1  0.4468900000000  0.5475450000000  0.4250680000000 1.0
C      1  0.4455050000000  0.4981580000000  0.4132600000000 1.0
C      1  0.4075250000000  0.4862910000000  0.4425960000000 1.0
C      1  0.5553130000000  0.4857610000000  0.5685000000000 1.0
C      1  0.4264660000000  0.4519660000000  0.5193680000000 1.0
C      1  0.5773010000000  0.4188890000000  0.5141580000000 1.0
C      1  0.4097720000000  0.5150840000000  0.4420850000000 1.0
C      1  0.4850860000000  0.5446510000000  0.5221570000000 1.0
C      1  0.5866780000000  0.5221270000000  0.5186750000000 1.0
C      1  0.5008520000000  0.3958520000000  0.5536810000000 1.0
C      1  0.5558340000000  0.4714930000000  0.4914280000000 1.0
C      1  0.4553500000000  0.4578310000000  0.5726300000000 1.0
C      1  0.5473260000000  0.4959020000000  0.4824460000000 1.0
C      1  0.5581920000000  0.5868110000000  0.5500880000000 1.0
C      1  0.4112200000000  0.5557890000000  0.5097480000000 1.0
C      1  0.3812650000000  0.5120220000000  0.4820510000000 1.0
C      1  0.4785530000000  0.4177150000000  0.5568980000000 1.0
C      1  0.4448820000000  0.4122990000000  0.4890970000000 1.0
C      1  0.5211110000000  0.5867110000000  0.4563940000000 1.0
C      1  0.5576790000000  0.4230450000000  0.4716600000000 1.0
C      1  0.4565550000000  0.4463250000000  0.5217670000000 1.0
C      1  0.4317950000000  0.5225060000000  0.4234110000000 1.0
C      1  0.4483530000000  0.4079980000000  0.4590520000000 1.0
C      1  0.4775380000000  0.4640260000000  0.5869190000000 1.0
C      1  0.5905240000000  0.5227410000000  0.5502190000000 1.0
C      1  0.5248210000000  0.6045910000000  0.5095290000000 1.0
C      1  0.4143800000000  0.5424230000000  0.5369560000000 1.0
C      1  0.4979990000000  0.6031410000000  0.4984250000000 1.0
C      1  0.4813830000000  0.6007410000000  0.5501980000000 1.0
C      1  0.5977150000000  0.4997020000000  0.5008360000000 1.0
C      1  0.4901410000000  0.4421380000000  0.4707960000000 1.0
C      1  0.5550150000000  0.5248150000000  0.5212740000000 1.0
C      1  0.4377220000000  0.5019010000000  0.5060050000000 1.0
C      1  0.4502670000000  0.4633610000000  0.4427980000000 1.0
C      1  0.3990250000000  0.5296390000000  0.4653280000000 1.0
C      1  0.5959780000000  0.5507460000000  0.5571270000000 1.0
C      1  0.4778980000000  0.4761170000000  0.4897400000000 1.0
C      1  0.5452880000000  0.4580330000000  0.5739390000000 1.0
C      1  0.5028980000000  0.4717240000000  0.5920040000000 1.0
C      1  0.5630930000000  0.5643870000000  0.4587330000000 1.0
C      1  0.4293280000000  0.5012450000000  0.5686290000000 1.0
C      1  0.5411780000000  0.5193950000000  0.4960340000000 1.0
C      1  0.6019350000000  0.4336170000000  0.5054850000000 1.0
C      1  0.5459690000000  0.5854300000000  0.4703230000000 1.0
C      1  0.5033310000000  0.5040360000000  0.5869900000000 1.0
C      1  0.4562640000000  0.4188510000000  0.4341170000000 1.0
C      1  0.4433430000000  0.5689890000000  0.5709320000000 1.0
C      1  0.4938510000000  0.5327280000000  0.4070970000000 1.0
C      1  0.4764110000000  0.5186890000000  0.5985470000000 1.0
C      1  0.5408410000000  0.4479500000000  0.4767860000000 1.0
C      1  0.5462230000000  0.4603860000000  0.5169180000000 1.0
C      1  0.5789400000000  0.4586590000000  0.4410000000000 1.0
C      1  0.5333570000000  0.5973140000000  0.5361920000000 1.0
C      1  0.5252350000000  0.5612450000000  0.5025090000000 1.0
C      1  0.4666330000000  0.4056070000000  0.5077240000000 1.0
C      1  0.4664470000000  0.5395510000000  0.4077100000000 1.0
C      1  0.5808250000000  0.5207840000000  0.4582490000000 1.0
C      1  0.5331970000000  0.5439540000000  0.5704200000000 1.0
C      1  0.5077890000000  0.4138980000000  0.4333690000000 1.0
C      1  0.6108230000000  0.4747940000000  0.5078530000000 1.0
C      1  0.4997540000000  0.5560880000000  0.4251880000000 1.0
C      1  0.4477870000000  0.5176620000000  0.5861480000000 1.0
C      1  0.5028560000000  0.4763500000000  0.5036110000000 1.0
C      1  0.4297130000000  0.4718450000000  0.5683270000000 1.0
C      1  0.5915390000000  0.5473900000000  0.4998400000000 1.0
C      1  0.4164290000000  0.4465220000000  0.4729290000000 1.0
C      1  0.4734440000000  0.5980590000000  0.5176140000000 1.0
C      1  0.4147590000000  0.4833260000000  0.5105550000000 1.0
C      1  0.4238110000000  0.5678840000000  0.5476500000000 1.0
C      1  0.5837690000000  0.4514790000000  0.5461630000000 1.0
C      1  0.4968320000000  0.4046760000000  0.5065540000000 1.0
C      1  0.5109080000000  0.4889560000000  0.4542200000000 1.0
C      1  0.3902740000000  0.4704120000000  0.5495130000000 1.0
C      1  0.4972330000000  0.5040680000000  0.4146680000000 1.0
C      1  0.4918790000000  0.5085850000000  0.4541120000000 1.0
C      1  0.4609660000000  0.5037030000000  0.5225760000000 1.0
C      1  0.5935330000000  0.4696980000000  0.4627740000000 1.0
C      1  0.4607060000000  0.5579000000000  0.4527770000000 1.0
C      1  0.4443060000000  0.4526740000000  0.4680180000000 1.0
C      1  0.5627690000000  0.3951350000000  0.5025600000000 1.0
C      1  0.4421770000000  0.5992670000000  0.5077340000000 1.0
C      1  0.5037950000000  0.4610560000000  0.4534050000000 1.0
C      1  0.4899490000000  0.5678980000000  0.5866100000000 1.0
C      1  0.4235290000000  0.4315850000000  0.4968750000000 1.0
C      1  0.5094450000000  0.5604960000000  0.5252580000000 1.0
C      1  0.3926000000000  0.4853460000000  0.4887070000000 1.0
C      1  0.4679100000000  0.5673750000000  0.5164130000000 1.0
C      1  0.4832650000000  0.5454960000000  0.6071120000000 1.0
C      1  0.5826800000000  0.5457800000000  0.4717300000000 1.0
C      1  0.5621470000000  0.4391510000000  0.5304300000000 1.0
C      1  0.5224960000000  0.5379580000000  0.4845000000000 1.0
C      1  0.5377010000000  0.4988970000000  0.4569310000000 1.0
C      1  0.5283930000000  0.4494860000000  0.4508030000000 1.0
C      1  0.5119980000000  0.5648300000000  0.5702390000000 1.0
C      1  0.5155320000000  0.4520350000000  0.5745680000000 1.0
C      1  0.4734490000000  0.4890870000000  0.5447930000000 1.0
C      1  0.4127780000000  0.5153020000000  0.5493350000000 1.0
C      1  0.4310500000000  0.4777090000000  0.4276330000000 1.0
C      1  0.5625670000000  0.4728740000000  0.4194310000000 1.0
C      1  0.5525540000000  0.5006960000000  0.4156830000000 1.0
C      1  0.6061360000000  0.4557020000000  0.4857660000000 1.0
C      1  0.5251520000000  0.5668310000000  0.4351060000000 1.0
C      1  0.5543470000000  0.5072890000000  0.5884060000000 1.0
C      1  0.5100320000000  0.4133050000000  0.5317560000000 1.0
C      1  0.5164990000000  0.5074190000000  0.5384010000000 1.0
C      1  0.5017770000000  0.5332680000000  0.4645530000000 1.0
C      1  0.5375310000000  0.5264760000000  0.5432300000000 1.0
C      1  0.4831980000000  0.5178060000000  0.5087470000000 1.0
C      1  0.5586610000000  0.4169070000000  0.4238190000000 1.0
C      1  0.4227850000000  0.5806070000000  0.5207900000000 1.0
C      1  0.5927100000000  0.4985320000000  0.4722020000000 1.0
C      1  0.5777490000000  0.5044260000000  0.5694210000000 1.0
C      1  0.5413190000000  0.5848940000000  0.4982720000000 1.0
C      1  0.4985480000000  0.4394420000000  0.5522890000000 1.0
C      1  0.5364710000000  0.4636810000000  0.4100410000000 1.0
C      1  0.4611260000000  0.4188570000000  0.5327450000000 1.0
C      1  0.4958260000000  0.5022870000000  0.5576370000000 1.0
C      1  0.4720630000000  0.4591290000000  0.5454790000000 1.0
C      1  0.4670090000000  0.4505500000000  0.4870960000000 1.0
C      1  0.5423010000000  0.3998980000000  0.4806410000000 1.0
C      1  0.4728450000000  0.4895810000000  0.4064210000000 1.0
C      1  0.5483760000000  0.5505470000000  0.4392240000000 1.0
C      1  0.4439500000000  0.5420920000000  0.4743110000000 1.0
C      1  0.4662270000000  0.4339190000000  0.4130590000000 1.0
C      1  0.4479410000000  0.5437470000000  0.5809460000000 1.0
C      1  0.5548380000000  0.5190160000000  0.4405590000000 1.0
C      1  0.5106630000000  0.5814810000000  0.5467190000000 1.0
END
