TITL C-4164241-3639-258 6.28363852712813 125000 -12107.228587863 0 0 80 (C1) n - 1
REM
REM in /home/nfs/bkarasulu/CARBON/AIRSS/Generating-Clusters/ReaxFF-fromJPCA2015/Units_Real/with-SteepDescent/Only-C1/SD-CG/Try1-3A/FIRE-CG
REM
REM
REM
REM
REM
REM ./C.cell (11c1c37f851c82e70ff6c80c92926a4b)
REM
REM compiler GCC version 9.2.1 20190827 (Red Hat 9.2.1-1)
REM options -cpp -mtune=generic -march=x86-64 -g -O0 -fpre-include=/usr/include/finclude/math-vector-fortran.h
REM seed -1562286574 -201702005 1921122109 1247098319 1113850633 1081162011 1964722544 1185390075 -1449946015 -1750455525 1238157978 1901182760 1758577022 -432744094 164402195 524437492 959383272 175341304 909529830 603000314 1305084055 -2116340795 579450102 -132905607 1755185260 -1394671962 1070485927 -1991634384 1651222148 1927945261 1442551365 -1581182858 172385352
REM
CELL 1.54180   50.00000   50.00000   50.00000   90.00000   90.00000   90.00000
LATT -1
SFAC C  
C      1  0.4775620000000  0.5648350000000  0.5269460000000 1.0
C      1  0.4885710000000  0.4897440000000  0.4301000000000 1.0
C      1  0.5097850000000  0.5778880000000  0.4908540000000 1.0
C      1  0.4569210000000  0.5184640000000  0.5671380000000 1.0
C      1  0.4831040000000  0.4152310000000  0.5130970000000 1.0
C      1  0.4301860000000  0.4469670000000  0.5087140000000 1.0
C      1  0.4958550000000  0.4503600000000  0.5490460000000 1.0
C      1  0.5686520000000  0.4698630000000  0.5319850000000 1.0
C      1  0.4763200000000  0.5410300000000  0.5722500000000 1.0
C      1  0.4956990000000  0.5329800000000  0.4932480000000 1.0
C      1  0.4448710000000  0.5397300000000  0.4953490000000 1.0
C      1  0.5102250000000  0.4203000000000  0.5134380000000 1.0
C      1  0.5050350000000  0.5356760000000  0.4347130000000 1.0
C      1  0.5731540000000  0.5033290000000  0.4674890000000 1.0
C      1  0.5355460000000  0.4986560000000  0.4359490000000 1.0
C      1  0.4938940000000  0.4704780000000  0.5956650000000 1.0
C      1  0.5194900000000  0.5638190000000  0.4665590000000 1.0
C      1  0.4387910000000  0.4693340000000  0.4664770000000 1.0
C      1  0.4828320000000  0.5359140000000  0.5189980000000 1.0
C      1  0.5047530000000  0.5357690000000  0.5750060000000 1.0
C      1  0.4754440000000  0.4374870000000  0.5333980000000 1.0
C      1  0.5423550000000  0.5447200000000  0.4601110000000 1.0
C      1  0.4967280000000  0.5598420000000  0.4486480000000 1.0
C      1  0.5844850000000  0.4852940000000  0.4886420000000 1.0
C      1  0.5224530000000  0.5400290000000  0.5013540000000 1.0
C      1  0.5344370000000  0.4314450000000  0.5184070000000 1.0
C      1  0.4456100000000  0.4262740000000  0.4973900000000 1.0
C      1  0.5349680000000  0.4859880000000  0.4868060000000 1.0
C      1  0.4824940000000  0.5655400000000  0.5557170000000 1.0
C      1  0.5316020000000  0.5664470000000  0.5413330000000 1.0
C      1  0.5448920000000  0.4990610000000  0.5118070000000 1.0
C      1  0.5002820000000  0.5081650000000  0.5341220000000 1.0
C      1  0.4497560000000  0.4509370000000  0.5305730000000 1.0
C      1  0.5682430000000  0.5417520000000  0.5191460000000 1.0
C      1  0.5662630000000  0.5321250000000  0.4718220000000 1.0
C      1  0.5717340000000  0.4620870000000  0.5037100000000 1.0
C      1  0.4200420000000  0.4972040000000  0.5019010000000 1.0
C      1  0.4693610000000  0.4168870000000  0.4858760000000 1.0
C      1  0.4228460000000  0.4705420000000  0.4910140000000 1.0
C      1  0.5103320000000  0.4714000000000  0.4857620000000 1.0
C      1  0.5469160000000  0.4421610000000  0.4450090000000 1.0
C      1  0.5412360000000  0.4350960000000  0.4709720000000 1.0
C      1  0.4841690000000  0.4704760000000  0.5714060000000 1.0
C      1  0.5827040000000  0.5356230000000  0.4964140000000 1.0
C      1  0.5295680000000  0.5214840000000  0.5234480000000 1.0
C      1  0.5157430000000  0.4792200000000  0.4266250000000 1.0
C      1  0.5337590000000  0.4907450000000  0.5652900000000 1.0
C      1  0.5443640000000  0.4676070000000  0.5500680000000 1.0
C      1  0.5107670000000  0.5090730000000  0.5621990000000 1.0
C      1  0.5272780000000  0.5671830000000  0.5119500000000 1.0
C      1  0.5909540000000  0.5078100000000  0.5062250000000 1.0
C      1  0.4274870000000  0.5203450000000  0.4838130000000 1.0
C      1  0.4584060000000  0.5180740000000  0.4221320000000 1.0
C      1  0.4664460000000  0.4633720000000  0.4738500000000 1.0
C      1  0.4504710000000  0.5376520000000  0.4411690000000 1.0
C      1  0.5113280000000  0.5620320000000  0.5619400000000 1.0
C      1  0.4273230000000  0.4983090000000  0.5300600000000 1.0
C      1  0.4679720000000  0.5574070000000  0.4554010000000 1.0
C      1  0.4887680000000  0.5115030000000  0.4760070000000 1.0
C      1  0.4331020000000  0.5171440000000  0.4552290000000 1.0
C      1  0.4921910000000  0.5127860000000  0.4484570000000 1.0
C      1  0.4593130000000  0.4897910000000  0.4236210000000 1.0
C      1  0.4382180000000  0.4899880000000  0.4451240000000 1.0
C      1  0.5220200000000  0.4527640000000  0.4382660000000 1.0
C      1  0.4614280000000  0.4903330000000  0.5638840000000 1.0
C      1  0.4834850000000  0.4855840000000  0.4899780000000 1.0
C      1  0.4812020000000  0.5753950000000  0.5003320000000 1.0
C      1  0.4392800000000  0.5206940000000  0.5435050000000 1.0
C      1  0.5488060000000  0.4893900000000  0.4602870000000 1.0
C      1  0.4571680000000  0.5239670000000  0.5180760000000 1.0
C      1  0.4802880000000  0.4389660000000  0.4689890000000 1.0
C      1  0.4613530000000  0.5611620000000  0.4832660000000 1.0
C      1  0.5494140000000  0.5434010000000  0.5391260000000 1.0
C      1  0.5711160000000  0.4983580000000  0.5261920000000 1.0
C      1  0.5538910000000  0.4404290000000  0.4969050000000 1.0
C      1  0.5237400000000  0.4481600000000  0.5420460000000 1.0
C      1  0.5095650000000  0.4477360000000  0.4682000000000 1.0
C      1  0.4526680000000  0.4810450000000  0.5365890000000 1.0
C      1  0.5329070000000  0.5282540000000  0.4377120000000 1.0
C      1  0.4776150000000  0.4958860000000  0.5196780000000 1.0
END
