TITL C-4164237-1827-39 20.9761657836051 125000 -19896.7487509286 0 0 132 (C1) n - 1
REM
REM in /home/nfs/bkarasulu/CARBON/AIRSS/Generating-Clusters/ReaxFF-fromJPCA2015/Units_Real/with-SteepDescent/Only-C1/SD-CG/Try1-3A/FIRE-CG
REM
REM
REM
REM
REM
REM ./C.cell (11c1c37f851c82e70ff6c80c92926a4b)
REM
REM compiler GCC version 9.2.1 20190827 (Red Hat 9.2.1-1)
REM options -cpp -mtune=generic -march=x86-64 -g -O0 -fpre-include=/usr/include/finclude/math-vector-fortran.h
REM seed -1900866807 16158897 -1087258655 72621475 14826712 -612368673 -108976594 624075354 -1057922853 1557598834 -135941267 -1012572730 443025787 -1603807455 -1576740798 -1662119206 1287653137 -1404972961 -1852671964 1145341363 935338192 -65962991 -371145762 -1744826278 2033702058 395593464 -1852428302 -964182838 -748613590 1686513125 -238436852 174609018 -626994980
REM
CELL 1.54180   50.00000   50.00000   50.00000   90.00000   90.00000   90.00000
LATT -1
SFAC C  
C      1  0.4131980000000  0.4788040000000  0.5455060000000 1.0
C      1  0.4263890000000  0.5493490000000  0.4970370000000 1.0
C      1  0.5683270000000  0.5485630000000  0.4459250000000 1.0
C      1  0.5469330000000  0.4415340000000  0.5484950000000 1.0
C      1  0.4461970000000  0.5692950000000  0.4427160000000 1.0
C      1  0.4449990000000  0.4127570000000  0.5504160000000 1.0
C      1  0.5580560000000  0.4448510000000  0.4687870000000 1.0
C      1  0.5144910000000  0.5510070000000  0.4244970000000 1.0
C      1  0.4970020000000  0.4074620000000  0.5507300000000 1.0
C      1  0.5171660000000  0.4216080000000  0.4610440000000 1.0
C      1  0.4327050000000  0.5083820000000  0.4261420000000 1.0
C      1  0.5105690000000  0.4328440000000  0.4881240000000 1.0
C      1  0.5711480000000  0.5377260000000  0.5546780000000 1.0
C      1  0.5636520000000  0.5955030000000  0.4960250000000 1.0
C      1  0.4903440000000  0.4944930000000  0.5985970000000 1.0
C      1  0.4723280000000  0.5380940000000  0.4044910000000 1.0
C      1  0.5425750000000  0.5017350000000  0.5095930000000 1.0
C      1  0.4937480000000  0.4796580000000  0.4938210000000 1.0
C      1  0.5308280000000  0.5665790000000  0.4711340000000 1.0
C      1  0.4559540000000  0.4209680000000  0.4712650000000 1.0
C      1  0.5823080000000  0.4707980000000  0.4473510000000 1.0
C      1  0.5471390000000  0.5749130000000  0.5369900000000 1.0
C      1  0.4757830000000  0.4449100000000  0.5388410000000 1.0
C      1  0.4895520000000  0.4165010000000  0.4978470000000 1.0
C      1  0.4527320000000  0.5639470000000  0.5659960000000 1.0
C      1  0.5161280000000  0.5348870000000  0.5354390000000 1.0
C      1  0.5456150000000  0.3951770000000  0.4906230000000 1.0
C      1  0.5918170000000  0.5274460000000  0.5082650000000 1.0
C      1  0.4548930000000  0.5002730000000  0.5077330000000 1.0
C      1  0.5115900000000  0.5882900000000  0.4759090000000 1.0
C      1  0.4985360000000  0.4374740000000  0.5549830000000 1.0
C      1  0.4681450000000  0.5459160000000  0.5213860000000 1.0
C      1  0.5828890000000  0.5739860000000  0.4892540000000 1.0
C      1  0.5718430000000  0.4570660000000  0.5521960000000 1.0
C      1  0.5389230000000  0.4752730000000  0.4974400000000 1.0
C      1  0.5125890000000  0.4835050000000  0.5454630000000 1.0
C      1  0.4835670000000  0.4850530000000  0.5474660000000 1.0
C      1  0.5039280000000  0.3949680000000  0.4627330000000 1.0
C      1  0.5746590000000  0.4348600000000  0.4911700000000 1.0
C      1  0.4465210000000  0.5704060000000  0.4911850000000 1.0
C      1  0.5834640000000  0.4822330000000  0.4788880000000 1.0
C      1  0.4444200000000  0.4298310000000  0.4963500000000 1.0
C      1  0.4761280000000  0.4744210000000  0.6053500000000 1.0
C      1  0.5240420000000  0.4846420000000  0.4231290000000 1.0
C      1  0.5414640000000  0.5229700000000  0.4870830000000 1.0
C      1  0.4597140000000  0.5790430000000  0.4668140000000 1.0
C      1  0.4537930000000  0.4733340000000  0.4710530000000 1.0
C      1  0.4749560000000  0.4857290000000  0.4070380000000 1.0
C      1  0.5330390000000  0.5220310000000  0.4579650000000 1.0
C      1  0.4597490000000  0.5755430000000  0.5178050000000 1.0
C      1  0.5211250000000  0.4558540000000  0.5506590000000 1.0
C      1  0.4218960000000  0.5542450000000  0.4441970000000 1.0
C      1  0.4159730000000  0.5259770000000  0.5422270000000 1.0
C      1  0.4228140000000  0.5502050000000  0.5268920000000 1.0
C      1  0.4664360000000  0.5036720000000  0.5343080000000 1.0
C      1  0.4168060000000  0.4511370000000  0.5342990000000 1.0
C      1  0.5563070000000  0.4721380000000  0.4772400000000 1.0
C      1  0.4786490000000  0.5781850000000  0.5695260000000 1.0
C      1  0.5334830000000  0.4572850000000  0.4290080000000 1.0
C      1  0.5274410000000  0.5558270000000  0.5536810000000 1.0
C      1  0.5075910000000  0.5501670000000  0.5132040000000 1.0
C      1  0.4381570000000  0.4562890000000  0.4387010000000 1.0
C      1  0.4883640000000  0.5834970000000  0.4589130000000 1.0
C      1  0.5722230000000  0.5615420000000  0.5372310000000 1.0
C      1  0.5869300000000  0.4592650000000  0.5001370000000 1.0
C      1  0.5682260000000  0.5073720000000  0.4193570000000 1.0
C      1  0.4793070000000  0.5311630000000  0.5730500000000 1.0
C      1  0.4783410000000  0.4016940000000  0.4761180000000 1.0
C      1  0.5864690000000  0.5316990000000  0.4614030000000 1.0
C      1  0.4258960000000  0.4896020000000  0.5694420000000 1.0
C      1  0.5127510000000  0.5953560000000  0.5042760000000 1.0
C      1  0.4859110000000  0.4492850000000  0.4396990000000 1.0
C      1  0.5387930000000  0.5518320000000  0.4456960000000 1.0
C      1  0.5916730000000  0.4889770000000  0.4257940000000 1.0
C      1  0.4743280000000  0.5287370000000  0.5435980000000 1.0
C      1  0.4293300000000  0.5186110000000  0.5675020000000 1.0
C      1  0.5606490000000  0.4763190000000  0.5685140000000 1.0
C      1  0.4723970000000  0.5543910000000  0.4305430000000 1.0
C      1  0.4568730000000  0.4597510000000  0.6020170000000 1.0
C      1  0.4943880000000  0.5894520000000  0.5493960000000 1.0
C      1  0.5602780000000  0.4525260000000  0.4407870000000 1.0
C      1  0.5030120000000  0.5192970000000  0.4601980000000 1.0
C      1  0.4152000000000  0.4709210000000  0.4888370000000 1.0
C      1  0.5067960000000  0.5733950000000  0.5673710000000 1.0
C      1  0.5621520000000  0.4119440000000  0.5055470000000 1.0
C      1  0.5428850000000  0.5041250000000  0.4337040000000 1.0
C      1  0.4231820000000  0.4481340000000  0.5049350000000 1.0
C      1  0.5318110000000  0.5485640000000  0.4930540000000 1.0
C      1  0.4507410000000  0.5366980000000  0.5774120000000 1.0
C      1  0.5842090000000  0.5184140000000  0.5364700000000 1.0
C      1  0.5322740000000  0.5178340000000  0.5853380000000 1.0
C      1  0.4909600000000  0.4776210000000  0.4454240000000 1.0
C      1  0.4650060000000  0.4763420000000  0.4962700000000 1.0
C      1  0.4644840000000  0.4883190000000  0.4510370000000 1.0
C      1  0.4995080000000  0.4992180000000  0.4097640000000 1.0
C      1  0.5020510000000  0.4915020000000  0.4682860000000 1.0
C      1  0.5145680000000  0.4598580000000  0.4989520000000 1.0
C      1  0.4504530000000  0.5229680000000  0.4119530000000 1.0
C      1  0.4670680000000  0.5201990000000  0.4905010000000 1.0
C      1  0.4600930000000  0.5177110000000  0.4619580000000 1.0
C      1  0.5860550000000  0.5597860000000  0.4632430000000 1.0
C      1  0.5408550000000  0.5931330000000  0.5153110000000 1.0
C      1  0.5868370000000  0.5560500000000  0.5119210000000 1.0
C      1  0.5270740000000  0.3855840000000  0.4762220000000 1.0
C      1  0.5467690000000  0.5374420000000  0.5704660000000 1.0
C      1  0.4964360000000  0.5714240000000  0.4334660000000 1.0
C      1  0.4196710000000  0.5247780000000  0.4826290000000 1.0
C      1  0.4845550000000  0.5403850000000  0.4988250000000 1.0
C      1  0.5002090000000  0.5303130000000  0.4098880000000 1.0
C      1  0.5226210000000  0.4072700000000  0.5392850000000 1.0
C      1  0.5485370000000  0.4965470000000  0.5791130000000 1.0
C      1  0.4813600000000  0.5331710000000  0.4505990000000 1.0
C      1  0.4940450000000  0.5814330000000  0.5214340000000 1.0
C      1  0.4267620000000  0.5245830000000  0.4535710000000 1.0
C      1  0.4197400000000  0.4993140000000  0.4996920000000 1.0
C      1  0.5708910000000  0.4954030000000  0.5262330000000 1.0
C      1  0.4094030000000  0.5015740000000  0.5280750000000 1.0
C      1  0.4402030000000  0.5689950000000  0.5400480000000 1.0
C      1  0.5836870000000  0.4691670000000  0.5269640000000 1.0
C      1  0.4269650000000  0.4688520000000  0.4627310000000 1.0
C      1  0.4621610000000  0.4664400000000  0.5508940000000 1.0
C      1  0.5233680000000  0.5074620000000  0.5326940000000 1.0
C      1  0.4462990000000  0.4688160000000  0.5768090000000 1.0
C      1  0.4690850000000  0.4031100000000  0.5408690000000 1.0
C      1  0.5478420000000  0.4157980000000  0.5323240000000 1.0
C      1  0.4287260000000  0.4291580000000  0.5472280000000 1.0
C      1  0.4592110000000  0.4378230000000  0.4463170000000 1.0
C      1  0.5008800000000  0.5164610000000  0.5883830000000 1.0
C      1  0.4484000000000  0.4821890000000  0.4237100000000 1.0
C      1  0.4678190000000  0.4243830000000  0.5175830000000 1.0
C      1  0.5880050000000  0.5130250000000  0.4833620000000 1.0
C      1  0.5127320000000  0.4383790000000  0.4369170000000 1.0
END
