TITL C-4164236-1577-115 -2.34798691531085 125000 -7511.0829038666 0 0 51 (C1) n - 1
REM
REM in /home/nfs/bkarasulu/CARBON/AIRSS/Generating-Clusters/ReaxFF-fromJPCA2015/Units_Real/with-SteepDescent/Only-C1/SD-CG/Try1-3A/FIRE-CG
REM
REM
REM
REM
REM
REM ./C.cell (11c1c37f851c82e70ff6c80c92926a4b)
REM
REM compiler GCC version 9.2.1 20190827 (Red Hat 9.2.1-1)
REM options -cpp -mtune=generic -march=x86-64 -g -O0 -fpre-include=/usr/include/finclude/math-vector-fortran.h
REM seed -559609174 -1852309130 776098667 164362377 960139415 -482108781 941009627 1050548494 320350388 -59807931 1114595554 64562080 685880319 -1179042674 180105265 1234474310 252877125 1749024394 1521713607 -1027384188 -192991182 -410266039 -986154941 -624565267 -1921123536 -795904632 -1952239175 1963631038 -290005801 1929729074 636827404 -990365662 -1815480002
REM
CELL 1.54180   50.00000   50.00000   50.00000   90.00000   90.00000   90.00000
LATT -1
SFAC C  
C      1  0.4205040000000  0.5223800000000  0.5143620000000 1.0
C      1  0.5562580000000  0.5467750000000  0.4755030000000 1.0
C      1  0.4811060000000  0.4878480000000  0.4546540000000 1.0
C      1  0.5499510000000  0.4824080000000  0.4553740000000 1.0
C      1  0.4369130000000  0.4726190000000  0.5089690000000 1.0
C      1  0.5309630000000  0.5499910000000  0.4852500000000 1.0
C      1  0.5532840000000  0.4680340000000  0.5220720000000 1.0
C      1  0.5365400000000  0.4475630000000  0.5097610000000 1.0
C      1  0.5150200000000  0.4551130000000  0.5241380000000 1.0
C      1  0.4751890000000  0.5564180000000  0.4539150000000 1.0
C      1  0.4515490000000  0.4789290000000  0.4631240000000 1.0
C      1  0.5167250000000  0.5043750000000  0.4290460000000 1.0
C      1  0.4239720000000  0.4978150000000  0.4989350000000 1.0
C      1  0.4646060000000  0.4894680000000  0.5482320000000 1.0
C      1  0.4964880000000  0.4425360000000  0.5435330000000 1.0
C      1  0.4815870000000  0.5027600000000  0.4816440000000 1.0
C      1  0.5744040000000  0.5345330000000  0.4956640000000 1.0
C      1  0.4962600000000  0.4429680000000  0.4787700000000 1.0
C      1  0.5592040000000  0.5063560000000  0.5364780000000 1.0
C      1  0.5079070000000  0.5159350000000  0.5769670000000 1.0
C      1  0.5769700000000  0.5130370000000  0.5152810000000 1.0
C      1  0.5622590000000  0.4841370000000  0.4790320000000 1.0
C      1  0.5432100000000  0.5075190000000  0.4382170000000 1.0
C      1  0.4528960000000  0.4666530000000  0.5325660000000 1.0
C      1  0.4302850000000  0.4980860000000  0.4684680000000 1.0
C      1  0.5261680000000  0.4431820000000  0.4828400000000 1.0
C      1  0.4374350000000  0.5356250000000  0.5361020000000 1.0
C      1  0.5172650000000  0.4857610000000  0.5634920000000 1.0
C      1  0.5058500000000  0.4812770000000  0.5202880000000 1.0
C      1  0.4717230000000  0.4455550000000  0.5263140000000 1.0
C      1  0.4931250000000  0.5389290000000  0.4368850000000 1.0
C      1  0.4670490000000  0.5643950000000  0.5051860000000 1.0
C      1  0.4948370000000  0.4929430000000  0.5447440000000 1.0
C      1  0.4897250000000  0.5086480000000  0.4331180000000 1.0
C      1  0.4748360000000  0.5484350000000  0.5510320000000 1.0
C      1  0.4728020000000  0.4442410000000  0.4970910000000 1.0
C      1  0.4515700000000  0.5131630000000  0.5432660000000 1.0
C      1  0.4574850000000  0.5593390000000  0.5309650000000 1.0
C      1  0.5052380000000  0.5516330000000  0.4945340000000 1.0
C      1  0.5213180000000  0.5436480000000  0.4395850000000 1.0
C      1  0.4915110000000  0.5339180000000  0.5647370000000 1.0
C      1  0.4806130000000  0.5669650000000  0.4807110000000 1.0
C      1  0.5040620000000  0.4579460000000  0.5674320000000 1.0
C      1  0.4507060000000  0.4602340000000  0.4867080000000 1.0
C      1  0.5288140000000  0.4607440000000  0.4590140000000 1.0
C      1  0.5442660000000  0.4857210000000  0.5439510000000 1.0
C      1  0.5064540000000  0.4977690000000  0.4964430000000 1.0
C      1  0.4937300000000  0.5239890000000  0.4973470000000 1.0
C      1  0.5470970000000  0.5356910000000  0.4471200000000 1.0
C      1  0.4997830000000  0.4620520000000  0.4569270000000 1.0
C      1  0.5724870000000  0.4839430000000  0.5042130000000 1.0
END
