TITL C-4164244-2836-60 -5.04065711782391 125000 -11709.6412437343 0 0 80 (C1) n - 1
REM
REM in /home/nfs/bkarasulu/CARBON/AIRSS/Generating-Clusters/ReaxFF-fromJPCA2015/Units_Real/with-SteepDescent/Only-C1/SD-CG/Try1-3A/FIRE-CG
REM
REM
REM
REM
REM
REM ./C.cell (11c1c37f851c82e70ff6c80c92926a4b)
REM
REM compiler GCC version 9.2.1 20190827 (Red Hat 9.2.1-1)
REM options -cpp -mtune=generic -march=x86-64 -g -O0 -fpre-include=/usr/include/finclude/math-vector-fortran.h
REM seed 698976113 981422678 -86460250 -1510659776 286480182 -676028930 359231388 -1839590013 2010027625 575509399 -1883370504 1966247285 1269871680 -1067445935 611394640 -292833860 1151571491 -1261882163 1618177864 -1938379297 -989734368 1903952382 -1487894175 -70420751 -603816459 -1640697882 708883503 -614146243 -1856465606 1549230041 474169054 -349676949 1015560359
REM
CELL 1.54180   50.00000   50.00000   50.00000   90.00000   90.00000   90.00000
LATT -1
SFAC C  
C      1  0.5116700000000  0.5372430000000  0.5795020000000 1.0
C      1  0.4632930000000  0.4228310000000  0.4747480000000 1.0
C      1  0.5541140000000  0.4612080000000  0.4771290000000 1.0
C      1  0.5116420000000  0.5141270000000  0.4546590000000 1.0
C      1  0.5721980000000  0.4687160000000  0.5263620000000 1.0
C      1  0.4239020000000  0.5085140000000  0.4955300000000 1.0
C      1  0.5061150000000  0.4639310000000  0.4870620000000 1.0
C      1  0.5441260000000  0.5743990000000  0.4824780000000 1.0
C      1  0.4955420000000  0.4619350000000  0.4569220000000 1.0
C      1  0.5648460000000  0.5333570000000  0.5271880000000 1.0
C      1  0.4389200000000  0.4618280000000  0.5198650000000 1.0
C      1  0.4678320000000  0.4784470000000  0.5775910000000 1.0
C      1  0.4664190000000  0.5563200000000  0.5621920000000 1.0
C      1  0.4825270000000  0.4868230000000  0.4530200000000 1.0
C      1  0.5066410000000  0.3988810000000  0.4579030000000 1.0
C      1  0.4808930000000  0.5790870000000  0.5137450000000 1.0
C      1  0.4950320000000  0.4902050000000  0.4976960000000 1.0
C      1  0.5325530000000  0.5172040000000  0.5824050000000 1.0
C      1  0.4834340000000  0.4064990000000  0.4797850000000 1.0
C      1  0.4553010000000  0.5359320000000  0.4470900000000 1.0
C      1  0.4467290000000  0.5396630000000  0.4746670000000 1.0
C      1  0.5049380000000  0.5387980000000  0.5111030000000 1.0
C      1  0.4768960000000  0.4506790000000  0.4368170000000 1.0
C      1  0.4596910000000  0.4452830000000  0.5344680000000 1.0
C      1  0.4516500000000  0.5169110000000  0.4933400000000 1.0
C      1  0.4578020000000  0.5629490000000  0.5351600000000 1.0
C      1  0.5280870000000  0.4468520000000  0.5531920000000 1.0
C      1  0.5847640000000  0.4912750000000  0.5124490000000 1.0
C      1  0.5555050000000  0.4521270000000  0.5432070000000 1.0
C      1  0.4652780000000  0.5069670000000  0.5634130000000 1.0
C      1  0.5736420000000  0.5274370000000  0.4776010000000 1.0
C      1  0.4644180000000  0.5631840000000  0.4782230000000 1.0
C      1  0.4428160000000  0.4413020000000  0.4700940000000 1.0
C      1  0.5187810000000  0.4366860000000  0.4972680000000 1.0
C      1  0.5735190000000  0.4765670000000  0.4610510000000 1.0
C      1  0.4836080000000  0.4281760000000  0.5271110000000 1.0
C      1  0.5420940000000  0.4325440000000  0.4804500000000 1.0
C      1  0.5425220000000  0.4701340000000  0.5632910000000 1.0
C      1  0.4913830000000  0.4641820000000  0.4161330000000 1.0
C      1  0.5228730000000  0.5275820000000  0.4933600000000 1.0
C      1  0.5351630000000  0.5036860000000  0.5039200000000 1.0
C      1  0.4963550000000  0.5509050000000  0.5609590000000 1.0
C      1  0.5467140000000  0.5094200000000  0.5316340000000 1.0
C      1  0.4325330000000  0.4601680000000  0.4910680000000 1.0
C      1  0.4529020000000  0.5083620000000  0.4370040000000 1.0
C      1  0.5338790000000  0.4779800000000  0.4891270000000 1.0
C      1  0.5034980000000  0.4896820000000  0.4135880000000 1.0
C      1  0.4493050000000  0.4583300000000  0.4467610000000 1.0
C      1  0.5234820000000  0.5111420000000  0.6075010000000 1.0
C      1  0.4688600000000  0.4753940000000  0.6032340000000 1.0
C      1  0.4791740000000  0.5528180000000  0.5022650000000 1.0
C      1  0.5608410000000  0.5524970000000  0.4694540000000 1.0
C      1  0.4973810000000  0.4177770000000  0.5036660000000 1.0
C      1  0.4245300000000  0.5162170000000  0.5252060000000 1.0
C      1  0.4743650000000  0.4551600000000  0.5574850000000 1.0
C      1  0.4398720000000  0.4853190000000  0.4511400000000 1.0
C      1  0.5384600000000  0.5790790000000  0.5111010000000 1.0
C      1  0.5409940000000  0.4981670000000  0.5574210000000 1.0
C      1  0.4753790000000  0.5588970000000  0.4507950000000 1.0
C      1  0.5492520000000  0.5414740000000  0.4453870000000 1.0
C      1  0.5706320000000  0.5061020000000  0.4559130000000 1.0
C      1  0.4803630000000  0.5106590000000  0.5382900000000 1.0
C      1  0.5072590000000  0.5852760000000  0.5038220000000 1.0
C      1  0.5286480000000  0.4143070000000  0.4646750000000 1.0
C      1  0.4993790000000  0.4422810000000  0.5484220000000 1.0
C      1  0.4796100000000  0.5018920000000  0.4270420000000 1.0
C      1  0.5034530000000  0.5631460000000  0.4561120000000 1.0
C      1  0.4552130000000  0.5315330000000  0.5760940000000 1.0
C      1  0.5511570000000  0.5143560000000  0.4349980000000 1.0
C      1  0.5015190000000  0.5303610000000  0.5395040000000 1.0
C      1  0.5518850000000  0.5571340000000  0.5210120000000 1.0
C      1  0.4302540000000  0.4875680000000  0.5317880000000 1.0
C      1  0.5243560000000  0.5018840000000  0.4322780000000 1.0
C      1  0.5158950000000  0.5812900000000  0.4754260000000 1.0
C      1  0.4262700000000  0.4848080000000  0.4777940000000 1.0
C      1  0.4908300000000  0.5052920000000  0.4733680000000 1.0
C      1  0.5801140000000  0.5197710000000  0.5051570000000 1.0
C      1  0.4727470000000  0.5027030000000  0.5102930000000 1.0
C      1  0.4412370000000  0.5407810000000  0.5314980000000 1.0
C      1  0.5222450000000  0.5395980000000  0.4625280000000 1.0
END
