TITL C-4164233-775-2 48.6428271570848 125000 -28736.0158525121 0 0 190 (C1) n - 1
REM
REM in /home/nfs/bkarasulu/CARBON/AIRSS/Generating-Clusters/ReaxFF-fromJPCA2015/Units_Real/with-SteepDescent/Only-C1/SD-CG/Try1-3A/FIRE-CG
REM
REM
REM
REM
REM
REM ./C.cell (11c1c37f851c82e70ff6c80c92926a4b)
REM
REM compiler GCC version 9.2.1 20190827 (Red Hat 9.2.1-1)
REM options -cpp -mtune=generic -march=x86-64 -g -O0 -fpre-include=/usr/include/finclude/math-vector-fortran.h
REM seed -2048498325 -1077200694 -333233646 -1510057221 -1237973761 1391623039 1074324748 1139339105 1173070590 -830372570 -712957086 -1617019466 -1089714559 -1969768224 1093546782 1740393277 -1150398187 1699984157 517537157 1742416098 266197052 -962805649 -732124733 -141635617 1937950013 -1254682796 1513956632 1113908943 2095761512 1396508986 1719675953 -850741043 -578500673
REM
CELL 1.54180   50.00000   50.00000   50.00000   90.00000   90.00000   90.00000
LATT -1
SFAC C  
C      1  0.4532820000000  0.4840780000000  0.5997490000000 1.0
C      1  0.4265040000000  0.5744490000000  0.4866890000000 1.0
C      1  0.5193690000000  0.5973220000000  0.5259740000000 1.0
C      1  0.5315980000000  0.4459610000000  0.4184050000000 1.0
C      1  0.5730270000000  0.4226050000000  0.5134800000000 1.0
C      1  0.4664150000000  0.4415960000000  0.3881890000000 1.0
C      1  0.3976730000000  0.5161810000000  0.4966000000000 1.0
C      1  0.4160390000000  0.4756410000000  0.5788920000000 1.0
C      1  0.5082490000000  0.4550690000000  0.3847050000000 1.0
C      1  0.5548650000000  0.4974540000000  0.5662210000000 1.0
C      1  0.5377860000000  0.4856060000000  0.5421430000000 1.0
C      1  0.5934390000000  0.5294640000000  0.4593370000000 1.0
C      1  0.4524320000000  0.4996500000000  0.5539200000000 1.0
C      1  0.5825930000000  0.5057870000000  0.5535360000000 1.0
C      1  0.6005980000000  0.5088420000000  0.4806050000000 1.0
C      1  0.4277280000000  0.5094180000000  0.5112520000000 1.0
C      1  0.5103400000000  0.4085560000000  0.5688490000000 1.0
C      1  0.4274210000000  0.4672250000000  0.4308540000000 1.0
C      1  0.5618390000000  0.4749560000000  0.4742850000000 1.0
C      1  0.5253490000000  0.4480400000000  0.4933570000000 1.0
C      1  0.4877700000000  0.4510310000000  0.4057930000000 1.0
C      1  0.5198750000000  0.5398860000000  0.3932290000000 1.0
C      1  0.5393960000000  0.6005490000000  0.5485450000000 1.0
C      1  0.5221330000000  0.3991750000000  0.4659790000000 1.0
C      1  0.6043560000000  0.4794390000000  0.4802190000000 1.0
C      1  0.5106240000000  0.5525270000000  0.5995570000000 1.0
C      1  0.5052810000000  0.4920160000000  0.5064540000000 1.0
C      1  0.3864190000000  0.4933220000000  0.5125320000000 1.0
C      1  0.4249340000000  0.4405460000000  0.5480190000000 1.0
C      1  0.5982100000000  0.5484020000000  0.5121140000000 1.0
C      1  0.5334170000000  0.4069140000000  0.5511290000000 1.0
C      1  0.4956590000000  0.5428200000000  0.4345210000000 1.0
C      1  0.5632860000000  0.5688890000000  0.4475120000000 1.0
C      1  0.4070310000000  0.5233850000000  0.4441780000000 1.0
C      1  0.4757840000000  0.4991940000000  0.6105630000000 1.0
C      1  0.4613300000000  0.5256890000000  0.5436880000000 1.0
C      1  0.5719500000000  0.5079450000000  0.5240550000000 1.0
C      1  0.5413140000000  0.4730170000000  0.6066810000000 1.0
C      1  0.4809960000000  0.5501150000000  0.5980700000000 1.0
C      1  0.3950790000000  0.5449060000000  0.5070150000000 1.0
C      1  0.5259760000000  0.5625210000000  0.4115950000000 1.0
C      1  0.4845900000000  0.5399330000000  0.5376790000000 1.0
C      1  0.4290760000000  0.4951380000000  0.5369580000000 1.0
C      1  0.4340470000000  0.5005410000000  0.5825280000000 1.0
C      1  0.4517230000000  0.4820180000000  0.4258160000000 1.0
C      1  0.5922090000000  0.4968500000000  0.4299150000000 1.0
C      1  0.4698480000000  0.5286490000000  0.5018560000000 1.0
C      1  0.4907510000000  0.4753340000000  0.3710720000000 1.0
C      1  0.5494940000000  0.4385790000000  0.4634070000000 1.0
C      1  0.5125100000000  0.5707520000000  0.5780780000000 1.0
C      1  0.4294470000000  0.4362150000000  0.4656450000000 1.0
C      1  0.4226740000000  0.5277810000000  0.5720750000000 1.0
C      1  0.5165990000000  0.4670100000000  0.5558400000000 1.0
C      1  0.5612050000000  0.5281140000000  0.6064030000000 1.0
C      1  0.5649740000000  0.5860510000000  0.5083050000000 1.0
C      1  0.5138130000000  0.5673770000000  0.5197760000000 1.0
C      1  0.4775410000000  0.4469720000000  0.4778920000000 1.0
C      1  0.5013410000000  0.4836270000000  0.5758810000000 1.0
C      1  0.4971390000000  0.4017750000000  0.5198220000000 1.0
C      1  0.4234500000000  0.4494690000000  0.5724650000000 1.0
C      1  0.5897170000000  0.4662980000000  0.5772280000000 1.0
C      1  0.4384990000000  0.6010220000000  0.4808070000000 1.0
C      1  0.5091220000000  0.5322500000000  0.4777280000000 1.0
C      1  0.4429660000000  0.4800330000000  0.3953880000000 1.0
C      1  0.4972190000000  0.4892460000000  0.4398450000000 1.0
C      1  0.5528410000000  0.5603120000000  0.4213140000000 1.0
C      1  0.4373180000000  0.5532170000000  0.5687000000000 1.0
C      1  0.5324590000000  0.4933270000000  0.3874440000000 1.0
C      1  0.4489370000000  0.4323780000000  0.4092610000000 1.0
C      1  0.4653590000000  0.4247530000000  0.4331260000000 1.0
C      1  0.5810310000000  0.5105000000000  0.6005460000000 1.0
C      1  0.4792350000000  0.6037520000000  0.4698770000000 1.0
C      1  0.5061970000000  0.4290250000000  0.5912450000000 1.0
C      1  0.5411390000000  0.5199250000000  0.3939950000000 1.0
C      1  0.4872020000000  0.5681380000000  0.5071140000000 1.0
C      1  0.4632550000000  0.4683800000000  0.3765470000000 1.0
C      1  0.5339820000000  0.4483250000000  0.5689200000000 1.0
C      1  0.5489000000000  0.5215760000000  0.4637100000000 1.0
C      1  0.5899960000000  0.5529550000000  0.5663260000000 1.0
C      1  0.5553560000000  0.4979450000000  0.4692540000000 1.0
C      1  0.5916910000000  0.4336200000000  0.4950250000000 1.0
C      1  0.5610490000000  0.5663840000000  0.5607970000000 1.0
C      1  0.4867360000000  0.5686130000000  0.5561320000000 1.0
C      1  0.4364920000000  0.5519230000000  0.4696630000000 1.0
C      1  0.4697370000000  0.5386460000000  0.4213280000000 1.0
C      1  0.6056680000000  0.4604350000000  0.5028990000000 1.0
C      1  0.3998300000000  0.5062200000000  0.4661610000000 1.0
C      1  0.5395110000000  0.4054520000000  0.4434880000000 1.0
C      1  0.4647790000000  0.6043170000000  0.5249420000000 1.0
C      1  0.5829820000000  0.5662730000000  0.4938420000000 1.0
C      1  0.5968190000000  0.4697340000000  0.4296980000000 1.0
C      1  0.5051260000000  0.4551370000000  0.4743340000000 1.0
C      1  0.5197590000000  0.5039300000000  0.5281490000000 1.0
C      1  0.4887530000000  0.5463470000000  0.4892890000000 1.0
C      1  0.5932630000000  0.5189360000000  0.5066510000000 1.0
C      1  0.4487800000000  0.5818230000000  0.4309470000000 1.0
C      1  0.5347880000000  0.5442520000000  0.4801680000000 1.0
C      1  0.4921210000000  0.4605850000000  0.5402260000000 1.0
C      1  0.4774350000000  0.4349110000000  0.5875350000000 1.0
C      1  0.5156550000000  0.4717060000000  0.4538950000000 1.0
C      1  0.4077300000000  0.4449610000000  0.5052480000000 1.0
C      1  0.5675860000000  0.4830620000000  0.5913070000000 1.0
C      1  0.4423700000000  0.5836630000000  0.5292480000000 1.0
C      1  0.5267670000000  0.4007100000000  0.5235160000000 1.0
C      1  0.5964030000000  0.5519040000000  0.5398220000000 1.0
C      1  0.4722820000000  0.4537050000000  0.5056860000000 1.0
C      1  0.5396030000000  0.5197000000000  0.4360430000000 1.0
C      1  0.4735290000000  0.4740970000000  0.5597000000000 1.0
C      1  0.5576990000000  0.4757420000000  0.5231970000000 1.0
C      1  0.3991560000000  0.5628490000000  0.4845880000000 1.0
C      1  0.5291560000000  0.4470600000000  0.5974100000000 1.0
C      1  0.4631050000000  0.6087640000000  0.4953400000000 1.0
C      1  0.4290940000000  0.4538560000000  0.4068800000000 1.0
C      1  0.5510930000000  0.5319370000000  0.5275670000000 1.0
C      1  0.5294420000000  0.5961090000000  0.4745550000000 1.0
C      1  0.4584080000000  0.4362980000000  0.4588300000000 1.0
C      1  0.5379920000000  0.5837360000000  0.5721360000000 1.0
C      1  0.3931560000000  0.4690890000000  0.4970720000000 1.0
C      1  0.5393560000000  0.5707810000000  0.4635620000000 1.0
C      1  0.4648340000000  0.4613190000000  0.5851210000000 1.0
C      1  0.5597320000000  0.5305580000000  0.4165030000000 1.0
C      1  0.4087520000000  0.5485360000000  0.4590060000000 1.0
C      1  0.5490020000000  0.4083620000000  0.5066950000000 1.0
C      1  0.4894120000000  0.4046810000000  0.5492590000000 1.0
C      1  0.6033890000000  0.4816920000000  0.5543420000000 1.0
C      1  0.5662160000000  0.4189080000000  0.4503100000000 1.0
C      1  0.4034130000000  0.5498690000000  0.5347640000000 1.0
C      1  0.4881230000000  0.5940950000000  0.5390990000000 1.0
C      1  0.5381510000000  0.4573950000000  0.4444520000000 1.0
C      1  0.4838100000000  0.5214220000000  0.5934460000000 1.0
C      1  0.5900870000000  0.4616690000000  0.4612310000000 1.0
C      1  0.4257860000000  0.4260490000000  0.4918270000000 1.0
C      1  0.4678460000000  0.5255530000000  0.3954810000000 1.0
C      1  0.4761650000000  0.5803880000000  0.4252770000000 1.0
C      1  0.5060040000000  0.4998180000000  0.3753910000000 1.0
C      1  0.4420860000000  0.4900860000000  0.4938480000000 1.0
C      1  0.4068190000000  0.4796440000000  0.5497800000000 1.0
C      1  0.4245130000000  0.4563180000000  0.5233800000000 1.0
C      1  0.5335120000000  0.4642740000000  0.3952890000000 1.0
C      1  0.5348910000000  0.5485550000000  0.5113280000000 1.0
C      1  0.5037050000000  0.5748960000000  0.4320140000000 1.0
C      1  0.5882850000000  0.4311040000000  0.4660560000000 1.0
C      1  0.4790470000000  0.4720590000000  0.4232440000000 1.0
C      1  0.4441720000000  0.5520410000000  0.4255080000000 1.0
C      1  0.5043030000000  0.5932160000000  0.4603740000000 1.0
C      1  0.6050800000000  0.4701360000000  0.5290560000000 1.0
C      1  0.5353780000000  0.4226390000000  0.4840640000000 1.0
C      1  0.5190720000000  0.4193330000000  0.4282090000000 1.0
C      1  0.5830050000000  0.5563580000000  0.4665710000000 1.0
C      1  0.5048480000000  0.5124670000000  0.5720780000000 1.0
C      1  0.5259470000000  0.4960660000000  0.6135170000000 1.0
C      1  0.5448920000000  0.5411270000000  0.5542710000000 1.0
C      1  0.4808050000000  0.4035580000000  0.4956750000000 1.0
C      1  0.4936540000000  0.4021710000000  0.4684440000000 1.0
C      1  0.4148490000000  0.4585970000000  0.4536900000000 1.0
C      1  0.4458460000000  0.4118780000000  0.5264790000000 1.0
C      1  0.5482350000000  0.4301210000000  0.5545520000000 1.0
C      1  0.5469630000000  0.4664870000000  0.4982540000000 1.0
C      1  0.4532160000000  0.5993350000000  0.4552340000000 1.0
C      1  0.5328780000000  0.5274650000000  0.6063060000000 1.0
C      1  0.5893880000000  0.5255440000000  0.5768480000000 1.0
C      1  0.3885390000000  0.5011450000000  0.5407350000000 1.0
C      1  0.5395550000000  0.5986410000000  0.5022020000000 1.0
C      1  0.4822070000000  0.4928040000000  0.4645210000000 1.0
C      1  0.5112620000000  0.5193440000000  0.4339050000000 1.0
C      1  0.5877860000000  0.5222230000000  0.4317190000000 1.0
C      1  0.4685800000000  0.4165750000000  0.5657870000000 1.0
C      1  0.4504090000000  0.4086740000000  0.5012670000000 1.0
C      1  0.5040120000000  0.5207450000000  0.5438590000000 1.0
C      1  0.4582930000000  0.5649140000000  0.5159510000000 1.0
C      1  0.5667320000000  0.4437270000000  0.5356960000000 1.0
C      1  0.4407320000000  0.4156140000000  0.5540610000000 1.0
C      1  0.5629160000000  0.5884270000000  0.5375820000000 1.0
C      1  0.4650740000000  0.5617610000000  0.5757570000000 1.0
C      1  0.4275050000000  0.5279830000000  0.4212060000000 1.0
C      1  0.4016840000000  0.5262200000000  0.5521550000000 1.0
C      1  0.4538870000000  0.5291520000000  0.4765910000000 1.0
C      1  0.5850440000000  0.4458670000000  0.5588880000000 1.0
C      1  0.5025530000000  0.5045690000000  0.4813570000000 1.0
C      1  0.5008770000000  0.4839480000000  0.6067590000000 1.0
C      1  0.4244190000000  0.5673700000000  0.5463720000000 1.0
C      1  0.5362210000000  0.5205900000000  0.5737530000000 1.0
C      1  0.4464760000000  0.4661320000000  0.5087520000000 1.0
C      1  0.4480010000000  0.5365230000000  0.5200790000000 1.0
C      1  0.4416880000000  0.5126120000000  0.4006680000000 1.0
C      1  0.4928670000000  0.4683590000000  0.5149230000000 1.0
C      1  0.4953290000000  0.5251710000000  0.3843690000000 1.0
C      1  0.3991060000000  0.4775160000000  0.4696190000000 1.0
C      1  0.4547370000000  0.5007740000000  0.4696760000000 1.0
C      1  0.4919700000000  0.4138290000000  0.4403670000000 1.0
END
