TITL C-4164240-4114-721 3.21491839677561 125000 -19103.674425158 0 0 127 (C1) n - 1
REM
REM in /home/nfs/bkarasulu/CARBON/AIRSS/Generating-Clusters/ReaxFF-fromJPCA2015/Units_Real/with-SteepDescent/Only-C1/SD-CG/Try1-3A/FIRE-CG
REM
REM
REM
REM
REM
REM ./C.cell (11c1c37f851c82e70ff6c80c92926a4b)
REM
REM compiler GCC version 9.2.1 20190827 (Red Hat 9.2.1-1)
REM options -cpp -mtune=generic -march=x86-64 -g -O0 -fpre-include=/usr/include/finclude/math-vector-fortran.h
REM seed -829952530 -1737563943 -536452669 -1385638583 -2089542079 1992439781 1986999560 1851586651 790774998 1603599521 -1608040543 1752523344 -1405407832 -268515513 -1258742823 -1295364041 -1068853129 1383848785 -1164308093 -405025989 1433933591 1293940060 232612539 -1508459903 -1360979139 -689786206 1953966726 -636591104 100863978 -506373229 1320192935 952413643 -1418643255
REM
CELL 1.54180   50.00000   50.00000   50.00000   90.00000   90.00000   90.00000
LATT -1
SFAC C  
C      1  0.4334070000000  0.5802050000000  0.4573130000000 1.0
C      1  0.4625830000000  0.5010190000000  0.4252530000000 1.0
C      1  0.5594940000000  0.4540660000000  0.5672330000000 1.0
C      1  0.5157200000000  0.5556130000000  0.6047990000000 1.0
C      1  0.4888750000000  0.5722330000000  0.5321980000000 1.0
C      1  0.4256610000000  0.5554020000000  0.5240100000000 1.0
C      1  0.4558820000000  0.5186770000000  0.5528070000000 1.0
C      1  0.5548340000000  0.4202620000000  0.5209320000000 1.0
C      1  0.5764640000000  0.5049210000000  0.5543330000000 1.0
C      1  0.4804160000000  0.5888980000000  0.4639130000000 1.0
C      1  0.5418130000000  0.4201660000000  0.4593380000000 1.0
C      1  0.5052290000000  0.5320630000000  0.4242520000000 1.0
C      1  0.5329890000000  0.4569730000000  0.5812780000000 1.0
C      1  0.4780490000000  0.4717020000000  0.4681140000000 1.0
C      1  0.3991960000000  0.4839530000000  0.5293380000000 1.0
C      1  0.4112700000000  0.5075760000000  0.5406520000000 1.0
C      1  0.5086900000000  0.4831800000000  0.4192220000000 1.0
C      1  0.4607620000000  0.4910780000000  0.4832510000000 1.0
C      1  0.5683150000000  0.5889030000000  0.4850580000000 1.0
C      1  0.4410700000000  0.5901880000000  0.4840940000000 1.0
C      1  0.5058120000000  0.5221810000000  0.5493600000000 1.0
C      1  0.4368910000000  0.5387980000000  0.4489870000000 1.0
C      1  0.4698280000000  0.5407900000000  0.4915850000000 1.0
C      1  0.4945640000000  0.6049870000000  0.4982660000000 1.0
C      1  0.4422350000000  0.4797490000000  0.5775630000000 1.0
C      1  0.5387770000000  0.4420960000000  0.4399330000000 1.0
C      1  0.4889950000000  0.4545120000000  0.4895650000000 1.0
C      1  0.5183680000000  0.5812230000000  0.5312860000000 1.0
C      1  0.4549260000000  0.4566290000000  0.4446620000000 1.0
C      1  0.5047140000000  0.4643570000000  0.5481630000000 1.0
C      1  0.4887610000000  0.5298630000000  0.4741130000000 1.0
C      1  0.4891490000000  0.4811220000000  0.5899610000000 1.0
C      1  0.4930220000000  0.5255940000000  0.6119840000000 1.0
C      1  0.5250400000000  0.4459400000000  0.5348880000000 1.0
C      1  0.4805380000000  0.5078150000000  0.5504990000000 1.0
C      1  0.5835810000000  0.4648290000000  0.5318650000000 1.0
C      1  0.5407110000000  0.4846330000000  0.4200410000000 1.0
C      1  0.5729350000000  0.4307100000000  0.5005900000000 1.0
C      1  0.5501800000000  0.4361730000000  0.5461560000000 1.0
C      1  0.4236260000000  0.4900830000000  0.4568870000000 1.0
C      1  0.4420360000000  0.5371370000000  0.5661630000000 1.0
C      1  0.5205970000000  0.6008040000000  0.5085240000000 1.0
C      1  0.5646860000000  0.4334350000000  0.4725560000000 1.0
C      1  0.5552190000000  0.4918530000000  0.4900240000000 1.0
C      1  0.5191260000000  0.4549440000000  0.4571130000000 1.0
C      1  0.5178510000000  0.4542880000000  0.4859550000000 1.0
C      1  0.4698370000000  0.4071710000000  0.4502640000000 1.0
C      1  0.5157990000000  0.4805650000000  0.5729090000000 1.0
C      1  0.4697370000000  0.6043030000000  0.4843540000000 1.0
C      1  0.4619540000000  0.4300070000000  0.4337770000000 1.0
C      1  0.4874170000000  0.4423030000000  0.5616050000000 1.0
C      1  0.5006500000000  0.4093450000000  0.5188380000000 1.0
C      1  0.4687880000000  0.4086620000000  0.4799750000000 1.0
C      1  0.5356660000000  0.5360200000000  0.5111080000000 1.0
C      1  0.4402600000000  0.5104700000000  0.4426360000000 1.0
C      1  0.4356410000000  0.4522320000000  0.5385040000000 1.0
C      1  0.5322570000000  0.5350030000000  0.4127790000000 1.0
C      1  0.4864900000000  0.5041520000000  0.6053020000000 1.0
C      1  0.4308030000000  0.5089460000000  0.5640710000000 1.0
C      1  0.4820730000000  0.4842430000000  0.5327840000000 1.0
C      1  0.5539200000000  0.5212280000000  0.5609730000000 1.0
C      1  0.4906200000000  0.5083170000000  0.4188270000000 1.0
C      1  0.4292930000000  0.4481650000000  0.4847190000000 1.0
C      1  0.5258580000000  0.5584240000000  0.4651190000000 1.0
C      1  0.4826980000000  0.4264930000000  0.5340880000000 1.0
C      1  0.5448720000000  0.6055220000000  0.4904750000000 1.0
C      1  0.5504070000000  0.5110920000000  0.4181500000000 1.0
C      1  0.5584050000000  0.5489070000000  0.5503960000000 1.0
C      1  0.5718760000000  0.4585110000000  0.4594450000000 1.0
C      1  0.5989390000000  0.5022750000000  0.4831040000000 1.0
C      1  0.4726300000000  0.4382450000000  0.5090920000000 1.0
C      1  0.4647590000000  0.5783090000000  0.5477960000000 1.0
C      1  0.5787250000000  0.4744950000000  0.5569150000000 1.0
C      1  0.4977960000000  0.4105080000000  0.4416390000000 1.0
C      1  0.4851300000000  0.5480540000000  0.5152390000000 1.0
C      1  0.5975970000000  0.5211490000000  0.5063790000000 1.0
C      1  0.4220890000000  0.5559340000000  0.4691930000000 1.0
C      1  0.5516990000000  0.5988020000000  0.4633910000000 1.0
C      1  0.5054980000000  0.4806670000000  0.4526590000000 1.0
C      1  0.5147770000000  0.4094400000000  0.4655620000000 1.0
C      1  0.5373350000000  0.4707260000000  0.4999270000000 1.0
C      1  0.4515390000000  0.5182930000000  0.4895380000000 1.0
C      1  0.5431270000000  0.5502240000000  0.4860330000000 1.0
C      1  0.5082890000000  0.5318770000000  0.5220640000000 1.0
C      1  0.4081420000000  0.4558170000000  0.5309470000000 1.0
C      1  0.5856550000000  0.5103290000000  0.4597380000000 1.0
C      1  0.4895850000000  0.4604340000000  0.4143320000000 1.0
C      1  0.4674740000000  0.4659490000000  0.5791090000000 1.0
C      1  0.5945900000000  0.5196330000000  0.5362320000000 1.0
C      1  0.4883150000000  0.4322570000000  0.4220930000000 1.0
C      1  0.5173340000000  0.5032900000000  0.4651380000000 1.0
C      1  0.4792630000000  0.5691490000000  0.4451520000000 1.0
C      1  0.5451740000000  0.5052420000000  0.4658730000000 1.0
C      1  0.5118940000000  0.4366670000000  0.5791220000000 1.0
C      1  0.5626880000000  0.5166280000000  0.4451290000000 1.0
C      1  0.5884160000000  0.4552050000000  0.5068950000000 1.0
C      1  0.4464540000000  0.4718940000000  0.4995560000000 1.0
C      1  0.5263670000000  0.5121790000000  0.5682460000000 1.0
C      1  0.5005040000000  0.4927560000000  0.5108370000000 1.0
C      1  0.5175960000000  0.5308200000000  0.5965760000000 1.0
C      1  0.5845330000000  0.5473170000000  0.5363760000000 1.0
C      1  0.4539590000000  0.4716440000000  0.5256280000000 1.0
C      1  0.4138490000000  0.5288290000000  0.5213150000000 1.0
C      1  0.4402150000000  0.5607720000000  0.5492610000000 1.0
C      1  0.5000440000000  0.5460330000000  0.4528800000000 1.0
C      1  0.4082030000000  0.4982420000000  0.4805570000000 1.0
C      1  0.4054310000000  0.4527880000000  0.5023830000000 1.0
C      1  0.5277480000000  0.4885540000000  0.5197660000000 1.0
C      1  0.4304290000000  0.4625140000000  0.4585020000000 1.0
C      1  0.5379810000000  0.5603570000000  0.5335690000000 1.0
C      1  0.5847210000000  0.4746360000000  0.4821730000000 1.0
C      1  0.5569490000000  0.4644740000000  0.4344120000000 1.0
C      1  0.3957810000000  0.4799420000000  0.5001940000000 1.0
C      1  0.5256920000000  0.4241260000000  0.5144630000000 1.0
C      1  0.5686180000000  0.5609340000000  0.4894200000000 1.0
C      1  0.4972770000000  0.4066050000000  0.4894150000000 1.0
C      1  0.4510710000000  0.4265520000000  0.4933130000000 1.0
C      1  0.5370360000000  0.5601430000000  0.4251660000000 1.0
C      1  0.5875710000000  0.5485230000000  0.5068450000000 1.0
C      1  0.5035080000000  0.5109250000000  0.4877740000000 1.0
C      1  0.4302410000000  0.4582750000000  0.5649330000000 1.0
C      1  0.5362830000000  0.5786640000000  0.4464440000000 1.0
C      1  0.5476160000000  0.5082990000000  0.5131220000000 1.0
C      1  0.4507670000000  0.5634210000000  0.4396640000000 1.0
C      1  0.4225350000000  0.5189920000000  0.4946610000000 1.0
C      1  0.4296170000000  0.5668860000000  0.4972060000000 1.0
C      1  0.4647410000000  0.4726040000000  0.4218750000000 1.0
END
