TITL C-4164237-1827-706 190.030793726888 125000 -21092.5489046792 0 0 145 (C1) n - 1
REM
REM in /home/nfs/bkarasulu/CARBON/AIRSS/Generating-Clusters/ReaxFF-fromJPCA2015/Units_Real/with-SteepDescent/Only-C1/SD-CG/Try1-3A/FIRE-CG
REM
REM
REM
REM
REM
REM ./C.cell (11c1c37f851c82e70ff6c80c92926a4b)
REM
REM compiler GCC version 9.2.1 20190827 (Red Hat 9.2.1-1)
REM options -cpp -mtune=generic -march=x86-64 -g -O0 -fpre-include=/usr/include/finclude/math-vector-fortran.h
REM seed 708315831 -1707930286 -287894745 -482830449 1701605863 -2033470274 -490243192 -338652150 -1595936907 1308378300 901120915 171340361 965666403 2136433154 352672501 -892436211 -2119152160 -1286929807 2110335575 -1971231966 1658665005 1819314887 -1802701809 177978356 1335012855 370445516 -1976818337 573910457 1015734803 218978483 168043189 1932164839 1334759738
REM
CELL 1.54180   50.00000   50.00000   50.00000   90.00000   90.00000   90.00000
LATT -1
SFAC C  
C      1  0.4616960000000  0.4624630000000  0.5633870000000 1.0
C      1  0.5050250000000  0.4029990000000  0.4706320000000 1.0
C      1  0.5444060000000  0.5109410000000  0.4631470000000 1.0
C      1  0.5265140000000  0.5853170000000  0.4412680000000 1.0
C      1  0.5089810000000  0.4877500000000  0.3962920000000 1.0
C      1  0.4115650000000  0.5376240000000  0.4387900000000 1.0
C      1  0.4462720000000  0.5159640000000  0.4066000000000 1.0
C      1  0.4954850000000  0.5063470000000  0.4142450000000 1.0
C      1  0.4748300000000  0.4403060000000  0.5146930000000 1.0
C      1  0.5769630000000  0.5520560000000  0.5091850000000 1.0
C      1  0.4922770000000  0.5349790000000  0.5965520000000 1.0
C      1  0.4362980000000  0.4652630000000  0.4256060000000 1.0
C      1  0.4754630000000  0.5255470000000  0.4035530000000 1.0
C      1  0.5678150000000  0.4308560000000  0.5090170000000 1.0
C      1  0.5202000000000  0.4211440000000  0.5332390000000 1.0
C      1  0.4640240000000  0.4272390000000  0.4911000000000 1.0
C      1  0.5519890000000  0.5410710000000  0.4242840000000 1.0
C      1  0.4800040000000  0.3954330000000  0.5218290000000 1.0
C      1  0.5210000000000  0.4376040000000  0.5073170000000 1.0
C      1  0.5528130000000  0.4273330000000  0.5336280000000 1.0
C      1  0.4203340000000  0.4438830000000  0.4577150000000 1.0
C      1  0.5597480000000  0.4908820000000  0.5978680000000 1.0
C      1  0.4584090000000  0.5539630000000  0.4371190000000 1.0
C      1  0.4984760000000  0.4616110000000  0.4078060000000 1.0
C      1  0.5287020000000  0.5665150000000  0.5376400000000 1.0
C      1  0.4931060000000  0.5649320000000  0.5984070000000 1.0
C      1  0.5493070000000  0.5325290000000  0.5653940000000 1.0
C      1  0.5133310000000  0.5728220000000  0.5796040000000 1.0
C      1  0.4289310000000  0.5517790000000  0.5439680000000 1.0
C      1  0.4160580000000  0.5530390000000  0.4635890000000 1.0
C      1  0.5043130000000  0.5827770000000  0.5328820000000 1.0
C      1  0.4763620000000  0.4817090000000  0.5464670000000 1.0
C      1  0.4462940000000  0.5020220000000  0.5912050000000 1.0
C      1  0.5284210000000  0.4625350000000  0.5743730000000 1.0
C      1  0.4178830000000  0.5369270000000  0.5223920000000 1.0
C      1  0.4983140000000  0.4895260000000  0.5650720000000 1.0
C      1  0.4413270000000  0.5664340000000  0.4598760000000 1.0
C      1  0.5293910000000  0.5346660000000  0.4717260000000 1.0
C      1  0.5255010000000  0.4860470000000  0.5580920000000 1.0
C      1  0.5511620000000  0.5415920000000  0.5071860000000 1.0
C      1  0.4625370000000  0.4486740000000  0.4220980000000 1.0
C      1  0.5352190000000  0.5037320000000  0.6011540000000 1.0
C      1  0.4965920000000  0.4921380000000  0.5936660000000 1.0
C      1  0.4421040000000  0.4104250000000  0.4799220000000 1.0
C      1  0.5881350000000  0.4860170000000  0.5447630000000 1.0
C      1  0.5934780000000  0.4803470000000  0.5130210000000 1.0
C      1  0.4932920000000  0.4154050000000  0.4470220000000 1.0
C      1  0.5041200000000  0.6031270000000  0.4873150000000 1.0
C      1  0.4732960000000  0.5816300000000  0.4971560000000 1.0
C      1  0.4198740000000  0.4994060000000  0.4720360000000 1.0
C      1  0.4805730000000  0.5431610000000  0.4612160000000 1.0
C      1  0.5100800000000  0.5472070000000  0.4185550000000 1.0
C      1  0.4943960000000  0.3908040000000  0.4960360000000 1.0
C      1  0.4776040000000  0.4696960000000  0.5155210000000 1.0
C      1  0.4885620000000  0.5678770000000  0.4754290000000 1.0
C      1  0.5450860000000  0.5919980000000  0.5437580000000 1.0
C      1  0.4649220000000  0.5732220000000  0.5544840000000 1.0
C      1  0.4818400000000  0.5197800000000  0.5215620000000 1.0
C      1  0.5344100000000  0.5012340000000  0.3993790000000 1.0
C      1  0.4989840000000  0.5825500000000  0.4516620000000 1.0
C      1  0.5736270000000  0.4655510000000  0.4489940000000 1.0
C      1  0.4409800000000  0.5468420000000  0.5050090000000 1.0
C      1  0.4266190000000  0.4712680000000  0.4542310000000 1.0
C      1  0.5437260000000  0.4541370000000  0.4189800000000 1.0
C      1  0.5609350000000  0.4954180000000  0.4826080000000 1.0
C      1  0.4274680000000  0.4961380000000  0.5697260000000 1.0
C      1  0.4764070000000  0.5771750000000  0.5272480000000 1.0
C      1  0.4516020000000  0.5308430000000  0.5867360000000 1.0
C      1  0.4711850000000  0.5210680000000  0.4756440000000 1.0
C      1  0.4213160000000  0.4306190000000  0.5228450000000 1.0
C      1  0.4817630000000  0.5509220000000  0.4150580000000 1.0
C      1  0.4682540000000  0.5121700000000  0.5461050000000 1.0
C      1  0.5779960000000  0.5314740000000  0.5719490000000 1.0
C      1  0.5077220000000  0.4618640000000  0.4966270000000 1.0
C      1  0.4762230000000  0.5292810000000  0.5722620000000 1.0
C      1  0.4987660000000  0.4285540000000  0.5539580000000 1.0
C      1  0.5176910000000  0.4258280000000  0.4333040000000 1.0
C      1  0.5433330000000  0.4251920000000  0.4927630000000 1.0
C      1  0.5267840000000  0.6095530000000  0.5034980000000 1.0
C      1  0.5080680000000  0.3941640000000  0.5213880000000 1.0
C      1  0.5720150000000  0.5884800000000  0.4775490000000 1.0
C      1  0.4355000000000  0.5006580000000  0.4969500000000 1.0
C      1  0.5625900000000  0.4981720000000  0.5332170000000 1.0
C      1  0.4369790000000  0.5376600000000  0.4244970000000 1.0
C      1  0.5426450000000  0.5085200000000  0.5503390000000 1.0
C      1  0.5547860000000  0.4555450000000  0.5401480000000 1.0
C      1  0.5707960000000  0.4903260000000  0.4334990000000 1.0
C      1  0.5528490000000  0.4823320000000  0.4130120000000 1.0
C      1  0.5856600000000  0.5032160000000  0.4960740000000 1.0
C      1  0.4143280000000  0.5082540000000  0.5319260000000 1.0
C      1  0.5564890000000  0.4652750000000  0.5830130000000 1.0
C      1  0.4164320000000  0.4737560000000  0.5543130000000 1.0
C      1  0.5951070000000  0.5093260000000  0.5638960000000 1.0
C      1  0.4695270000000  0.4837930000000  0.5989240000000 1.0
C      1  0.5705240000000  0.5655080000000  0.4585210000000 1.0
C      1  0.4182300000000  0.4172680000000  0.4962440000000 1.0
C      1  0.5894070000000  0.5322640000000  0.4897380000000 1.0
C      1  0.5493120000000  0.5669350000000  0.4382000000000 1.0
C      1  0.4862500000000  0.4758060000000  0.4519970000000 1.0
C      1  0.5341390000000  0.4081170000000  0.4703450000000 1.0
C      1  0.4721760000000  0.4200150000000  0.5393040000000 1.0
C      1  0.5216280000000  0.6073000000000  0.5328730000000 1.0
C      1  0.4463380000000  0.5711170000000  0.4881690000000 1.0
C      1  0.4676340000000  0.4954640000000  0.4649860000000 1.0
C      1  0.4063830000000  0.4800040000000  0.5279120000000 1.0
C      1  0.5028260000000  0.4459980000000  0.5756080000000 1.0
C      1  0.4803460000000  0.4662820000000  0.4264090000000 1.0
C      1  0.5824310000000  0.4560630000000  0.5010790000000 1.0
C      1  0.5163660000000  0.5212730000000  0.6043080000000 1.0
C      1  0.4846750000000  0.5805800000000  0.5752340000000 1.0
C      1  0.4761820000000  0.4567780000000  0.5874620000000 1.0
C      1  0.5175300000000  0.4527080000000  0.4282000000000 1.0
C      1  0.5435600000000  0.4193550000000  0.4454610000000 1.0
C      1  0.5085500000000  0.5120220000000  0.5136240000000 1.0
C      1  0.4663830000000  0.4253400000000  0.4397550000000 1.0
C      1  0.5816270000000  0.5390910000000  0.4626120000000 1.0
C      1  0.5456770000000  0.4779320000000  0.5228150000000 1.0
C      1  0.5247230000000  0.5345290000000  0.5009070000000 1.0
C      1  0.4408740000000  0.4226470000000  0.4534540000000 1.0
C      1  0.5111780000000  0.5084900000000  0.4397350000000 1.0
C      1  0.5284030000000  0.5531570000000  0.5634720000000 1.0
C      1  0.4418040000000  0.4280650000000  0.5429500000000 1.0
C      1  0.4528120000000  0.4754090000000  0.5004180000000 1.0
C      1  0.4507050000000  0.4735740000000  0.4712040000000 1.0
C      1  0.5125140000000  0.4888770000000  0.4582670000000 1.0
C      1  0.4437750000000  0.5554990000000  0.5671120000000 1.0
C      1  0.5675750000000  0.5203480000000  0.4423280000000 1.0
C      1  0.5828670000000  0.5084380000000  0.5897180000000 1.0
C      1  0.5319720000000  0.5312180000000  0.4065500000000 1.0
C      1  0.5755760000000  0.5820140000000  0.5054630000000 1.0
C      1  0.5740220000000  0.4633820000000  0.5602420000000 1.0
C      1  0.4102120000000  0.4558420000000  0.5110010000000 1.0
C      1  0.4076860000000  0.4418850000000  0.4845340000000 1.0
C      1  0.5087140000000  0.5361640000000  0.4496550000000 1.0
C      1  0.5200540000000  0.4852500000000  0.5117650000000 1.0
C      1  0.5102550000000  0.4629610000000  0.4656290000000 1.0
C      1  0.4408710000000  0.4901480000000  0.4153120000000 1.0
C      1  0.4376130000000  0.5113410000000  0.5475460000000 1.0
C      1  0.4356450000000  0.4513100000000  0.5574300000000 1.0
C      1  0.5552790000000  0.6016920000000  0.4975900000000 1.0
C      1  0.4648300000000  0.5301790000000  0.5020330000000 1.0
C      1  0.5616400000000  0.4410550000000  0.4375210000000 1.0
C      1  0.5683710000000  0.4677870000000  0.4777470000000 1.0
C      1  0.5150020000000  0.6053030000000  0.4608430000000 1.0
C      1  0.4065880000000  0.5239920000000  0.4639310000000 1.0
END
