TITL C-4164233-775-674 12.4581731800395 125000 -19725.1395686386 0 0 130 (C1) n - 1
REM
REM in /home/nfs/bkarasulu/CARBON/AIRSS/Generating-Clusters/ReaxFF-fromJPCA2015/Units_Real/with-SteepDescent/Only-C1/SD-CG/Try1-3A/FIRE-CG
REM
REM
REM
REM
REM
REM ./C.cell (11c1c37f851c82e70ff6c80c92926a4b)
REM
REM compiler GCC version 9.2.1 20190827 (Red Hat 9.2.1-1)
REM options -cpp -mtune=generic -march=x86-64 -g -O0 -fpre-include=/usr/include/finclude/math-vector-fortran.h
REM seed -1498017094 -689643961 953619942 -1194852161 -1116187215 -683008692 200987875 -1527743943 508007675 -241582993 -1289180876 -1434999677 -912812477 -338794757 -1924454908 822775739 1810218206 1988929949 -373178368 -1325030462 1183347551 1877275956 719043593 -1960667679 -1854709310 -327880980 -1761473500 1411441240 1801429476 911932389 -2048609949 1015476293 -64852147
REM
CELL 1.54180   50.00000   50.00000   50.00000   90.00000   90.00000   90.00000
LATT -1
SFAC C  
C      1  0.5828000000000  0.5323670000000  0.4832460000000 1.0
C      1  0.5083500000000  0.5204200000000  0.4882210000000 1.0
C      1  0.5274600000000  0.4677380000000  0.4727340000000 1.0
C      1  0.5576140000000  0.4924660000000  0.5305100000000 1.0
C      1  0.4442920000000  0.4918240000000  0.4850690000000 1.0
C      1  0.5449070000000  0.4449200000000  0.4643920000000 1.0
C      1  0.4642430000000  0.5769340000000  0.4919770000000 1.0
C      1  0.5860950000000  0.5490310000000  0.5102840000000 1.0
C      1  0.4878700000000  0.4970440000000  0.5418270000000 1.0
C      1  0.4567810000000  0.4070360000000  0.4934020000000 1.0
C      1  0.5662460000000  0.5714850000000  0.5479020000000 1.0
C      1  0.5110660000000  0.4925640000000  0.5291960000000 1.0
C      1  0.4222830000000  0.4710640000000  0.5493690000000 1.0
C      1  0.4641250000000  0.5193600000000  0.4183390000000 1.0
C      1  0.5540650000000  0.4380990000000  0.5404490000000 1.0
C      1  0.4029370000000  0.5143850000000  0.4642160000000 1.0
C      1  0.4824810000000  0.4389090000000  0.4147340000000 1.0
C      1  0.5928620000000  0.5239040000000  0.5225710000000 1.0
C      1  0.4900400000000  0.5125820000000  0.5645720000000 1.0
C      1  0.5688010000000  0.5066110000000  0.5718860000000 1.0
C      1  0.5755360000000  0.4402940000000  0.4953960000000 1.0
C      1  0.5084910000000  0.3927880000000  0.5618800000000 1.0
C      1  0.4657890000000  0.4039450000000  0.5331710000000 1.0
C      1  0.5624600000000  0.4799900000000  0.4383610000000 1.0
C      1  0.5053190000000  0.5557380000000  0.5669990000000 1.0
C      1  0.4389540000000  0.5964470000000  0.5319930000000 1.0
C      1  0.5326840000000  0.6039430000000  0.4665620000000 1.0
C      1  0.5968580000000  0.4887980000000  0.5449360000000 1.0
C      1  0.5525050000000  0.5881850000000  0.5005780000000 1.0
C      1  0.5180440000000  0.4963620000000  0.5012820000000 1.0
C      1  0.5026680000000  0.5424650000000  0.4502610000000 1.0
C      1  0.5057170000000  0.5419820000000  0.4205650000000 1.0
C      1  0.4891020000000  0.5593180000000  0.5106030000000 1.0
C      1  0.4351220000000  0.4864520000000  0.4378240000000 1.0
C      1  0.4201980000000  0.5319640000000  0.4482420000000 1.0
C      1  0.4414480000000  0.4175730000000  0.4727030000000 1.0
C      1  0.4026050000000  0.4812380000000  0.5294600000000 1.0
C      1  0.4809280000000  0.5928460000000  0.4720250000000 1.0
C      1  0.5312270000000  0.4290180000000  0.5249060000000 1.0
C      1  0.5693330000000  0.5715440000000  0.5182050000000 1.0
C      1  0.5924950000000  0.5148870000000  0.5544600000000 1.0
C      1  0.3945430000000  0.5099870000000  0.5177590000000 1.0
C      1  0.5086040000000  0.4664450000000  0.5850030000000 1.0
C      1  0.5926560000000  0.4894880000000  0.4764890000000 1.0
C      1  0.5238890000000  0.5944980000000  0.5056390000000 1.0
C      1  0.4740950000000  0.4663400000000  0.4071310000000 1.0
C      1  0.5401280000000  0.4878930000000  0.4567880000000 1.0
C      1  0.4330970000000  0.5440310000000  0.4636680000000 1.0
C      1  0.4387550000000  0.5154250000000  0.4334830000000 1.0
C      1  0.4512630000000  0.5314000000000  0.5222180000000 1.0
C      1  0.5293210000000  0.4188560000000  0.4980950000000 1.0
C      1  0.5862180000000  0.4603380000000  0.4766210000000 1.0
C      1  0.5554390000000  0.5331270000000  0.5785150000000 1.0
C      1  0.5065290000000  0.4361540000000  0.5340630000000 1.0
C      1  0.5249930000000  0.4442090000000  0.5775090000000 1.0
C      1  0.5694690000000  0.4552520000000  0.4536280000000 1.0
C      1  0.5041530000000  0.4270400000000  0.5616630000000 1.0
C      1  0.5317390000000  0.5519150000000  0.5788530000000 1.0
C      1  0.5547070000000  0.5203310000000  0.4852410000000 1.0
C      1  0.5717640000000  0.5473690000000  0.5615020000000 1.0
C      1  0.5201210000000  0.4947850000000  0.4077500000000 1.0
C      1  0.4618980000000  0.4605900000000  0.5262520000000 1.0
C      1  0.4719870000000  0.5077460000000  0.5874820000000 1.0
C      1  0.5264820000000  0.5220230000000  0.4149990000000 1.0
C      1  0.5834400000000  0.5008850000000  0.4513220000000 1.0
C      1  0.5146460000000  0.5762780000000  0.5510680000000 1.0
C      1  0.4544470000000  0.5937780000000  0.5129560000000 1.0
C      1  0.4584640000000  0.4819510000000  0.5845000000000 1.0
C      1  0.5566960000000  0.4798530000000  0.5778410000000 1.0
C      1  0.5282940000000  0.4867760000000  0.5754350000000 1.0
C      1  0.4039280000000  0.4707240000000  0.5047700000000 1.0
C      1  0.5328420000000  0.4903840000000  0.5456200000000 1.0
C      1  0.5047630000000  0.4313310000000  0.4333920000000 1.0
C      1  0.5567570000000  0.5894700000000  0.4710610000000 1.0
C      1  0.4934080000000  0.4197260000000  0.4597470000000 1.0
C      1  0.5459140000000  0.5254730000000  0.4351980000000 1.0
C      1  0.5986030000000  0.5104010000000  0.4973010000000 1.0
C      1  0.5461210000000  0.5655940000000  0.4570090000000 1.0
C      1  0.4177790000000  0.5582080000000  0.5070960000000 1.0
C      1  0.4803790000000  0.4997740000000  0.4288040000000 1.0
C      1  0.4326270000000  0.4454600000000  0.4788540000000 1.0
C      1  0.3969320000000  0.5151180000000  0.4908360000000 1.0
C      1  0.4906560000000  0.4905910000000  0.4053640000000 1.0
C      1  0.4758940000000  0.4354360000000  0.5695390000000 1.0
C      1  0.5029620000000  0.4131210000000  0.4859630000000 1.0
C      1  0.4573160000000  0.4359640000000  0.4298450000000 1.0
C      1  0.4882130000000  0.3929510000000  0.5437050000000 1.0
C      1  0.4768000000000  0.5818860000000  0.4475590000000 1.0
C      1  0.5411510000000  0.5756070000000  0.5634640000000 1.0
C      1  0.4211230000000  0.4874810000000  0.4648650000000 1.0
C      1  0.4336330000000  0.5188930000000  0.5663820000000 1.0
C      1  0.5211130000000  0.4522240000000  0.4257190000000 1.0
C      1  0.4054320000000  0.5369470000000  0.5249610000000 1.0
C      1  0.4804910000000  0.4020830000000  0.5043780000000 1.0
C      1  0.4506330000000  0.4653220000000  0.4252500000000 1.0
C      1  0.4791470000000  0.4613560000000  0.5818890000000 1.0
C      1  0.4823630000000  0.4578710000000  0.4901450000000 1.0
C      1  0.5619030000000  0.5469710000000  0.4406040000000 1.0
C      1  0.4643470000000  0.4199770000000  0.4535190000000 1.0
C      1  0.4302370000000  0.5345620000000  0.5410880000000 1.0
C      1  0.4980520000000  0.4702300000000  0.4697540000000 1.0
C      1  0.4564800000000  0.5305180000000  0.5794260000000 1.0
C      1  0.5380000000000  0.5158340000000  0.4615320000000 1.0
C      1  0.4743430000000  0.5434020000000  0.5300230000000 1.0
C      1  0.4347400000000  0.4891310000000  0.5684270000000 1.0
C      1  0.4868710000000  0.4475340000000  0.5173770000000 1.0
C      1  0.5085710000000  0.6029160000000  0.4811850000000 1.0
C      1  0.5828340000000  0.5295600000000  0.4510420000000 1.0
C      1  0.4395660000000  0.4484960000000  0.5405000000000 1.0
C      1  0.4652970000000  0.4893750000000  0.5279960000000 1.0
C      1  0.4238790000000  0.5739340000000  0.5301000000000 1.0
C      1  0.5195240000000  0.5572960000000  0.4678910000000 1.0
C      1  0.5364650000000  0.4734710000000  0.4180200000000 1.0
C      1  0.4538270000000  0.4648960000000  0.4838330000000 1.0
C      1  0.4936790000000  0.5193100000000  0.4652860000000 1.0
C      1  0.4556130000000  0.4262280000000  0.5511370000000 1.0
C      1  0.4743760000000  0.5681820000000  0.4264940000000 1.0
C      1  0.4523320000000  0.5065250000000  0.5088760000000 1.0
C      1  0.5770650000000  0.4436250000000  0.5240340000000 1.0
C      1  0.4873770000000  0.4939290000000  0.4554870000000 1.0
C      1  0.5469960000000  0.5015950000000  0.5048290000000 1.0
C      1  0.5118470000000  0.5479620000000  0.4947560000000 1.0
C      1  0.5809090000000  0.4727650000000  0.5295400000000 1.0
C      1  0.4085140000000  0.4617430000000  0.4792160000000 1.0
C      1  0.5511040000000  0.4516940000000  0.5668460000000 1.0
C      1  0.4375210000000  0.5590800000000  0.4852100000000 1.0
C      1  0.5520390000000  0.4280970000000  0.4842290000000 1.0
C      1  0.4817290000000  0.5405300000000  0.5590460000000 1.0
C      1  0.4777700000000  0.5447760000000  0.4114180000000 1.0
C      1  0.5085750000000  0.5771800000000  0.5237790000000 1.0
END
