TITL C-4164232-771-356 33.452580218848 125000 -21664.6396138978 0 0 146 (C1) n - 1
REM
REM in /home/nfs/bkarasulu/CARBON/AIRSS/Generating-Clusters/ReaxFF-fromJPCA2015/Units_Real/with-SteepDescent/Only-C1/SD-CG/Try1-3A/FIRE-CG
REM
REM
REM
REM
REM
REM ./C.cell (11c1c37f851c82e70ff6c80c92926a4b)
REM
REM compiler GCC version 9.2.1 20190827 (Red Hat 9.2.1-1)
REM options -cpp -mtune=generic -march=x86-64 -g -O0 -fpre-include=/usr/include/finclude/math-vector-fortran.h
REM seed -2066315397 -230974943 -937689810 543834334 -469789485 -361948932 -1256974859 -184975133 -850305627 737413640 -1357121854 -2088540714 351500920 1827487209 -1874308152 -1730512551 -1488513586 -1302635987 864072441 1152929204 1857399758 -490044842 -1583737440 -1119763537 1855822463 -66579908 -1196565215 -534893025 383493130 -1245914812 -584909242 -183769610 -2083032374
REM
CELL 1.54180   50.00000   50.00000   50.00000   90.00000   90.00000   90.00000
LATT -1
SFAC C  
C      1  0.5326830000000  0.4867450000000  0.5558510000000 1.0
C      1  0.5000620000000  0.4277880000000  0.4271180000000 1.0
C      1  0.5749510000000  0.5551970000000  0.4485780000000 1.0
C      1  0.4057670000000  0.4611580000000  0.5070070000000 1.0
C      1  0.5120200000000  0.5298730000000  0.5366160000000 1.0
C      1  0.5434330000000  0.5946710000000  0.5049570000000 1.0
C      1  0.5246640000000  0.4179590000000  0.4435650000000 1.0
C      1  0.5438280000000  0.5931150000000  0.4598680000000 1.0
C      1  0.5117350000000  0.4045260000000  0.5190690000000 1.0
C      1  0.4409350000000  0.4885830000000  0.4926160000000 1.0
C      1  0.4568590000000  0.5341000000000  0.5292700000000 1.0
C      1  0.4304350000000  0.4478380000000  0.4419900000000 1.0
C      1  0.5176890000000  0.6054560000000  0.4942860000000 1.0
C      1  0.5514320000000  0.5108910000000  0.5617220000000 1.0
C      1  0.4726320000000  0.4757550000000  0.5241340000000 1.0
C      1  0.5817790000000  0.5444900000000  0.5148680000000 1.0
C      1  0.4491690000000  0.5142980000000  0.5767020000000 1.0
C      1  0.5508810000000  0.4486640000000  0.4748880000000 1.0
C      1  0.4110030000000  0.5137150000000  0.5290120000000 1.0
C      1  0.4243070000000  0.5466940000000  0.4949530000000 1.0
C      1  0.4620800000000  0.4056880000000  0.5311010000000 1.0
C      1  0.5322120000000  0.4716450000000  0.5322920000000 1.0
C      1  0.4856580000000  0.5131170000000  0.4652720000000 1.0
C      1  0.5930970000000  0.4456500000000  0.5122410000000 1.0
C      1  0.4159300000000  0.5073350000000  0.5561920000000 1.0
C      1  0.4975000000000  0.5224990000000  0.5892120000000 1.0
C      1  0.4574450000000  0.5509920000000  0.5895830000000 1.0
C      1  0.5768470000000  0.5711540000000  0.5316840000000 1.0
C      1  0.4342020000000  0.4410600000000  0.5489990000000 1.0
C      1  0.4732560000000  0.4147410000000  0.4306980000000 1.0
C      1  0.5628380000000  0.4984920000000  0.5147260000000 1.0
C      1  0.4531720000000  0.5537040000000  0.4550960000000 1.0
C      1  0.4011760000000  0.4860520000000  0.4558040000000 1.0
C      1  0.5783200000000  0.4825710000000  0.5415040000000 1.0
C      1  0.5176720000000  0.6057520000000  0.4654860000000 1.0
C      1  0.5927270000000  0.5623520000000  0.5502950000000 1.0
C      1  0.5754940000000  0.4037010000000  0.4719100000000 1.0
C      1  0.5128800000000  0.4729350000000  0.4907810000000 1.0
C      1  0.4753630000000  0.5481930000000  0.4382330000000 1.0
C      1  0.5380460000000  0.5349430000000  0.5527310000000 1.0
C      1  0.5727080000000  0.4241190000000  0.5157300000000 1.0
C      1  0.5210110000000  0.4749740000000  0.5957570000000 1.0
C      1  0.5319360000000  0.4697810000000  0.4705810000000 1.0
C      1  0.5014480000000  0.5576480000000  0.5274710000000 1.0
C      1  0.5195710000000  0.5430860000000  0.5933830000000 1.0
C      1  0.4480620000000  0.4884300000000  0.5879310000000 1.0
C      1  0.5860910000000  0.4917210000000  0.4972740000000 1.0
C      1  0.4633330000000  0.5838790000000  0.5683220000000 1.0
C      1  0.4452050000000  0.5815810000000  0.5187040000000 1.0
C      1  0.5670470000000  0.5403370000000  0.4275590000000 1.0
C      1  0.5496440000000  0.5863530000000  0.5322040000000 1.0
C      1  0.3866530000000  0.4471910000000  0.5155390000000 1.0
C      1  0.5347200000000  0.5334880000000  0.4214120000000 1.0
C      1  0.5737060000000  0.4495330000000  0.4546320000000 1.0
C      1  0.5373900000000  0.5228730000000  0.6054580000000 1.0
C      1  0.4535910000000  0.4704900000000  0.4307850000000 1.0
C      1  0.4135460000000  0.4938270000000  0.5030070000000 1.0
C      1  0.4867790000000  0.4851030000000  0.4792490000000 1.0
C      1  0.5865340000000  0.5003550000000  0.4562370000000 1.0
C      1  0.4680140000000  0.4913790000000  0.5011060000000 1.0
C      1  0.5470320000000  0.4634110000000  0.5867300000000 1.0
C      1  0.4527850000000  0.5134210000000  0.4015110000000 1.0
C      1  0.5799790000000  0.4746600000000  0.4409580000000 1.0
C      1  0.5326620000000  0.5658690000000  0.4567730000000 1.0
C      1  0.5922330000000  0.5425750000000  0.4879870000000 1.0
C      1  0.5228760000000  0.4446970000000  0.5261910000000 1.0
C      1  0.4299980000000  0.4697520000000  0.5484100000000 1.0
C      1  0.4738980000000  0.4950480000000  0.3951820000000 1.0
C      1  0.4819980000000  0.4058800000000  0.4580600000000 1.0
C      1  0.4282830000000  0.5367200000000  0.4458220000000 1.0
C      1  0.5342570000000  0.5310650000000  0.4942970000000 1.0
C      1  0.4017980000000  0.4666060000000  0.4375410000000 1.0
C      1  0.4435110000000  0.5651120000000  0.5696000000000 1.0
C      1  0.4736910000000  0.5944500000000  0.4719170000000 1.0
C      1  0.4357200000000  0.5747460000000  0.4927830000000 1.0
C      1  0.4579020000000  0.4819640000000  0.5470410000000 1.0
C      1  0.5180460000000  0.5148520000000  0.5119600000000 1.0
C      1  0.4660850000000  0.5249410000000  0.5961850000000 1.0
C      1  0.4637730000000  0.5119850000000  0.5505880000000 1.0
C      1  0.4324090000000  0.4402530000000  0.4733680000000 1.0
C      1  0.4540130000000  0.5328110000000  0.5010450000000 1.0
C      1  0.4543570000000  0.4383700000000  0.5703630000000 1.0
C      1  0.4974760000000  0.4635810000000  0.5767090000000 1.0
C      1  0.4152820000000  0.5417190000000  0.5233920000000 1.0
C      1  0.5092850000000  0.4345630000000  0.5678270000000 1.0
C      1  0.5619030000000  0.5158920000000  0.5898830000000 1.0
C      1  0.4227050000000  0.4369400000000  0.4999940000000 1.0
C      1  0.4940090000000  0.5937240000000  0.4523040000000 1.0
C      1  0.5388700000000  0.4872270000000  0.4028870000000 1.0
C      1  0.5160490000000  0.5022110000000  0.6038640000000 1.0
C      1  0.4737990000000  0.4683780000000  0.4099310000000 1.0
C      1  0.5340880000000  0.4411920000000  0.5757830000000 1.0
C      1  0.4478570000000  0.4648720000000  0.4757700000000 1.0
C      1  0.4465630000000  0.4310820000000  0.5225130000000 1.0
C      1  0.5406120000000  0.5124420000000  0.4436010000000 1.0
C      1  0.4829690000000  0.4322720000000  0.4713300000000 1.0
C      1  0.5753080000000  0.4210510000000  0.4477380000000 1.0
C      1  0.5018370000000  0.5658570000000  0.5003590000000 1.0
C      1  0.5185850000000  0.4208510000000  0.5434050000000 1.0
C      1  0.5307870000000  0.4050240000000  0.4956510000000 1.0
C      1  0.5288380000000  0.4854620000000  0.4465260000000 1.0
C      1  0.4225010000000  0.4847170000000  0.5725660000000 1.0
C      1  0.5008610000000  0.4485840000000  0.5072160000000 1.0
C      1  0.5675560000000  0.5159370000000  0.4423540000000 1.0
C      1  0.5316480000000  0.4222180000000  0.4722820000000 1.0
C      1  0.4838870000000  0.3994770000000  0.5120120000000 1.0
C      1  0.5212830000000  0.5592500000000  0.4310530000000 1.0
C      1  0.4528450000000  0.4982840000000  0.4386520000000 1.0
C      1  0.4693130000000  0.5324910000000  0.4765610000000 1.0
C      1  0.5658030000000  0.4487200000000  0.5037030000000 1.0
C      1  0.5041050000000  0.5805950000000  0.5455000000000 1.0
C      1  0.5954180000000  0.5137290000000  0.4804250000000 1.0
C      1  0.4139390000000  0.5310510000000  0.4691810000000 1.0
C      1  0.5967180000000  0.4739310000000  0.5198090000000 1.0
C      1  0.4991060000000  0.4541930000000  0.4159000000000 1.0
C      1  0.5506910000000  0.4145080000000  0.4305840000000 1.0
C      1  0.4648450000000  0.4157800000000  0.5570500000000 1.0
C      1  0.5237470000000  0.4701650000000  0.4216870000000 1.0
C      1  0.5575640000000  0.5276580000000  0.5122570000000 1.0
C      1  0.5224730000000  0.5125750000000  0.4030740000000 1.0
C      1  0.4379180000000  0.5566170000000  0.5373960000000 1.0
C      1  0.4492760000000  0.4296940000000  0.4315870000000 1.0
C      1  0.5343010000000  0.5565280000000  0.5715370000000 1.0
C      1  0.5693040000000  0.4726000000000  0.5667530000000 1.0
C      1  0.4887070000000  0.5953600000000  0.4983970000000 1.0
C      1  0.4349530000000  0.5170810000000  0.4240620000000 1.0
C      1  0.4509850000000  0.5786240000000  0.4699950000000 1.0
C      1  0.4745310000000  0.4597760000000  0.4692710000000 1.0
C      1  0.4027250000000  0.5049440000000  0.4760090000000 1.0
C      1  0.5319160000000  0.5815190000000  0.5547130000000 1.0
C      1  0.4741910000000  0.4480100000000  0.5172530000000 1.0
C      1  0.5214350000000  0.5544170000000  0.4822580000000 1.0
C      1  0.5644410000000  0.4807120000000  0.4163180000000 1.0
C      1  0.5614210000000  0.5886080000000  0.4822230000000 1.0
C      1  0.5293880000000  0.4890400000000  0.5107790000000 1.0
C      1  0.4938330000000  0.5132510000000  0.5581680000000 1.0
C      1  0.4735700000000  0.4082880000000  0.4858570000000 1.0
C      1  0.5608670000000  0.4030700000000  0.4975370000000 1.0
C      1  0.4685870000000  0.5969000000000  0.5227880000000 1.0
C      1  0.4801950000000  0.5184330000000  0.4368490000000 1.0
C      1  0.5808410000000  0.5665810000000  0.4729320000000 1.0
C      1  0.5048790000000  0.4863470000000  0.5592030000000 1.0
C      1  0.4945840000000  0.5693300000000  0.4350790000000 1.0
C      1  0.4795240000000  0.5979030000000  0.5500740000000 1.0
C      1  0.4657470000000  0.4666890000000  0.5764380000000 1.0
C      1  0.4942850000000  0.5120540000000  0.4076320000000 1.0
END
