TITL C-4164243-3780-314 39.2219209380151 125000 -19693.0118106863 0 0 134 (C1) n - 1
REM
REM in /home/nfs/bkarasulu/CARBON/AIRSS/Generating-Clusters/ReaxFF-fromJPCA2015/Units_Real/with-SteepDescent/Only-C1/SD-CG/Try1-3A/FIRE-CG
REM
REM
REM
REM
REM
REM ./C.cell (11c1c37f851c82e70ff6c80c92926a4b)
REM
REM compiler GCC version 9.2.1 20190827 (Red Hat 9.2.1-1)
REM options -cpp -mtune=generic -march=x86-64 -g -O0 -fpre-include=/usr/include/finclude/math-vector-fortran.h
REM seed -823378271 544532345 -2067690779 -1732884293 -740092933 -561123706 1863922548 1478317803 1036829875 715823698 508740025 1318786629 -136254891 -818516103 1490753365 -764041752 -1458343031 751456326 674516417 -1968007605 -636287690 -458076698 238850962 185691946 -941729018 -1450528201 1331817639 -1388746084 1774429999 -1410517819 -63395081 -2130136424 1712660197
REM
CELL 1.54180   50.00000   50.00000   50.00000   90.00000   90.00000   90.00000
LATT -1
SFAC C  
C      1  0.5878610000000  0.4740160000000  0.5022350000000 1.0
C      1  0.4542680000000  0.5321540000000  0.4963590000000 1.0
C      1  0.5293780000000  0.5793690000000  0.4679730000000 1.0
C      1  0.4177470000000  0.4684780000000  0.5358920000000 1.0
C      1  0.5029340000000  0.4083370000000  0.4677260000000 1.0
C      1  0.5033370000000  0.4773890000000  0.5413620000000 1.0
C      1  0.4144820000000  0.5142870000000  0.5058560000000 1.0
C      1  0.5052850000000  0.4382430000000  0.5683090000000 1.0
C      1  0.4926350000000  0.6072720000000  0.5266110000000 1.0
C      1  0.4942830000000  0.5035180000000  0.5109840000000 1.0
C      1  0.4857150000000  0.4240440000000  0.4489680000000 1.0
C      1  0.5197830000000  0.4856540000000  0.4514740000000 1.0
C      1  0.4397400000000  0.4394490000000  0.4476430000000 1.0
C      1  0.4764730000000  0.5302240000000  0.5739680000000 1.0
C      1  0.5915210000000  0.4927400000000  0.4812860000000 1.0
C      1  0.5680510000000  0.5618020000000  0.5002810000000 1.0
C      1  0.5806240000000  0.4801520000000  0.4550260000000 1.0
C      1  0.4855390000000  0.4521090000000  0.4575090000000 1.0
C      1  0.5340540000000  0.5341400000000  0.5945720000000 1.0
C      1  0.5425720000000  0.4620440000000  0.4873140000000 1.0
C      1  0.4512900000000  0.5617320000000  0.5557470000000 1.0
C      1  0.5444450000000  0.5777830000000  0.5706720000000 1.0
C      1  0.4561050000000  0.5070730000000  0.4068550000000 1.0
C      1  0.4980480000000  0.5610940000000  0.5877950000000 1.0
C      1  0.4278150000000  0.4446820000000  0.5533600000000 1.0
C      1  0.5036450000000  0.5890760000000  0.4793250000000 1.0
C      1  0.5630410000000  0.5092240000000  0.5258210000000 1.0
C      1  0.5265880000000  0.5627090000000  0.5894650000000 1.0
C      1  0.4536540000000  0.4923980000000  0.4334920000000 1.0
C      1  0.4641280000000  0.5112430000000  0.5111710000000 1.0
C      1  0.4848430000000  0.4100700000000  0.5335800000000 1.0
C      1  0.4799440000000  0.5253120000000  0.4598120000000 1.0
C      1  0.4515910000000  0.4080740000000  0.4842210000000 1.0
C      1  0.5427160000000  0.5267880000000  0.5682790000000 1.0
C      1  0.4335250000000  0.4992780000000  0.4815430000000 1.0
C      1  0.4784240000000  0.4631810000000  0.4829600000000 1.0
C      1  0.5051030000000  0.5092290000000  0.4416240000000 1.0
C      1  0.4206820000000  0.5688610000000  0.5138440000000 1.0
C      1  0.5523860000000  0.4335710000000  0.5151620000000 1.0
C      1  0.5245100000000  0.5293360000000  0.4324520000000 1.0
C      1  0.5131670000000  0.5147840000000  0.6028450000000 1.0
C      1  0.5323510000000  0.4419090000000  0.4680620000000 1.0
C      1  0.6043840000000  0.5075450000000  0.5263260000000 1.0
C      1  0.4431310000000  0.5528590000000  0.4796820000000 1.0
C      1  0.5324700000000  0.4128060000000  0.5070170000000 1.0
C      1  0.5914350000000  0.5425220000000  0.5076870000000 1.0
C      1  0.5147000000000  0.4115480000000  0.5303120000000 1.0
C      1  0.4683930000000  0.5739990000000  0.4435080000000 1.0
C      1  0.4613320000000  0.4688880000000  0.5746640000000 1.0
C      1  0.4819490000000  0.4829920000000  0.5593830000000 1.0
C      1  0.5151630000000  0.4389870000000  0.4234190000000 1.0
C      1  0.4579970000000  0.4174360000000  0.4574080000000 1.0
C      1  0.5765230000000  0.4519480000000  0.4621860000000 1.0
C      1  0.4824180000000  0.4434160000000  0.5044750000000 1.0
C      1  0.4913570000000  0.4149990000000  0.4935290000000 1.0
C      1  0.4564600000000  0.5078290000000  0.4590300000000 1.0
C      1  0.5109020000000  0.4578330000000  0.4488630000000 1.0
C      1  0.5169930000000  0.5795010000000  0.4411580000000 1.0
C      1  0.4765990000000  0.5425090000000  0.4064270000000 1.0
C      1  0.5532760000000  0.4672470000000  0.4152650000000 1.0
C      1  0.4535470000000  0.4387950000000  0.5107230000000 1.0
C      1  0.4041340000000  0.4991190000000  0.5292920000000 1.0
C      1  0.5746240000000  0.4506350000000  0.4913940000000 1.0
C      1  0.5549780000000  0.4344790000000  0.4520220000000 1.0
C      1  0.5382590000000  0.4681670000000  0.5959210000000 1.0
C      1  0.5160260000000  0.5962440000000  0.5349530000000 1.0
C      1  0.5731650000000  0.5390350000000  0.5582430000000 1.0
C      1  0.4946910000000  0.5351170000000  0.4849310000000 1.0
C      1  0.5537220000000  0.4383080000000  0.5451740000000 1.0
C      1  0.4149920000000  0.5409580000000  0.5110770000000 1.0
C      1  0.5637160000000  0.5269910000000  0.4408640000000 1.0
C      1  0.5312290000000  0.4755870000000  0.3962910000000 1.0
C      1  0.4683660000000  0.5070640000000  0.5647440000000 1.0
C      1  0.5269140000000  0.4274660000000  0.5519140000000 1.0
C      1  0.5657780000000  0.4878670000000  0.4312520000000 1.0
C      1  0.5110790000000  0.4579500000000  0.5900260000000 1.0
C      1  0.4983560000000  0.5008280000000  0.4154860000000 1.0
C      1  0.5185670000000  0.5013540000000  0.5310370000000 1.0
C      1  0.4920520000000  0.5342320000000  0.5971600000000 1.0
C      1  0.4580390000000  0.5882870000000  0.5099720000000 1.0
C      1  0.5823930000000  0.4861620000000  0.5302390000000 1.0
C      1  0.5409130000000  0.5042930000000  0.5105540000000 1.0
C      1  0.5485410000000  0.5618980000000  0.5220350000000 1.0
C      1  0.4077450000000  0.4976950000000  0.4503470000000 1.0
C      1  0.5718090000000  0.5673200000000  0.5700330000000 1.0
C      1  0.5109030000000  0.4526250000000  0.3976680000000 1.0
C      1  0.6010900000000  0.5157050000000  0.4976320000000 1.0
C      1  0.5214110000000  0.5271370000000  0.5478540000000 1.0
C      1  0.4154790000000  0.5205290000000  0.4403140000000 1.0
C      1  0.5536720000000  0.5637680000000  0.4752120000000 1.0
C      1  0.4261610000000  0.5141180000000  0.5762880000000 1.0
C      1  0.4966850000000  0.4834410000000  0.4899940000000 1.0
C      1  0.5221380000000  0.5023820000000  0.4003740000000 1.0
C      1  0.4837340000000  0.5146640000000  0.3989730000000 1.0
C      1  0.4825890000000  0.5552240000000  0.5606910000000 1.0
C      1  0.4874290000000  0.5810830000000  0.5038780000000 1.0
C      1  0.4830340000000  0.5499030000000  0.4345780000000 1.0
C      1  0.5556280000000  0.4681910000000  0.5736280000000 1.0
C      1  0.4429420000000  0.5631100000000  0.4519120000000 1.0
C      1  0.5297250000000  0.4143510000000  0.4777160000000 1.0
C      1  0.5377490000000  0.4875540000000  0.4719800000000 1.0
C      1  0.5677410000000  0.4633260000000  0.5512700000000 1.0
C      1  0.4475240000000  0.4637710000000  0.4326460000000 1.0
C      1  0.4947410000000  0.5515450000000  0.5092510000000 1.0
C      1  0.5048570000000  0.4556440000000  0.5232520000000 1.0
C      1  0.4530960000000  0.4851400000000  0.4994110000000 1.0
C      1  0.5585670000000  0.5350140000000  0.4679430000000 1.0
C      1  0.4912330000000  0.5894180000000  0.4527780000000 1.0
C      1  0.4339820000000  0.4308320000000  0.4903300000000 1.0
C      1  0.4335440000000  0.5424870000000  0.5679190000000 1.0
C      1  0.5447850000000  0.4411640000000  0.4256430000000 1.0
C      1  0.5111560000000  0.5544320000000  0.4268190000000 1.0
C      1  0.4355570000000  0.4744530000000  0.5190510000000 1.0
C      1  0.4127140000000  0.5096270000000  0.5528160000000 1.0
C      1  0.4547620000000  0.4416230000000  0.5661340000000 1.0
C      1  0.5011370000000  0.5455160000000  0.5372060000000 1.0
C      1  0.4371740000000  0.5795490000000  0.4907490000000 1.0
C      1  0.5385450000000  0.5829710000000  0.5409150000000 1.0
C      1  0.4424830000000  0.5777890000000  0.5325510000000 1.0
C      1  0.4702670000000  0.4016010000000  0.5073570000000 1.0
C      1  0.5572980000000  0.5362350000000  0.5326640000000 1.0
C      1  0.4485670000000  0.4945270000000  0.5805310000000 1.0
C      1  0.4364630000000  0.4301260000000  0.5311620000000 1.0
C      1  0.5486670000000  0.5159360000000  0.4192990000000 1.0
C      1  0.4309740000000  0.5432850000000  0.4323330000000 1.0
C      1  0.5054220000000  0.5096540000000  0.4878090000000 1.0
C      1  0.4156580000000  0.4782490000000  0.4690770000000 1.0
C      1  0.5314910000000  0.4548080000000  0.5131370000000 1.0
C      1  0.4798690000000  0.4281170000000  0.5566290000000 1.0
C      1  0.5445710000000  0.5124240000000  0.4835110000000 1.0
C      1  0.5970990000000  0.5340340000000  0.5349000000000 1.0
C      1  0.4236120000000  0.4493610000000  0.4693740000000 1.0
C      1  0.4483310000000  0.5346550000000  0.4102890000000 1.0
C      1  0.5143450000000  0.4853580000000  0.6010950000000 1.0
END
