TITL C-4164242-3624-454 -1.58343538504815 125000 -4514.31841556758 0 0 32 (C1) n - 1
REM
REM in /home/nfs/bkarasulu/CARBON/AIRSS/Generating-Clusters/ReaxFF-fromJPCA2015/Units_Real/with-SteepDescent/Only-C1/SD-CG/Try1-3A/FIRE-CG
REM
REM
REM
REM
REM
REM ./C.cell (11c1c37f851c82e70ff6c80c92926a4b)
REM
REM compiler GCC version 9.2.1 20190827 (Red Hat 9.2.1-1)
REM options -cpp -mtune=generic -march=x86-64 -g -O0 -fpre-include=/usr/include/finclude/math-vector-fortran.h
REM seed -357146561 -587111665 -1516182243 -343649921 1839594125 2038693108 -357394988 395229046 -1783636443 1621341768 1514850982 -289381118 76836196 -1262120403 -1530154258 -646697222 2043905343 920036416 -1945475429 1973563206 -1675595401 -1701107144 775867006 -1008977444 -2005617055 549618387 -1442889920 427473408 45594004 -305620310 1397606559 -218286096 -798434531
REM
CELL 1.54180   50.00000   50.00000   50.00000   90.00000   90.00000   90.00000
LATT -1
SFAC C  
C      1  0.4859340000000  0.5009070000000  0.5616850000000 1.0
C      1  0.5367780000000  0.4694470000000  0.4733480000000 1.0
C      1  0.4496410000000  0.5311090000000  0.5377200000000 1.0
C      1  0.5021420000000  0.4955910000000  0.4420520000000 1.0
C      1  0.4488090000000  0.5260810000000  0.5108420000000 1.0
C      1  0.5282960000000  0.4536370000000  0.5229510000000 1.0
C      1  0.4991040000000  0.5063090000000  0.5024180000000 1.0
C      1  0.4776240000000  0.5261070000000  0.5541540000000 1.0
C      1  0.5169780000000  0.4589790000000  0.5483010000000 1.0
C      1  0.4755500000000  0.4820020000000  0.4559730000000 1.0
C      1  0.5470730000000  0.4697190000000  0.5029060000000 1.0
C      1  0.4620800000000  0.4913880000000  0.4802620000000 1.0
C      1  0.5420560000000  0.5190510000000  0.4673770000000 1.0
C      1  0.4978840000000  0.5254000000000  0.4806420000000 1.0
C      1  0.4992430000000  0.5115260000000  0.4225090000000 1.0
C      1  0.4920960000000  0.4614290000000  0.4627230000000 1.0
C      1  0.5717010000000  0.4701260000000  0.4953240000000 1.0
C      1  0.5237060000000  0.5473230000000  0.5098220000000 1.0
C      1  0.5076430000000  0.4465120000000  0.5046840000000 1.0
C      1  0.4765200000000  0.5665400000000  0.4913870000000 1.0
C      1  0.4901410000000  0.4559610000000  0.5431620000000 1.0
C      1  0.5138440000000  0.5229260000000  0.5227350000000 1.0
C      1  0.5028880000000  0.5685350000000  0.5049560000000 1.0
C      1  0.4840420000000  0.4593120000000  0.5159270000000 1.0
C      1  0.4515380000000  0.5190450000000  0.4841660000000 1.0
C      1  0.4721970000000  0.5394350000000  0.4784970000000 1.0
C      1  0.5013960000000  0.5318660000000  0.5402110000000 1.0
C      1  0.5140900000000  0.4501510000000  0.4755650000000 1.0
C      1  0.4788750000000  0.4857530000000  0.5039290000000 1.0
C      1  0.4955690000000  0.4750580000000  0.5640380000000 1.0
C      1  0.5305120000000  0.4935180000000  0.4585910000000 1.0
C      1  0.5240510000000  0.5392590000000  0.4811420000000 1.0
END
