TITL C-4164232-771-21 2.10285903171892 125000 -20361.696293372 0 0 139 (C1) n - 1
REM
REM in /home/nfs/bkarasulu/CARBON/AIRSS/Generating-Clusters/ReaxFF-fromJPCA2015/Units_Real/with-SteepDescent/Only-C1/SD-CG/Try1-3A/FIRE-CG
REM
REM
REM
REM
REM
REM ./C.cell (11c1c37f851c82e70ff6c80c92926a4b)
REM
REM compiler GCC version 9.2.1 20190827 (Red Hat 9.2.1-1)
REM options -cpp -mtune=generic -march=x86-64 -g -O0 -fpre-include=/usr/include/finclude/math-vector-fortran.h
REM seed -1423157693 731761963 -1609817740 -1196056994 -39665895 -1533897630 178160267 -2058489123 1581080391 -967475936 994948303 -283414319 -1145662642 -89371132 -774471817 1321790414 1700068747 1024980429 -998827007 -1198793769 -13378418 -1399437511 831315860 -99675707 611363741 -105422059 -1088255497 -170912622 -421881479 -1131119903 1757972986 98111659 -753265086
REM
CELL 1.54180   50.00000   50.00000   50.00000   90.00000   90.00000   90.00000
LATT -1
SFAC C  
C      1  0.4176190000000  0.4917560000000  0.5657790000000 1.0
C      1  0.4161510000000  0.4492200000000  0.4810510000000 1.0
C      1  0.5427450000000  0.4166270000000  0.5282130000000 1.0
C      1  0.5581300000000  0.4292300000000  0.4736450000000 1.0
C      1  0.5100540000000  0.4144240000000  0.4445530000000 1.0
C      1  0.5488130000000  0.5494580000000  0.4088460000000 1.0
C      1  0.4402020000000  0.4962150000000  0.5828930000000 1.0
C      1  0.5184510000000  0.4557030000000  0.4652970000000 1.0
C      1  0.5349180000000  0.5927560000000  0.4770890000000 1.0
C      1  0.5419960000000  0.5147430000000  0.5695770000000 1.0
C      1  0.5744880000000  0.4792750000000  0.5878360000000 1.0
C      1  0.5325780000000  0.5288960000000  0.3968370000000 1.0
C      1  0.5029790000000  0.4927350000000  0.4845600000000 1.0
C      1  0.4679090000000  0.4214100000000  0.4685130000000 1.0
C      1  0.5210720000000  0.5045680000000  0.5835940000000 1.0
C      1  0.5169880000000  0.5582850000000  0.4497620000000 1.0
C      1  0.4537880000000  0.4167820000000  0.5382410000000 1.0
C      1  0.5379790000000  0.5783830000000  0.4513500000000 1.0
C      1  0.4539960000000  0.4873110000000  0.4651160000000 1.0
C      1  0.5335500000000  0.4907100000000  0.4898510000000 1.0
C      1  0.4503320000000  0.5219020000000  0.5938440000000 1.0
C      1  0.6061630000000  0.5400880000000  0.5481790000000 1.0
C      1  0.4613430000000  0.5983400000000  0.5450090000000 1.0
C      1  0.5384770000000  0.4737490000000  0.5268090000000 1.0
C      1  0.4725050000000  0.4735420000000  0.4074350000000 1.0
C      1  0.5337450000000  0.5377110000000  0.5536690000000 1.0
C      1  0.5435990000000  0.5240800000000  0.5088280000000 1.0
C      1  0.5675550000000  0.4991420000000  0.5690490000000 1.0
C      1  0.5000920000000  0.5571970000000  0.4280870000000 1.0
C      1  0.4727440000000  0.5234340000000  0.5093400000000 1.0
C      1  0.5163570000000  0.4585590000000  0.5148260000000 1.0
C      1  0.4936130000000  0.5088410000000  0.5770170000000 1.0
C      1  0.5546760000000  0.4752700000000  0.5996780000000 1.0
C      1  0.4740510000000  0.4514140000000  0.4676450000000 1.0
C      1  0.4366820000000  0.5577630000000  0.5505720000000 1.0
C      1  0.5949470000000  0.5018040000000  0.4575100000000 1.0
C      1  0.5036590000000  0.4164100000000  0.5597670000000 1.0
C      1  0.4517160000000  0.4872270000000  0.5281700000000 1.0
C      1  0.4727090000000  0.4249840000000  0.5162430000000 1.0
C      1  0.4439400000000  0.4184950000000  0.4839930000000 1.0
C      1  0.4692020000000  0.5786820000000  0.4667380000000 1.0
C      1  0.4785780000000  0.5223060000000  0.5491810000000 1.0
C      1  0.5792880000000  0.4755400000000  0.4568580000000 1.0
C      1  0.4523590000000  0.5116990000000  0.5426630000000 1.0
C      1  0.5544220000000  0.4872460000000  0.4468460000000 1.0
C      1  0.5987920000000  0.4825940000000  0.5069590000000 1.0
C      1  0.4603870000000  0.4758270000000  0.5755610000000 1.0
C      1  0.4913540000000  0.4926120000000  0.4137050000000 1.0
C      1  0.5705040000000  0.5784680000000  0.5176050000000 1.0
C      1  0.3992150000000  0.5232570000000  0.5051400000000 1.0
C      1  0.4782980000000  0.5503170000000  0.6050040000000 1.0
C      1  0.4454190000000  0.4545450000000  0.4331700000000 1.0
C      1  0.4756410000000  0.4480380000000  0.4207330000000 1.0
C      1  0.4307610000000  0.4454410000000  0.4557120000000 1.0
C      1  0.4172770000000  0.5582730000000  0.4714240000000 1.0
C      1  0.5125340000000  0.5571780000000  0.5588230000000 1.0
C      1  0.5392330000000  0.3926430000000  0.4864120000000 1.0
C      1  0.5785870000000  0.5439280000000  0.4801600000000 1.0
C      1  0.4393250000000  0.4828630000000  0.4399290000000 1.0
C      1  0.5459850000000  0.4383580000000  0.5463690000000 1.0
C      1  0.5318650000000  0.5906350000000  0.5305500000000 1.0
C      1  0.5526680000000  0.5774490000000  0.4942850000000 1.0
C      1  0.5546350000000  0.4124520000000  0.4992600000000 1.0
C      1  0.5806740000000  0.4599850000000  0.5055650000000 1.0
C      1  0.4060770000000  0.5024220000000  0.4857600000000 1.0
C      1  0.4187740000000  0.4811020000000  0.5218990000000 1.0
C      1  0.4145200000000  0.5472370000000  0.5413220000000 1.0
C      1  0.4056530000000  0.5059730000000  0.5259200000000 1.0
C      1  0.4621050000000  0.5409540000000  0.4269240000000 1.0
C      1  0.4183220000000  0.5371700000000  0.4533860000000 1.0
C      1  0.5413790000000  0.4235670000000  0.4497200000000 1.0
C      1  0.5779320000000  0.4841140000000  0.5476570000000 1.0
C      1  0.4991180000000  0.5155910000000  0.4613500000000 1.0
C      1  0.4732840000000  0.5628100000000  0.4396560000000 1.0
C      1  0.4272210000000  0.5672240000000  0.4959830000000 1.0
C      1  0.4855690000000  0.5508830000000  0.5452310000000 1.0
C      1  0.5524790000000  0.4523740000000  0.4063140000000 1.0
C      1  0.4545520000000  0.5523700000000  0.5895080000000 1.0
C      1  0.5111320000000  0.4119570000000  0.4890450000000 1.0
C      1  0.5037200000000  0.5590210000000  0.4938760000000 1.0
C      1  0.5643640000000  0.4611790000000  0.5333580000000 1.0
C      1  0.5511820000000  0.4829640000000  0.4051230000000 1.0
C      1  0.5279510000000  0.4739590000000  0.4453600000000 1.0
C      1  0.4784160000000  0.5215670000000  0.6021810000000 1.0
C      1  0.6043180000000  0.4944950000000  0.4819990000000 1.0
C      1  0.4868300000000  0.4988570000000  0.5090430000000 1.0
C      1  0.5222130000000  0.4398010000000  0.5640390000000 1.0
C      1  0.5394750000000  0.5428410000000  0.5263210000000 1.0
C      1  0.4698420000000  0.4539050000000  0.5092110000000 1.0
C      1  0.4812010000000  0.5503010000000  0.5118660000000 1.0
C      1  0.5203010000000  0.5541870000000  0.4061300000000 1.0
C      1  0.5485760000000  0.4976560000000  0.5146790000000 1.0
C      1  0.5087500000000  0.5421110000000  0.4700190000000 1.0
C      1  0.5933200000000  0.5327160000000  0.5272580000000 1.0
C      1  0.4346870000000  0.4500280000000  0.5510430000000 1.0
C      1  0.5115940000000  0.4972070000000  0.4338490000000 1.0
C      1  0.4885340000000  0.4791680000000  0.5806200000000 1.0
C      1  0.5544720000000  0.5287520000000  0.4833390000000 1.0
C      1  0.4255360000000  0.4293700000000  0.5022910000000 1.0
C      1  0.4964600000000  0.4686520000000  0.4690250000000 1.0
C      1  0.5301480000000  0.5655630000000  0.5114980000000 1.0
C      1  0.4895860000000  0.4721710000000  0.5215930000000 1.0
C      1  0.4600170000000  0.5674690000000  0.5604340000000 1.0
C      1  0.4697030000000  0.5124740000000  0.4642140000000 1.0
C      1  0.4414790000000  0.5056020000000  0.4206860000000 1.0
C      1  0.4098250000000  0.4747750000000  0.4939220000000 1.0
C      1  0.5110000000000  0.4602480000000  0.5817840000000 1.0
C      1  0.4585650000000  0.4659860000000  0.5478360000000 1.0
C      1  0.5568130000000  0.5854940000000  0.5431680000000 1.0
C      1  0.4139740000000  0.4672350000000  0.5495110000000 1.0
C      1  0.5325140000000  0.5041270000000  0.4126130000000 1.0
C      1  0.5296860000000  0.5805830000000  0.5575210000000 1.0
C      1  0.5829790000000  0.5014430000000  0.5249200000000 1.0
C      1  0.5265660000000  0.4796980000000  0.5975250000000 1.0
C      1  0.5387470000000  0.4349640000000  0.4247730000000 1.0
C      1  0.5463790000000  0.5056790000000  0.4689980000000 1.0
C      1  0.5739920000000  0.4538250000000  0.4784420000000 1.0
C      1  0.5854800000000  0.5546620000000  0.5069920000000 1.0
C      1  0.5733860000000  0.5449130000000  0.4312070000000 1.0
C      1  0.4931270000000  0.4070500000000  0.4667770000000 1.0
C      1  0.4563060000000  0.4654690000000  0.4857820000000 1.0
C      1  0.5617350000000  0.5645900000000  0.4450090000000 1.0
C      1  0.5200430000000  0.4428870000000  0.4909850000000 1.0
C      1  0.4352400000000  0.5330190000000  0.4284200000000 1.0
C      1  0.5864430000000  0.5319390000000  0.4541560000000 1.0
C      1  0.4674650000000  0.5043320000000  0.4093940000000 1.0
C      1  0.5163300000000  0.4061430000000  0.5348230000000 1.0
C      1  0.4968480000000  0.4084610000000  0.5139100000000 1.0
C      1  0.4553220000000  0.5242830000000  0.4858990000000 1.0
C      1  0.4193910000000  0.5162470000000  0.5484150000000 1.0
C      1  0.4983470000000  0.4336050000000  0.4277690000000 1.0
C      1  0.4280940000000  0.4319100000000  0.5327480000000 1.0
C      1  0.5066710000000  0.5889890000000  0.4835730000000 1.0
C      1  0.4281540000000  0.5188830000000  0.4750750000000 1.0
C      1  0.4095600000000  0.5502060000000  0.5120300000000 1.0
C      1  0.4603400000000  0.5897600000000  0.5193900000000 1.0
C      1  0.4754970000000  0.4163850000000  0.5557900000000 1.0
C      1  0.4588860000000  0.5718150000000  0.4970800000000 1.0
C      1  0.4851950000000  0.6038560000000  0.4681080000000 1.0
END
