TITL C-4164232-771-341 -0.949781820180067 125000 -16557.3090337439 0 0 110 (C1) n - 1
REM
REM in /home/nfs/bkarasulu/CARBON/AIRSS/Generating-Clusters/ReaxFF-fromJPCA2015/Units_Real/with-SteepDescent/Only-C1/SD-CG/Try1-3A/FIRE-CG
REM
REM
REM
REM
REM
REM ./C.cell (11c1c37f851c82e70ff6c80c92926a4b)
REM
REM compiler GCC version 9.2.1 20190827 (Red Hat 9.2.1-1)
REM options -cpp -mtune=generic -march=x86-64 -g -O0 -fpre-include=/usr/include/finclude/math-vector-fortran.h
REM seed 1783523593 1706484126 148988829 -814697297 -1989054114 -1040460122 529323608 1202955814 2057737441 1550918479 384773935 419944472 79060974 382159373 -934712778 -134325935 -1533899607 -1770168810 -30304383 -1620954369 342200105 173949607 1474052848 -751081484 -824533615 1208177736 -2101692658 1684809500 -386182990 624441633 -304159131 686808582 -979109129
REM
CELL 1.54180   50.00000   50.00000   50.00000   90.00000   90.00000   90.00000
LATT -1
SFAC C  
C      1  0.4968330000000  0.4748700000000  0.5086990000000 1.0
C      1  0.4376240000000  0.4361680000000  0.4612070000000 1.0
C      1  0.4546320000000  0.5166000000000  0.4221200000000 1.0
C      1  0.4675580000000  0.4786170000000  0.5784980000000 1.0
C      1  0.4572710000000  0.4211160000000  0.5081010000000 1.0
C      1  0.4784550000000  0.5549460000000  0.5816910000000 1.0
C      1  0.5707800000000  0.5193520000000  0.4440290000000 1.0
C      1  0.5705030000000  0.5454840000000  0.4579310000000 1.0
C      1  0.5508890000000  0.5660690000000  0.4500780000000 1.0
C      1  0.4780790000000  0.4048570000000  0.5050510000000 1.0
C      1  0.5152310000000  0.5847820000000  0.5222890000000 1.0
C      1  0.5736970000000  0.5360470000000  0.5349770000000 1.0
C      1  0.5414050000000  0.5713440000000  0.5214220000000 1.0
C      1  0.4631870000000  0.4891390000000  0.4283300000000 1.0
C      1  0.5449730000000  0.4638390000000  0.4366250000000 1.0
C      1  0.4661170000000  0.4302120000000  0.5353480000000 1.0
C      1  0.4510410000000  0.4998130000000  0.5372290000000 1.0
C      1  0.4240410000000  0.4916160000000  0.4525290000000 1.0
C      1  0.4503760000000  0.5764410000000  0.5296640000000 1.0
C      1  0.5389310000000  0.5809580000000  0.4720080000000 1.0
C      1  0.5802440000000  0.4930150000000  0.4549000000000 1.0
C      1  0.5669760000000  0.4664820000000  0.4555640000000 1.0
C      1  0.5414380000000  0.4577520000000  0.5707730000000 1.0
C      1  0.4985310000000  0.4640070000000  0.4166050000000 1.0
C      1  0.6008600000000  0.4931180000000  0.4755220000000 1.0
C      1  0.5118650000000  0.4578400000000  0.4903140000000 1.0
C      1  0.4349850000000  0.4322840000000  0.4897110000000 1.0
C      1  0.5031420000000  0.3921920000000  0.5095940000000 1.0
C      1  0.5535170000000  0.5711030000000  0.4949670000000 1.0
C      1  0.4280810000000  0.4570510000000  0.5232670000000 1.0
C      1  0.4902800000000  0.4338650000000  0.5519940000000 1.0
C      1  0.4027240000000  0.4804360000000  0.4993660000000 1.0
C      1  0.5353530000000  0.4920370000000  0.4352570000000 1.0
C      1  0.5090800000000  0.5862190000000  0.4718920000000 1.0
C      1  0.4387870000000  0.5357990000000  0.4656590000000 1.0
C      1  0.4621050000000  0.5536790000000  0.4610460000000 1.0
C      1  0.4148110000000  0.4504850000000  0.5022690000000 1.0
C      1  0.5145480000000  0.4698530000000  0.5773820000000 1.0
C      1  0.5226270000000  0.4141920000000  0.4620650000000 1.0
C      1  0.4731390000000  0.5926880000000  0.5379230000000 1.0
C      1  0.4290960000000  0.4993100000000  0.5575110000000 1.0
C      1  0.5921140000000  0.4811100000000  0.5144570000000 1.0
C      1  0.4111700000000  0.5309000000000  0.5077590000000 1.0
C      1  0.4518320000000  0.5492650000000  0.5720230000000 1.0
C      1  0.4907210000000  0.4549720000000  0.5717940000000 1.0
C      1  0.4969680000000  0.5869230000000  0.4992410000000 1.0
C      1  0.5109560000000  0.4990010000000  0.5822810000000 1.0
C      1  0.4700300000000  0.4611740000000  0.4210710000000 1.0
C      1  0.4357340000000  0.4828560000000  0.5800870000000 1.0
C      1  0.4494070000000  0.4537790000000  0.5410220000000 1.0
C      1  0.4865460000000  0.5075520000000  0.4703270000000 1.0
C      1  0.5150610000000  0.4901100000000  0.5244710000000 1.0
C      1  0.4572770000000  0.5117000000000  0.5099360000000 1.0
C      1  0.5494260000000  0.5161980000000  0.4249110000000 1.0
C      1  0.5359450000000  0.4749410000000  0.4874860000000 1.0
C      1  0.5016590000000  0.5238230000000  0.4127700000000 1.0
C      1  0.4933840000000  0.5789660000000  0.4487630000000 1.0
C      1  0.5326900000000  0.5173650000000  0.5749860000000 1.0
C      1  0.5646810000000  0.4432140000000  0.5063130000000 1.0
C      1  0.5392910000000  0.4281150000000  0.5658130000000 1.0
C      1  0.5733010000000  0.5505510000000  0.4866130000000 1.0
C      1  0.5990560000000  0.4668600000000  0.4897490000000 1.0
C      1  0.4683210000000  0.5290420000000  0.5890070000000 1.0
C      1  0.5198670000000  0.4495750000000  0.4294260000000 1.0
C      1  0.4125050000000  0.4876770000000  0.4753790000000 1.0
C      1  0.4573470000000  0.4439690000000  0.4411750000000 1.0
C      1  0.4742440000000  0.4865790000000  0.4942090000000 1.0
C      1  0.5585210000000  0.5002910000000  0.5702290000000 1.0
C      1  0.4859560000000  0.4944600000000  0.4441360000000 1.0
C      1  0.4697150000000  0.5872090000000  0.5091680000000 1.0
C      1  0.4450940000000  0.4646470000000  0.4571830000000 1.0
C      1  0.4695310000000  0.4660870000000  0.4735580000000 1.0
C      1  0.5658590000000  0.4692660000000  0.5262100000000 1.0
C      1  0.5265840000000  0.4070020000000  0.5240050000000 1.0
C      1  0.4813180000000  0.5298570000000  0.5179810000000 1.0
C      1  0.5027260000000  0.5581660000000  0.5620870000000 1.0
C      1  0.4858390000000  0.5392020000000  0.4692530000000 1.0
C      1  0.5837730000000  0.5329800000000  0.5068480000000 1.0
C      1  0.4742200000000  0.5624300000000  0.4351730000000 1.0
C      1  0.4661340000000  0.4780900000000  0.5480060000000 1.0
C      1  0.5059180000000  0.4937590000000  0.4226140000000 1.0
C      1  0.5125240000000  0.5064830000000  0.4819420000000 1.0
C      1  0.5703010000000  0.5137220000000  0.5503740000000 1.0
C      1  0.5356100000000  0.4974610000000  0.4693590000000 1.0
C      1  0.4361170000000  0.5270120000000  0.4932860000000 1.0
C      1  0.4765650000000  0.5359980000000  0.4188550000000 1.0
C      1  0.5132480000000  0.5455720000000  0.4633230000000 1.0
C      1  0.4827730000000  0.5040840000000  0.5860830000000 1.0
C      1  0.4925960000000  0.4510270000000  0.4700420000000 1.0
C      1  0.5072330000000  0.5188760000000  0.5262440000000 1.0
C      1  0.5278320000000  0.5350860000000  0.4177840000000 1.0
C      1  0.5964960000000  0.5072840000000  0.5017460000000 1.0
C      1  0.5756370000000  0.4510360000000  0.4806000000000 1.0
C      1  0.4342270000000  0.5172490000000  0.4433060000000 1.0
C      1  0.5490490000000  0.5524550000000  0.5424870000000 1.0
C      1  0.5166240000000  0.4191540000000  0.5488790000000 1.0
C      1  0.4997310000000  0.5839780000000  0.5463320000000 1.0
C      1  0.5268110000000  0.4256110000000  0.4855300000000 1.0
C      1  0.5050760000000  0.4327690000000  0.4497610000000 1.0
C      1  0.5258450000000  0.5566990000000  0.4379360000000 1.0
C      1  0.4047860000000  0.5130720000000  0.5446610000000 1.0
C      1  0.5311060000000  0.5435530000000  0.5635310000000 1.0
C      1  0.4397110000000  0.5538690000000  0.5455080000000 1.0
C      1  0.3997610000000  0.5048150000000  0.5169530000000 1.0
C      1  0.5299460000000  0.5263620000000  0.4766200000000 1.0
C      1  0.5465660000000  0.4207080000000  0.5071750000000 1.0
C      1  0.5616220000000  0.4738770000000  0.5575830000000 1.0
C      1  0.4906260000000  0.5343390000000  0.5444710000000 1.0
C      1  0.5415960000000  0.4833140000000  0.5144090000000 1.0
C      1  0.4154560000000  0.5391900000000  0.5362850000000 1.0
END
