TITL C-4164238-4211-224 36.8008725253833 125000 -16507.8018529715 0 0 113 (C1) n - 1
REM
REM in /home/nfs/bkarasulu/CARBON/AIRSS/Generating-Clusters/ReaxFF-fromJPCA2015/Units_Real/with-SteepDescent/Only-C1/SD-CG/Try1-3A/FIRE-CG
REM
REM
REM
REM
REM
REM ./C.cell (11c1c37f851c82e70ff6c80c92926a4b)
REM
REM compiler GCC version 9.2.1 20190827 (Red Hat 9.2.1-1)
REM options -cpp -mtune=generic -march=x86-64 -g -O0 -fpre-include=/usr/include/finclude/math-vector-fortran.h
REM seed 1169565866 1105300627 361429123 -1653527886 -610424700 -2141531252 -1584110230 -353220377 276860061 477848395 1271892867 -1080295527 -1384735741 1043333284 216581789 1272120641 958978615 -368642208 -2048856021 660688839 -1212279766 1148219719 1224226385 -470259460 -572315888 309028668 -1462002522 -1483317153 1313614260 -144428814 -1318629289 -536770197 -1493849249
REM
CELL 1.54180   50.00000   50.00000   50.00000   90.00000   90.00000   90.00000
LATT -1
SFAC C  
C      1  0.4750610000000  0.4682790000000  0.4564060000000 1.0
C      1  0.5622650000000  0.4907890000000  0.4040480000000 1.0
C      1  0.5120350000000  0.4982860000000  0.4567870000000 1.0
C      1  0.4377300000000  0.4463210000000  0.5648830000000 1.0
C      1  0.4310890000000  0.4491730000000  0.4496420000000 1.0
C      1  0.5560380000000  0.4723350000000  0.4715510000000 1.0
C      1  0.5109860000000  0.4331150000000  0.5529330000000 1.0
C      1  0.5645420000000  0.5192570000000  0.4724380000000 1.0
C      1  0.4483560000000  0.4279990000000  0.4390590000000 1.0
C      1  0.5099870000000  0.4495450000000  0.4831500000000 1.0
C      1  0.5962190000000  0.4791990000000  0.4961670000000 1.0
C      1  0.4760890000000  0.4362240000000  0.4429200000000 1.0
C      1  0.4542980000000  0.5574700000000  0.5410890000000 1.0
C      1  0.4358290000000  0.5186750000000  0.4619690000000 1.0
C      1  0.5051680000000  0.4705780000000  0.4599140000000 1.0
C      1  0.5765200000000  0.4836330000000  0.5392690000000 1.0
C      1  0.4362390000000  0.4762170000000  0.4383290000000 1.0
C      1  0.4520730000000  0.5179980000000  0.5976820000000 1.0
C      1  0.4623000000000  0.4084250000000  0.4823090000000 1.0
C      1  0.5210740000000  0.5914880000000  0.5116560000000 1.0
C      1  0.5464880000000  0.4283370000000  0.5102860000000 1.0
C      1  0.4361280000000  0.5746130000000  0.5164800000000 1.0
C      1  0.4837820000000  0.5038940000000  0.5231850000000 1.0
C      1  0.4190410000000  0.4941720000000  0.5145680000000 1.0
C      1  0.4774470000000  0.5195010000000  0.4832740000000 1.0
C      1  0.5534280000000  0.4427470000000  0.5502380000000 1.0
C      1  0.4574460000000  0.5482640000000  0.4328730000000 1.0
C      1  0.4836670000000  0.4238740000000  0.5463080000000 1.0
C      1  0.4747450000000  0.5805410000000  0.4992540000000 1.0
C      1  0.4101110000000  0.4875080000000  0.5403660000000 1.0
C      1  0.4303990000000  0.4790070000000  0.4854110000000 1.0
C      1  0.5211380000000  0.5010350000000  0.4998340000000 1.0
C      1  0.5361660000000  0.4247980000000  0.5384060000000 1.0
C      1  0.5125230000000  0.4563640000000  0.5701830000000 1.0
C      1  0.5635400000000  0.5273760000000  0.5620650000000 1.0
C      1  0.4670990000000  0.5695390000000  0.4494080000000 1.0
C      1  0.5006860000000  0.5367570000000  0.4944760000000 1.0
C      1  0.4236810000000  0.4498410000000  0.4785100000000 1.0
C      1  0.4512330000000  0.5983920000000  0.5158050000000 1.0
C      1  0.4680120000000  0.4800130000000  0.5566090000000 1.0
C      1  0.5069700000000  0.4562890000000  0.4148180000000 1.0
C      1  0.5427070000000  0.5511060000000  0.5270970000000 1.0
C      1  0.4366310000000  0.5338750000000  0.5500000000000 1.0
C      1  0.4200510000000  0.5155270000000  0.5332070000000 1.0
C      1  0.5618870000000  0.4661690000000  0.5621050000000 1.0
C      1  0.5017420000000  0.4303460000000  0.4252650000000 1.0
C      1  0.5427230000000  0.5847440000000  0.4951760000000 1.0
C      1  0.4720350000000  0.5072140000000  0.5470580000000 1.0
C      1  0.4588750000000  0.4642320000000  0.5332120000000 1.0
C      1  0.5454750000000  0.4850920000000  0.4974970000000 1.0
C      1  0.4585810000000  0.5735460000000  0.4764470000000 1.0
C      1  0.4346920000000  0.5649080000000  0.4878120000000 1.0
C      1  0.4899380000000  0.4940880000000  0.4148900000000 1.0
C      1  0.4604040000000  0.4742200000000  0.4816470000000 1.0
C      1  0.4229120000000  0.5455900000000  0.4679320000000 1.0
C      1  0.5831330000000  0.5149200000000  0.5444440000000 1.0
C      1  0.4993710000000  0.5215730000000  0.4152980000000 1.0
C      1  0.4723820000000  0.5553490000000  0.5179100000000 1.0
C      1  0.5530330000000  0.4934510000000  0.5242530000000 1.0
C      1  0.6009720000000  0.5001010000000  0.4780570000000 1.0
C      1  0.5273120000000  0.5270160000000  0.4884870000000 1.0
C      1  0.5709830000000  0.4419850000000  0.5019150000000 1.0
C      1  0.5426600000000  0.5227160000000  0.5400000000000 1.0
C      1  0.4813650000000  0.5552050000000  0.5586440000000 1.0
C      1  0.5087290000000  0.5654260000000  0.5596400000000 1.0
C      1  0.4593290000000  0.5181820000000  0.4422320000000 1.0
C      1  0.5257140000000  0.4292720000000  0.4393130000000 1.0
C      1  0.4938890000000  0.5676330000000  0.4421300000000 1.0
C      1  0.4645750000000  0.4091670000000  0.4552530000000 1.0
C      1  0.5269640000000  0.5476710000000  0.5739040000000 1.0
C      1  0.5825420000000  0.5051020000000  0.4545190000000 1.0
C      1  0.4425760000000  0.5252870000000  0.5759300000000 1.0
C      1  0.4884280000000  0.4725210000000  0.5768890000000 1.0
C      1  0.5871510000000  0.4634630000000  0.5154960000000 1.0
C      1  0.4978120000000  0.4946210000000  0.5928360000000 1.0
C      1  0.5368240000000  0.5437260000000  0.4417370000000 1.0
C      1  0.5117940000000  0.4959220000000  0.5271190000000 1.0
C      1  0.5128660000000  0.4775260000000  0.4214160000000 1.0
C      1  0.4174020000000  0.4599660000000  0.5500780000000 1.0
C      1  0.4741740000000  0.4722240000000  0.5075650000000 1.0
C      1  0.4917430000000  0.4470940000000  0.5044360000000 1.0
C      1  0.4884620000000  0.5157090000000  0.4564980000000 1.0
C      1  0.4528840000000  0.4152410000000  0.5066040000000 1.0
C      1  0.5844220000000  0.5313270000000  0.5198760000000 1.0
C      1  0.4880070000000  0.5323240000000  0.5201890000000 1.0
C      1  0.5359630000000  0.5205080000000  0.4618600000000 1.0
C      1  0.5012010000000  0.5906240000000  0.4901810000000 1.0
C      1  0.5171760000000  0.5116050000000  0.5514630000000 1.0
C      1  0.4606040000000  0.4335530000000  0.5606090000000 1.0
C      1  0.5427360000000  0.5266770000000  0.5830500000000 1.0
C      1  0.4318150000000  0.4537600000000  0.5250170000000 1.0
C      1  0.4873740000000  0.5269860000000  0.5639460000000 1.0
C      1  0.5643850000000  0.4839480000000  0.4456240000000 1.0
C      1  0.5257200000000  0.4997330000000  0.5818190000000 1.0
C      1  0.5653630000000  0.4448750000000  0.4729300000000 1.0
C      1  0.5454180000000  0.4856770000000  0.4216340000000 1.0
C      1  0.5527130000000  0.5647720000000  0.4550290000000 1.0
C      1  0.4633520000000  0.4882210000000  0.4329210000000 1.0
C      1  0.5318810000000  0.5829420000000  0.4504270000000 1.0
C      1  0.4308590000000  0.5532360000000  0.4415220000000 1.0
C      1  0.4797620000000  0.5174440000000  0.5938310000000 1.0
C      1  0.5625630000000  0.5687450000000  0.4848110000000 1.0
C      1  0.5441710000000  0.4263120000000  0.4600780000000 1.0
C      1  0.5367220000000  0.4720430000000  0.5757010000000 1.0
C      1  0.5666390000000  0.5538530000000  0.5110740000000 1.0
C      1  0.5243490000000  0.5716190000000  0.5341630000000 1.0
C      1  0.4236610000000  0.4926500000000  0.4586450000000 1.0
C      1  0.5291080000000  0.4273660000000  0.4859160000000 1.0
C      1  0.5108070000000  0.5460500000000  0.4281810000000 1.0
C      1  0.4802170000000  0.4225120000000  0.5168760000000 1.0
C      1  0.5064210000000  0.5879520000000  0.4612090000000 1.0
C      1  0.5853450000000  0.5212020000000  0.4925400000000 1.0
C      1  0.4298970000000  0.4348940000000  0.5023720000000 1.0
END
