TITL C-4164233-775-245 36.9427103443973 125000 -20970.0755309475 0 0 143 (C1) n - 1
REM
REM in /home/nfs/bkarasulu/CARBON/AIRSS/Generating-Clusters/ReaxFF-fromJPCA2015/Units_Real/with-SteepDescent/Only-C1/SD-CG/Try1-3A/FIRE-CG
REM
REM
REM
REM
REM
REM ./C.cell (11c1c37f851c82e70ff6c80c92926a4b)
REM
REM compiler GCC version 9.2.1 20190827 (Red Hat 9.2.1-1)
REM options -cpp -mtune=generic -march=x86-64 -g -O0 -fpre-include=/usr/include/finclude/math-vector-fortran.h
REM seed 1897920911 -246781165 746471484 1653411328 40937638 1600554499 428672429 -1678603715 582691280 147069828 -790091890 -1783660834 1414460411 -1930958515 10688718 1134724630 -1991945000 564946830 2005447185 836346443 156932323 -1884188431 -1776273537 -815710325 -118730812 -1892054633 1837083429 -1862801779 1646769029 -320150566 960382623 974323636 -2021281078
REM
CELL 1.54180   50.00000   50.00000   50.00000   90.00000   90.00000   90.00000
LATT -1
SFAC C  
C      1  0.4635330000000  0.5710300000000  0.4459170000000 1.0
C      1  0.5288160000000  0.5907010000000  0.5518750000000 1.0
C      1  0.4546640000000  0.4350980000000  0.5078930000000 1.0
C      1  0.4125330000000  0.5032660000000  0.4990130000000 1.0
C      1  0.4731250000000  0.5139720000000  0.4023420000000 1.0
C      1  0.5887300000000  0.5435820000000  0.4972790000000 1.0
C      1  0.5523140000000  0.4353770000000  0.4391500000000 1.0
C      1  0.5147890000000  0.3932650000000  0.4873890000000 1.0
C      1  0.5839120000000  0.5507480000000  0.5268980000000 1.0
C      1  0.5248720000000  0.5149480000000  0.4037150000000 1.0
C      1  0.5630010000000  0.4575610000000  0.4543460000000 1.0
C      1  0.4972500000000  0.5978310000000  0.4753970000000 1.0
C      1  0.4558640000000  0.5057280000000  0.4849370000000 1.0
C      1  0.5205370000000  0.4835650000000  0.5953090000000 1.0
C      1  0.4413160000000  0.5545270000000  0.4484610000000 1.0
C      1  0.5057650000000  0.5578110000000  0.5379830000000 1.0
C      1  0.4297500000000  0.5176670000000  0.4332150000000 1.0
C      1  0.5794050000000  0.5772860000000  0.5393030000000 1.0
C      1  0.4896050000000  0.4565670000000  0.5459530000000 1.0
C      1  0.4458540000000  0.4937970000000  0.4387260000000 1.0
C      1  0.4564410000000  0.4787100000000  0.5836280000000 1.0
C      1  0.4872120000000  0.4492800000000  0.4165910000000 1.0
C      1  0.5535950000000  0.5823840000000  0.5072110000000 1.0
C      1  0.5088020000000  0.4097330000000  0.4468780000000 1.0
C      1  0.5465130000000  0.5936530000000  0.4620090000000 1.0
C      1  0.4013060000000  0.5492130000000  0.5032810000000 1.0
C      1  0.5320380000000  0.4698910000000  0.5229400000000 1.0
C      1  0.5783320000000  0.4564090000000  0.5126720000000 1.0
C      1  0.5218900000000  0.4373180000000  0.5852030000000 1.0
C      1  0.4744720000000  0.5017510000000  0.4471770000000 1.0
C      1  0.5131420000000  0.4164180000000  0.5078180000000 1.0
C      1  0.4996080000000  0.6077940000000  0.5009190000000 1.0
C      1  0.5433990000000  0.4647060000000  0.4713170000000 1.0
C      1  0.4210950000000  0.4351640000000  0.4785250000000 1.0
C      1  0.5442370000000  0.4941920000000  0.4074430000000 1.0
C      1  0.4787950000000  0.4276980000000  0.4917810000000 1.0
C      1  0.4922190000000  0.4415020000000  0.5728660000000 1.0
C      1  0.5321390000000  0.5525770000000  0.5374290000000 1.0
C      1  0.4646380000000  0.5508210000000  0.5863660000000 1.0
C      1  0.5730000000000  0.4820520000000  0.5566750000000 1.0
C      1  0.5851270000000  0.4600150000000  0.5414810000000 1.0
C      1  0.5298020000000  0.4474440000000  0.4262590000000 1.0
C      1  0.4245270000000  0.5683320000000  0.5511550000000 1.0
C      1  0.4925360000000  0.4715590000000  0.4998290000000 1.0
C      1  0.4778320000000  0.4995780000000  0.5409150000000 1.0
C      1  0.5181310000000  0.4683620000000  0.4583710000000 1.0
C      1  0.5665030000000  0.5833330000000  0.4803030000000 1.0
C      1  0.5136930000000  0.5799030000000  0.4284850000000 1.0
C      1  0.4149090000000  0.5470240000000  0.5326170000000 1.0
C      1  0.4992950000000  0.5781230000000  0.5560530000000 1.0
C      1  0.4500830000000  0.4769940000000  0.4817350000000 1.0
C      1  0.4730580000000  0.5800620000000  0.4736990000000 1.0
C      1  0.4861300000000  0.5143310000000  0.5932700000000 1.0
C      1  0.5659030000000  0.5025540000000  0.5350520000000 1.0
C      1  0.5386860000000  0.4268550000000  0.4966380000000 1.0
C      1  0.5412020000000  0.4046200000000  0.4782230000000 1.0
C      1  0.4203050000000  0.4450750000000  0.4503020000000 1.0
C      1  0.5468040000000  0.4496300000000  0.5887650000000 1.0
C      1  0.4999940000000  0.5028770000000  0.4875120000000 1.0
C      1  0.4375620000000  0.5865080000000  0.5077210000000 1.0
C      1  0.4672200000000  0.4010440000000  0.4903570000000 1.0
C      1  0.5232380000000  0.5868460000000  0.4763040000000 1.0
C      1  0.4313800000000  0.4519830000000  0.5459360000000 1.0
C      1  0.4984960000000  0.4586920000000  0.4758760000000 1.0
C      1  0.4300190000000  0.4691060000000  0.4355080000000 1.0
C      1  0.4912590000000  0.5641080000000  0.4329710000000 1.0
C      1  0.4466650000000  0.5845030000000  0.5381240000000 1.0
C      1  0.4736300000000  0.5921680000000  0.5432710000000 1.0
C      1  0.5460610000000  0.4298120000000  0.5457740000000 1.0
C      1  0.5716270000000  0.5303440000000  0.5444350000000 1.0
C      1  0.5512530000000  0.5586650000000  0.4266350000000 1.0
C      1  0.5075210000000  0.5346240000000  0.5881710000000 1.0
C      1  0.5037710000000  0.5104190000000  0.5363900000000 1.0
C      1  0.5739200000000  0.5494570000000  0.4443320000000 1.0
C      1  0.4777980000000  0.4642840000000  0.5915300000000 1.0
C      1  0.5876150000000  0.4948070000000  0.4832960000000 1.0
C      1  0.4199520000000  0.5373140000000  0.4546480000000 1.0
C      1  0.5261960000000  0.5388810000000  0.4645500000000 1.0
C      1  0.5699350000000  0.4987140000000  0.4217410000000 1.0
C      1  0.5215640000000  0.4750820000000  0.5676290000000 1.0
C      1  0.4772360000000  0.6069460000000  0.5179430000000 1.0
C      1  0.5285840000000  0.5404650000000  0.4175800000000 1.0
C      1  0.4468120000000  0.5244790000000  0.4081900000000 1.0
C      1  0.4979230000000  0.5015680000000  0.3996830000000 1.0
C      1  0.5404030000000  0.5570730000000  0.5091000000000 1.0
C      1  0.4937520000000  0.3979390000000  0.4686740000000 1.0
C      1  0.4069980000000  0.5320470000000  0.4809750000000 1.0
C      1  0.4741780000000  0.4182880000000  0.5365500000000 1.0
C      1  0.4413020000000  0.4424920000000  0.4305920000000 1.0
C      1  0.5794420000000  0.5580940000000  0.4739530000000 1.0
C      1  0.4629300000000  0.4661750000000  0.5068140000000 1.0
C      1  0.5431770000000  0.5164010000000  0.4738270000000 1.0
C      1  0.4513090000000  0.5153710000000  0.5528420000000 1.0
C      1  0.4606140000000  0.5969410000000  0.4942590000000 1.0
C      1  0.5971190000000  0.5158620000000  0.4985980000000 1.0
C      1  0.5067850000000  0.4302370000000  0.4252730000000 1.0
C      1  0.4404110000000  0.4167870000000  0.4902060000000 1.0
C      1  0.5354200000000  0.5268150000000  0.5817410000000 1.0
C      1  0.4756820000000  0.3937610000000  0.5475230000000 1.0
C      1  0.5607600000000  0.4784580000000  0.5827100000000 1.0
C      1  0.4197400000000  0.5681080000000  0.4969160000000 1.0
C      1  0.4930130000000  0.5585520000000  0.5811710000000 1.0
C      1  0.5092210000000  0.5406920000000  0.4399490000000 1.0
C      1  0.4343430000000  0.4740250000000  0.5668130000000 1.0
C      1  0.4723830000000  0.3932500000000  0.5200060000000 1.0
C      1  0.4597110000000  0.5210640000000  0.5826860000000 1.0
C      1  0.5247530000000  0.5590110000000  0.4845960000000 1.0
C      1  0.4106610000000  0.4907310000000  0.5281840000000 1.0
C      1  0.4482610000000  0.4305150000000  0.5361740000000 1.0
C      1  0.5258490000000  0.4115760000000  0.5355240000000 1.0
C      1  0.4776650000000  0.5471440000000  0.4786720000000 1.0
C      1  0.5006990000000  0.4727460000000  0.4048230000000 1.0
C      1  0.5412820000000  0.5855010000000  0.4342210000000 1.0
C      1  0.5318020000000  0.5009180000000  0.5251250000000 1.0
C      1  0.4669540000000  0.4726070000000  0.5371950000000 1.0
C      1  0.4998050000000  0.4944860000000  0.4586560000000 1.0
C      1  0.4659450000000  0.5240290000000  0.4644860000000 1.0
C      1  0.5524110000000  0.5927880000000  0.5368860000000 1.0
C      1  0.4879800000000  0.5314340000000  0.4989390000000 1.0
C      1  0.5284330000000  0.5062510000000  0.4964820000000 1.0
C      1  0.4694620000000  0.4421120000000  0.4389180000000 1.0
C      1  0.5688920000000  0.5044030000000  0.4654770000000 1.0
C      1  0.4116630000000  0.4619710000000  0.5263080000000 1.0
C      1  0.4403550000000  0.5325750000000  0.5298000000000 1.0
C      1  0.5286970000000  0.4696610000000  0.4083440000000 1.0
C      1  0.5058450000000  0.4612120000000  0.5230010000000 1.0
C      1  0.5854260000000  0.4927100000000  0.5126420000000 1.0
C      1  0.4093430000000  0.4548720000000  0.4973320000000 1.0
C      1  0.5444230000000  0.5010150000000  0.5931050000000 1.0
C      1  0.4755970000000  0.4171780000000  0.5643310000000 1.0
C      1  0.5486710000000  0.4555630000000  0.4976470000000 1.0
C      1  0.5480580000000  0.5393280000000  0.5588260000000 1.0
C      1  0.5759990000000  0.5251240000000  0.4306270000000 1.0
C      1  0.4206850000000  0.4777700000000  0.4839750000000 1.0
C      1  0.4917330000000  0.4872300000000  0.6029230000000 1.0
C      1  0.5381650000000  0.4125460000000  0.4503960000000 1.0
C      1  0.5725880000000  0.4355590000000  0.5327210000000 1.0
C      1  0.4388280000000  0.5161990000000  0.5058010000000 1.0
C      1  0.5753100000000  0.4827560000000  0.4464950000000 1.0
C      1  0.4257860000000  0.4977860000000  0.5515390000000 1.0
C      1  0.4746880000000  0.4463660000000  0.4679820000000 1.0
C      1  0.5361900000000  0.4587050000000  0.5496270000000 1.0
C      1  0.4921360000000  0.5361060000000  0.5279540000000 1.0
END
