TITL C-4164232-771-82 5.92322014279344 125000 -15255.9541266401 0 0 102 (C1) n - 1
REM
REM in /home/nfs/bkarasulu/CARBON/AIRSS/Generating-Clusters/ReaxFF-fromJPCA2015/Units_Real/with-SteepDescent/Only-C1/SD-CG/Try1-3A/FIRE-CG
REM
REM
REM
REM
REM
REM ./C.cell (11c1c37f851c82e70ff6c80c92926a4b)
REM
REM compiler GCC version 9.2.1 20190827 (Red Hat 9.2.1-1)
REM options -cpp -mtune=generic -march=x86-64 -g -O0 -fpre-include=/usr/include/finclude/math-vector-fortran.h
REM seed 362143292 -1343945814 411641045 227404748 371832812 -428009740 1984642844 -876460307 1462034539 -1579716596 -1642443396 -2093026019 551332552 -1220764477 -768069208 896914435 -856252780 -687052158 356374524 1937725902 185058499 -1000116432 -293779208 -951973002 1245836773 2099358504 -377607003 126558450 -1910867266 971180614 1495416741 -957270569 -1559558286
REM
CELL 1.54180   50.00000   50.00000   50.00000   90.00000   90.00000   90.00000
LATT -1
SFAC C  
C      1  0.4524220000000  0.5279710000000  0.4487120000000 1.0
C      1  0.5524830000000  0.4677310000000  0.5302580000000 1.0
C      1  0.4608550000000  0.5692440000000  0.4504270000000 1.0
C      1  0.4805420000000  0.5839400000000  0.4661000000000 1.0
C      1  0.4879360000000  0.4016300000000  0.5025040000000 1.0
C      1  0.5440680000000  0.4931710000000  0.5375980000000 1.0
C      1  0.4688190000000  0.4503050000000  0.4489990000000 1.0
C      1  0.5542050000000  0.5004530000000  0.5632500000000 1.0
C      1  0.4372070000000  0.4620480000000  0.5387320000000 1.0
C      1  0.4172200000000  0.4926390000000  0.4769380000000 1.0
C      1  0.4890700000000  0.4435490000000  0.5614110000000 1.0
C      1  0.5405260000000  0.5131940000000  0.5177780000000 1.0
C      1  0.5322630000000  0.4244070000000  0.5446170000000 1.0
C      1  0.4836700000000  0.4707970000000  0.5670820000000 1.0
C      1  0.5076750000000  0.4409390000000  0.5361670000000 1.0
C      1  0.4806730000000  0.5895600000000  0.4955190000000 1.0
C      1  0.5011570000000  0.4426170000000  0.4874470000000 1.0
C      1  0.5289240000000  0.5779640000000  0.4695940000000 1.0
C      1  0.4282750000000  0.5633440000000  0.5075100000000 1.0
C      1  0.4760620000000  0.4660990000000  0.5179410000000 1.0
C      1  0.5050450000000  0.5430620000000  0.4983040000000 1.0
C      1  0.4538400000000  0.5701680000000  0.5542590000000 1.0
C      1  0.5517810000000  0.5597260000000  0.4688150000000 1.0
C      1  0.4393710000000  0.5517010000000  0.4602060000000 1.0
C      1  0.5831830000000  0.4786330000000  0.5025320000000 1.0
C      1  0.5576660000000  0.5607060000000  0.5227170000000 1.0
C      1  0.5475080000000  0.5498070000000  0.5623030000000 1.0
C      1  0.5513010000000  0.4377450000000  0.4833020000000 1.0
C      1  0.5499340000000  0.5428370000000  0.4447880000000 1.0
C      1  0.5089080000000  0.5822600000000  0.5402950000000 1.0
C      1  0.4709030000000  0.5014080000000  0.4233780000000 1.0
C      1  0.5638210000000  0.4293020000000  0.5082620000000 1.0
C      1  0.5216610000000  0.5020330000000  0.4670880000000 1.0
C      1  0.4743590000000  0.5564040000000  0.4271750000000 1.0
C      1  0.4725310000000  0.4906900000000  0.4759380000000 1.0
C      1  0.4256400000000  0.5458260000000  0.4856080000000 1.0
C      1  0.5241840000000  0.5108560000000  0.4123180000000 1.0
C      1  0.4829780000000  0.5517710000000  0.5322110000000 1.0
C      1  0.4613650000000  0.5098190000000  0.4958740000000 1.0
C      1  0.5508890000000  0.5014340000000  0.4200640000000 1.0
C      1  0.5223740000000  0.5379700000000  0.4308610000000 1.0
C      1  0.4799240000000  0.5292160000000  0.4608740000000 1.0
C      1  0.5420440000000  0.4763510000000  0.4265400000000 1.0
C      1  0.5616650000000  0.5203130000000  0.4983280000000 1.0
C      1  0.4495710000000  0.4137150000000  0.5156680000000 1.0
C      1  0.5349720000000  0.5672610000000  0.5418530000000 1.0
C      1  0.5402290000000  0.5240950000000  0.5747040000000 1.0
C      1  0.5632280000000  0.4543570000000  0.4621870000000 1.0
C      1  0.5826840000000  0.5049880000000  0.5157960000000 1.0
C      1  0.4192080000000  0.4769140000000  0.5217210000000 1.0
C      1  0.4789150000000  0.5339390000000  0.4889810000000 1.0
C      1  0.5127980000000  0.5139440000000  0.5817790000000 1.0
C      1  0.5430040000000  0.4526250000000  0.4398940000000 1.0
C      1  0.5009330000000  0.4861170000000  0.4794160000000 1.0
C      1  0.4625460000000  0.5294870000000  0.4215560000000 1.0
C      1  0.4945660000000  0.4433610000000  0.4433420000000 1.0
C      1  0.4688610000000  0.5293230000000  0.5448710000000 1.0
C      1  0.5057780000000  0.5800260000000  0.4515610000000 1.0
C      1  0.4318770000000  0.4773640000000  0.4565510000000 1.0
C      1  0.4547500000000  0.4361600000000  0.4707230000000 1.0
C      1  0.4680940000000  0.5063290000000  0.5289860000000 1.0
C      1  0.4978840000000  0.4974270000000  0.4120740000000 1.0
C      1  0.4420730000000  0.5774820000000  0.5277360000000 1.0
C      1  0.4286800000000  0.5240270000000  0.5423740000000 1.0
C      1  0.4878020000000  0.4408690000000  0.5139670000000 1.0
C      1  0.4956430000000  0.4839580000000  0.5081520000000 1.0
C      1  0.4284600000000  0.5152960000000  0.4938330000000 1.0
C      1  0.5184830000000  0.5699300000000  0.4958930000000 1.0
C      1  0.5055220000000  0.5332230000000  0.5967610000000 1.0
C      1  0.4448520000000  0.5415720000000  0.5574680000000 1.0
C      1  0.4612470000000  0.4817350000000  0.4493690000000 1.0
C      1  0.4633650000000  0.4150270000000  0.4896900000000 1.0
C      1  0.5266730000000  0.4619580000000  0.5211350000000 1.0
C      1  0.4686010000000  0.4251820000000  0.5515660000000 1.0
C      1  0.4632640000000  0.4778810000000  0.5428160000000 1.0
C      1  0.5193140000000  0.4329270000000  0.4459900000000 1.0
C      1  0.5394650000000  0.4154160000000  0.5173770000000 1.0
C      1  0.5388000000000  0.4463420000000  0.5620040000000 1.0
C      1  0.5025520000000  0.5612480000000  0.4295660000000 1.0
C      1  0.4676590000000  0.5701750000000  0.5136150000000 1.0
C      1  0.4749240000000  0.4055730000000  0.5289490000000 1.0
C      1  0.5355380000000  0.4728940000000  0.5706770000000 1.0
C      1  0.5602970000000  0.5505400000000  0.4954990000000 1.0
C      1  0.4304430000000  0.4528790000000  0.4729720000000 1.0
C      1  0.5051290000000  0.5904740000000  0.5120940000000 1.0
C      1  0.4188270000000  0.5070100000000  0.5223140000000 1.0
C      1  0.4148680000000  0.4685910000000  0.4937420000000 1.0
C      1  0.5751450000000  0.4548830000000  0.5182890000000 1.0
C      1  0.5074880000000  0.5218150000000  0.4534180000000 1.0
C      1  0.5121450000000  0.4194290000000  0.4720300000000 1.0
C      1  0.4959620000000  0.5049830000000  0.5269700000000 1.0
C      1  0.5173670000000  0.4054670000000  0.4976270000000 1.0
C      1  0.4835760000000  0.5716570000000  0.5533280000000 1.0
C      1  0.5769050000000  0.5143790000000  0.5425000000000 1.0
C      1  0.5087020000000  0.4817990000000  0.5749840000000 1.0
C      1  0.5154760000000  0.5249900000000  0.5185110000000 1.0
C      1  0.5698720000000  0.5429410000000  0.5438550000000 1.0
C      1  0.5539340000000  0.5029410000000  0.4696810000000 1.0
C      1  0.4443250000000  0.4340500000000  0.5377170000000 1.0
C      1  0.5273340000000  0.4537920000000  0.4934780000000 1.0
C      1  0.5712020000000  0.4786770000000  0.4756410000000 1.0
C      1  0.5612630000000  0.5169190000000  0.4441290000000 1.0
END
