TITL C-4164243-3780-270 -1.71677984836627 125000 -6153.91151479986 0 0 42 (C1) n - 1
REM
REM in /home/nfs/bkarasulu/CARBON/AIRSS/Generating-Clusters/ReaxFF-fromJPCA2015/Units_Real/with-SteepDescent/Only-C1/SD-CG/Try1-3A/FIRE-CG
REM
REM
REM
REM
REM
REM ./C.cell (11c1c37f851c82e70ff6c80c92926a4b)
REM
REM compiler GCC version 9.2.1 20190827 (Red Hat 9.2.1-1)
REM options -cpp -mtune=generic -march=x86-64 -g -O0 -fpre-include=/usr/include/finclude/math-vector-fortran.h
REM seed 1901311357 1284500318 1882538439 -1927953640 -530546593 1414402898 -480998741 780809491 952771499 265485981 672014238 -2016279930 1994197346 1443609215 990104731 1135183917 -1532906681 -1690414383 -1850964099 -776539479 501202298 1493262613 -1021039874 1697071101 1721504347 -598588249 1909693921 644895219 -1999283695 -142895900 541605676 -1544355834 1622871041
REM
CELL 1.54180   50.00000   50.00000   50.00000   90.00000   90.00000   90.00000
LATT -1
SFAC C  
C      1  0.5439790000000  0.5288240000000  0.5416530000000 1.0
C      1  0.4769030000000  0.4953130000000  0.5119250000000 1.0
C      1  0.5307540000000  0.5431000000000  0.4925810000000 1.0
C      1  0.4913810000000  0.4579050000000  0.5286830000000 1.0
C      1  0.5012230000000  0.5513080000000  0.4945690000000 1.0
C      1  0.5757130000000  0.4897260000000  0.4854570000000 1.0
C      1  0.4858230000000  0.5448250000000  0.5184920000000 1.0
C      1  0.5629700000000  0.4815720000000  0.4582140000000 1.0
C      1  0.4856650000000  0.4874100000000  0.4568120000000 1.0
C      1  0.4680260000000  0.5225240000000  0.5091380000000 1.0
C      1  0.5632370000000  0.4799030000000  0.5091430000000 1.0
C      1  0.4275230000000  0.4327070000000  0.5049900000000 1.0
C      1  0.4947660000000  0.5477850000000  0.5460720000000 1.0
C      1  0.5176100000000  0.5235370000000  0.4434780000000 1.0
C      1  0.4829870000000  0.5454320000000  0.4724660000000 1.0
C      1  0.5364700000000  0.4669310000000  0.5090680000000 1.0
C      1  0.4638880000000  0.5024120000000  0.4454410000000 1.0
C      1  0.4274430000000  0.4682160000000  0.4888620000000 1.0
C      1  0.4793360000000  0.4542030000000  0.5029510000000 1.0
C      1  0.4438890000000  0.5118840000000  0.4661380000000 1.0
C      1  0.4482300000000  0.4816830000000  0.5534660000000 1.0
C      1  0.5238350000000  0.4838300000000  0.5543020000000 1.0
C      1  0.4926290000000  0.5402700000000  0.4443510000000 1.0
C      1  0.5197740000000  0.4632570000000  0.5327190000000 1.0
C      1  0.4773820000000  0.4842340000000  0.5405850000000 1.0
C      1  0.4471660000000  0.4485830000000  0.4995070000000 1.0
C      1  0.5204160000000  0.4725460000000  0.4858070000000 1.0
C      1  0.5683300000000  0.5092520000000  0.5057760000000 1.0
C      1  0.4597750000000  0.5308990000000  0.4821730000000 1.0
C      1  0.4265120000000  0.4797820000000  0.5630620000000 1.0
C      1  0.4992320000000  0.5253470000000  0.5652980000000 1.0
C      1  0.5765850000000  0.4736860000000  0.4374390000000 1.0
C      1  0.5214600000000  0.5422270000000  0.5559560000000 1.0
C      1  0.4721990000000  0.5257630000000  0.4279930000000 1.0
C      1  0.5476820000000  0.5020670000000  0.5544700000000 1.0
C      1  0.5488300000000  0.5298690000000  0.5125890000000 1.0
C      1  0.4321900000000  0.4897740000000  0.4779360000000 1.0
C      1  0.4887200000000  0.4779570000000  0.4874360000000 1.0
C      1  0.5282230000000  0.5337960000000  0.4668920000000 1.0
C      1  0.5311550000000  0.4788140000000  0.4609860000000 1.0
C      1  0.5114120000000  0.4937100000000  0.4457880000000 1.0
C      1  0.4986750000000  0.4971380000000  0.5593350000000 1.0
END
