TITL C-4164237-1827-55 3.40501939756132 125000 -18200.7263209224 0 0 121 (C1) n - 1
REM
REM in /home/nfs/bkarasulu/CARBON/AIRSS/Generating-Clusters/ReaxFF-fromJPCA2015/Units_Real/with-SteepDescent/Only-C1/SD-CG/Try1-3A/FIRE-CG
REM
REM
REM
REM
REM
REM ./C.cell (11c1c37f851c82e70ff6c80c92926a4b)
REM
REM compiler GCC version 9.2.1 20190827 (Red Hat 9.2.1-1)
REM options -cpp -mtune=generic -march=x86-64 -g -O0 -fpre-include=/usr/include/finclude/math-vector-fortran.h
REM seed 58324517 381124861 929554473 -607084858 -1326970372 150606262 259720479 -161848345 1323573486 1649917279 878896391 1198466358 1189182352 1370095618 250133644 -213126479 -1496597258 -1702200942 126317355 -513013891 822645718 60883864 -816427370 -1278292112 -1473985620 527731504 -1537565135 -1647715001 -630748762 287294432 -2045889627 1902319797 1216374216
REM
CELL 1.54180   50.00000   50.00000   50.00000   90.00000   90.00000   90.00000
LATT -1
SFAC C  
C      1  0.4495990000000  0.4845730000000  0.5828510000000 1.0
C      1  0.4906560000000  0.4441350000000  0.4227490000000 1.0
C      1  0.5634030000000  0.4603470000000  0.4512570000000 1.0
C      1  0.4629550000000  0.4832810000000  0.3962900000000 1.0
C      1  0.4971890000000  0.4117670000000  0.4827270000000 1.0
C      1  0.4947100000000  0.4917420000000  0.5521700000000 1.0
C      1  0.5798780000000  0.5487710000000  0.5323220000000 1.0
C      1  0.5144180000000  0.4361320000000  0.4378410000000 1.0
C      1  0.5533130000000  0.5288220000000  0.4595340000000 1.0
C      1  0.5911310000000  0.5311520000000  0.4835790000000 1.0
C      1  0.4455150000000  0.4152110000000  0.4948420000000 1.0
C      1  0.5268700000000  0.5050790000000  0.4145380000000 1.0
C      1  0.4188050000000  0.4922900000000  0.4565200000000 1.0
C      1  0.4814450000000  0.5273670000000  0.5198590000000 1.0
C      1  0.5623020000000  0.5738770000000  0.4909780000000 1.0
C      1  0.5092400000000  0.5889010000000  0.4919400000000 1.0
C      1  0.5046770000000  0.4620750000000  0.4955020000000 1.0
C      1  0.4275130000000  0.5485600000000  0.5072600000000 1.0
C      1  0.5427270000000  0.4643650000000  0.5271340000000 1.0
C      1  0.5653240000000  0.5659630000000  0.5164370000000 1.0
C      1  0.4373560000000  0.4355670000000  0.5292430000000 1.0
C      1  0.4805550000000  0.4765340000000  0.5009500000000 1.0
C      1  0.5745350000000  0.5522320000000  0.4688540000000 1.0
C      1  0.5024110000000  0.4134510000000  0.5387900000000 1.0
C      1  0.4385780000000  0.5508870000000  0.5350590000000 1.0
C      1  0.4771410000000  0.5756760000000  0.5153510000000 1.0
C      1  0.5483820000000  0.4242380000000  0.5307990000000 1.0
C      1  0.4438830000000  0.4603050000000  0.5660850000000 1.0
C      1  0.5424070000000  0.4242690000000  0.4792140000000 1.0
C      1  0.4429630000000  0.5639650000000  0.4578920000000 1.0
C      1  0.5407340000000  0.5755930000000  0.4344800000000 1.0
C      1  0.4825310000000  0.5349330000000  0.4152160000000 1.0
C      1  0.4380140000000  0.4852860000000  0.4357200000000 1.0
C      1  0.5309920000000  0.5382510000000  0.5419740000000 1.0
C      1  0.5934870000000  0.5294880000000  0.5122650000000 1.0
C      1  0.5212180000000  0.4632900000000  0.4493570000000 1.0
C      1  0.5119290000000  0.5917820000000  0.5519430000000 1.0
C      1  0.4807740000000  0.5569190000000  0.5599780000000 1.0
C      1  0.5859280000000  0.5022940000000  0.4798940000000 1.0
C      1  0.4794420000000  0.5440260000000  0.4733030000000 1.0
C      1  0.4723560000000  0.5185250000000  0.5893120000000 1.0
C      1  0.5755900000000  0.5335520000000  0.5580240000000 1.0
C      1  0.4387180000000  0.5366920000000  0.4471030000000 1.0
C      1  0.4901210000000  0.4904480000000  0.3905570000000 1.0
C      1  0.4102860000000  0.4559290000000  0.4976050000000 1.0
C      1  0.4136650000000  0.4739830000000  0.5203900000000 1.0
C      1  0.5008690000000  0.5146560000000  0.4023040000000 1.0
C      1  0.5220810000000  0.4613990000000  0.5945160000000 1.0
C      1  0.4917950000000  0.5176610000000  0.5664170000000 1.0
C      1  0.4673990000000  0.5603540000000  0.4933980000000 1.0
C      1  0.5653720000000  0.4470960000000  0.5251040000000 1.0
C      1  0.4227670000000  0.5191140000000  0.4656970000000 1.0
C      1  0.4875680000000  0.4985900000000  0.4454640000000 1.0
C      1  0.4992030000000  0.4590550000000  0.4686520000000 1.0
C      1  0.4462690000000  0.5016620000000  0.4127990000000 1.0
C      1  0.5300560000000  0.4896680000000  0.6010070000000 1.0
C      1  0.4786170000000  0.4818730000000  0.5299650000000 1.0
C      1  0.5935250000000  0.5024330000000  0.5237390000000 1.0
C      1  0.5302000000000  0.5379410000000  0.4678840000000 1.0
C      1  0.5362020000000  0.5829090000000  0.4935410000000 1.0
C      1  0.5057260000000  0.5783180000000  0.5216460000000 1.0
C      1  0.4755300000000  0.5152030000000  0.4668560000000 1.0
C      1  0.5399090000000  0.5293280000000  0.4161320000000 1.0
C      1  0.4350980000000  0.5272400000000  0.5528810000000 1.0
C      1  0.4655290000000  0.4980070000000  0.4881510000000 1.0
C      1  0.5084160000000  0.4082550000000  0.5095410000000 1.0
C      1  0.4812720000000  0.4559450000000  0.5389410000000 1.0
C      1  0.5262040000000  0.4248240000000  0.5509320000000 1.0
C      1  0.4410340000000  0.5658400000000  0.4873420000000 1.0
C      1  0.5365370000000  0.4136380000000  0.5057410000000 1.0
C      1  0.5108860000000  0.5749840000000  0.4402260000000 1.0
C      1  0.5020630000000  0.4808940000000  0.6042240000000 1.0
C      1  0.4670400000000  0.5804880000000  0.4586270000000 1.0
C      1  0.5081370000000  0.5466390000000  0.4763900000000 1.0
C      1  0.4966660000000  0.5549650000000  0.4277190000000 1.0
C      1  0.5543200000000  0.5339680000000  0.5785600000000 1.0
C      1  0.4670940000000  0.4115010000000  0.4774400000000 1.0
C      1  0.5365990000000  0.4934710000000  0.4889570000000 1.0
C      1  0.4755880000000  0.4512230000000  0.4490560000000 1.0
C      1  0.4537790000000  0.5274130000000  0.4237920000000 1.0
C      1  0.4171340000000  0.5243840000000  0.4947240000000 1.0
C      1  0.4754280000000  0.4164450000000  0.5532350000000 1.0
C      1  0.4534540000000  0.4294010000000  0.4566660000000 1.0
C      1  0.5179300000000  0.5523160000000  0.5221970000000 1.0
C      1  0.5309520000000  0.4700900000000  0.5023910000000 1.0
C      1  0.4285740000000  0.4591640000000  0.5412610000000 1.0
C      1  0.4592110000000  0.5136300000000  0.5121220000000 1.0
C      1  0.5321520000000  0.5496700000000  0.5682440000000 1.0
C      1  0.4743790000000  0.4909090000000  0.5987450000000 1.0
C      1  0.5081270000000  0.5691100000000  0.5682910000000 1.0
C      1  0.5778350000000  0.4556510000000  0.5003900000000 1.0
C      1  0.4838590000000  0.4623200000000  0.4011650000000 1.0
C      1  0.4134980000000  0.4650560000000  0.4696990000000 1.0
C      1  0.5175950000000  0.4206540000000  0.4635260000000 1.0
C      1  0.5454740000000  0.4868460000000  0.5446270000000 1.0
C      1  0.4950420000000  0.5851820000000  0.4641980000000 1.0
C      1  0.5531490000000  0.4773690000000  0.4313200000000 1.0
C      1  0.4974090000000  0.4641980000000  0.5614990000000 1.0
C      1  0.5072320000000  0.5318420000000  0.5056790000000 1.0
C      1  0.5207470000000  0.4477710000000  0.5687790000000 1.0
C      1  0.5154210000000  0.4905440000000  0.4395800000000 1.0
C      1  0.4131820000000  0.5030320000000  0.5149490000000 1.0
C      1  0.5892900000000  0.4829430000000  0.5022580000000 1.0
C      1  0.5349170000000  0.5106870000000  0.5334170000000 1.0
C      1  0.4827430000000  0.5336160000000  0.5469120000000 1.0
C      1  0.5664210000000  0.5653810000000  0.4427640000000 1.0
C      1  0.4622700000000  0.5673210000000  0.5396900000000 1.0
C      1  0.5641960000000  0.4441870000000  0.4768480000000 1.0
C      1  0.4654150000000  0.4796040000000  0.4456680000000 1.0
C      1  0.5529450000000  0.5535720000000  0.4177290000000 1.0
C      1  0.5505970000000  0.5054140000000  0.5868220000000 1.0
C      1  0.4233890000000  0.4298310000000  0.5049220000000 1.0
C      1  0.5651860000000  0.4906780000000  0.5662160000000 1.0
C      1  0.4323360000000  0.4456310000000  0.4634830000000 1.0
C      1  0.5248850000000  0.5093140000000  0.5080460000000 1.0
C      1  0.4457290000000  0.5137500000000  0.5771280000000 1.0
C      1  0.4368930000000  0.5073390000000  0.5313820000000 1.0
C      1  0.4604360000000  0.4354130000000  0.5707350000000 1.0
C      1  0.5851550000000  0.5067590000000  0.5520580000000 1.0
C      1  0.5579110000000  0.5020670000000  0.4712670000000 1.0
C      1  0.4664870000000  0.4318280000000  0.5300400000000 1.0
END
