TITL C-4164241-3639-475 87.6687407659976 125000 -24578.8100759986 0 0 165 (C1) n - 1
REM
REM in /home/nfs/bkarasulu/CARBON/AIRSS/Generating-Clusters/ReaxFF-fromJPCA2015/Units_Real/with-SteepDescent/Only-C1/SD-CG/Try1-3A/FIRE-CG
REM
REM
REM
REM
REM
REM ./C.cell (11c1c37f851c82e70ff6c80c92926a4b)
REM
REM compiler GCC version 9.2.1 20190827 (Red Hat 9.2.1-1)
REM options -cpp -mtune=generic -march=x86-64 -g -O0 -fpre-include=/usr/include/finclude/math-vector-fortran.h
REM seed 1346155531 1612479596 -1367643442 1353676706 1551178462 -867730013 -1870257418 -515229246 836667746 -1089317395 1289232161 211932004 235842933 517829655 -1407029203 1715218244 1099298529 634645780 -658729620 176612283 -463693673 1674766131 -28988768 -1340474143 898583157 -2017236599 732493837 -1349992047 1609351978 597962813 -1308267569 -1039434677 -2040837576
REM
CELL 1.54180   50.00000   50.00000   50.00000   90.00000   90.00000   90.00000
LATT -1
SFAC C  
C      1  0.6034310000000  0.4729430000000  0.4486170000000 1.0
C      1  0.4484100000000  0.4236020000000  0.5281410000000 1.0
C      1  0.5173590000000  0.4474550000000  0.4233220000000 1.0
C      1  0.4616580000000  0.5387950000000  0.4676380000000 1.0
C      1  0.5646780000000  0.5244670000000  0.4820710000000 1.0
C      1  0.4935300000000  0.5049170000000  0.4919890000000 1.0
C      1  0.5088010000000  0.5152190000000  0.5637140000000 1.0
C      1  0.4769940000000  0.4740550000000  0.4846870000000 1.0
C      1  0.6029140000000  0.5382540000000  0.5059010000000 1.0
C      1  0.4972040000000  0.5949990000000  0.4971510000000 1.0
C      1  0.4676250000000  0.4953370000000  0.5355220000000 1.0
C      1  0.4474860000000  0.5872880000000  0.4840760000000 1.0
C      1  0.5054130000000  0.4698780000000  0.4488660000000 1.0
C      1  0.4874390000000  0.5777960000000  0.5719070000000 1.0
C      1  0.4645070000000  0.4595240000000  0.4106600000000 1.0
C      1  0.4482330000000  0.4542490000000  0.5222670000000 1.0
C      1  0.6058270000000  0.4511920000000  0.4696780000000 1.0
C      1  0.4066340000000  0.4609070000000  0.5461620000000 1.0
C      1  0.5681730000000  0.4282650000000  0.5413850000000 1.0
C      1  0.4649180000000  0.5215590000000  0.5532460000000 1.0
C      1  0.5266920000000  0.4654270000000  0.4679480000000 1.0
C      1  0.4814570000000  0.5490670000000  0.5119540000000 1.0
C      1  0.4031720000000  0.5227580000000  0.5175910000000 1.0
C      1  0.5182820000000  0.4555050000000  0.4914190000000 1.0
C      1  0.4926610000000  0.5389610000000  0.4009870000000 1.0
C      1  0.4275100000000  0.4686960000000  0.4625270000000 1.0
C      1  0.5131790000000  0.5187810000000  0.4534900000000 1.0
C      1  0.5509650000000  0.4822700000000  0.4336030000000 1.0
C      1  0.4078530000000  0.4872310000000  0.5585670000000 1.0
C      1  0.5517210000000  0.5854020000000  0.4395560000000 1.0
C      1  0.4281050000000  0.5545080000000  0.5424170000000 1.0
C      1  0.4482040000000  0.4927400000000  0.4573960000000 1.0
C      1  0.4184850000000  0.4906010000000  0.4201270000000 1.0
C      1  0.4756010000000  0.4338450000000  0.4487930000000 1.0
C      1  0.4475240000000  0.5007130000000  0.5901310000000 1.0
C      1  0.5583530000000  0.4752470000000  0.5245980000000 1.0
C      1  0.4842270000000  0.5885200000000  0.4496260000000 1.0
C      1  0.4436130000000  0.5169050000000  0.4723100000000 1.0
C      1  0.5595900000000  0.5757490000000  0.5461800000000 1.0
C      1  0.5304740000000  0.5083310000000  0.3990920000000 1.0
C      1  0.4879200000000  0.5384920000000  0.6045830000000 1.0
C      1  0.6075550000000  0.5196340000000  0.5263780000000 1.0
C      1  0.5394970000000  0.4220650000000  0.5473980000000 1.0
C      1  0.5930960000000  0.5576630000000  0.4882880000000 1.0
C      1  0.4426440000000  0.5767310000000  0.5096200000000 1.0
C      1  0.5418230000000  0.5525140000000  0.4190730000000 1.0
C      1  0.4102200000000  0.4590510000000  0.4924700000000 1.0
C      1  0.4244260000000  0.4166740000000  0.5428690000000 1.0
C      1  0.5379050000000  0.5264100000000  0.4933830000000 1.0
C      1  0.4951350000000  0.4113450000000  0.4488920000000 1.0
C      1  0.5877770000000  0.4260800000000  0.4987610000000 1.0
C      1  0.5968700000000  0.4998170000000  0.4596910000000 1.0
C      1  0.4065140000000  0.5138120000000  0.5460070000000 1.0
C      1  0.5209240000000  0.5427740000000  0.5366720000000 1.0
C      1  0.4980880000000  0.5034950000000  0.5870170000000 1.0
C      1  0.4461110000000  0.5271000000000  0.5786020000000 1.0
C      1  0.5419270000000  0.4170190000000  0.4611090000000 1.0
C      1  0.5170770000000  0.4671320000000  0.5491420000000 1.0
C      1  0.4474400000000  0.5750560000000  0.5514040000000 1.0
C      1  0.5142520000000  0.5476500000000  0.4563960000000 1.0
C      1  0.4736650000000  0.4874390000000  0.5916630000000 1.0
C      1  0.4969160000000  0.4980090000000  0.4428890000000 1.0
C      1  0.5267230000000  0.5510480000000  0.4814880000000 1.0
C      1  0.4535440000000  0.4716360000000  0.4994930000000 1.0
C      1  0.5772500000000  0.5449270000000  0.4640760000000 1.0
C      1  0.4893040000000  0.4222280000000  0.5654000000000 1.0
C      1  0.5606790000000  0.5252900000000  0.5313290000000 1.0
C      1  0.4923220000000  0.4361230000000  0.5136890000000 1.0
C      1  0.5248710000000  0.5361660000000  0.4031870000000 1.0
C      1  0.5423940000000  0.5957410000000  0.5340780000000 1.0
C      1  0.4961610000000  0.4636790000000  0.5048110000000 1.0
C      1  0.5546830000000  0.6134820000000  0.4838310000000 1.0
C      1  0.5792910000000  0.5737870000000  0.5084700000000 1.0
C      1  0.4892830000000  0.4004170000000  0.4754370000000 1.0
C      1  0.4164870000000  0.4374500000000  0.5592970000000 1.0
C      1  0.4822550000000  0.4596260000000  0.4609690000000 1.0
C      1  0.4424620000000  0.4756890000000  0.4134310000000 1.0
C      1  0.3862910000000  0.4781950000000  0.4951590000000 1.0
C      1  0.4345750000000  0.4408470000000  0.4519830000000 1.0
C      1  0.4629160000000  0.5462810000000  0.4394930000000 1.0
C      1  0.5067280000000  0.5712510000000  0.4397540000000 1.0
C      1  0.5592100000000  0.5600470000000  0.4388720000000 1.0
C      1  0.5386270000000  0.4135900000000  0.4930020000000 1.0
C      1  0.5082100000000  0.5592970000000  0.5185060000000 1.0
C      1  0.5079800000000  0.5196950000000  0.6077030000000 1.0
C      1  0.4410290000000  0.5210160000000  0.5009660000000 1.0
C      1  0.4671910000000  0.5741070000000  0.4296590000000 1.0
C      1  0.5207160000000  0.4222610000000  0.4420860000000 1.0
C      1  0.5780170000000  0.4979600000000  0.5763440000000 1.0
C      1  0.5176120000000  0.4144470000000  0.5667530000000 1.0
C      1  0.4156730000000  0.5206200000000  0.4206590000000 1.0
C      1  0.5565370000000  0.4980050000000  0.5945050000000 1.0
C      1  0.5522500000000  0.5906430000000  0.5066060000000 1.0
C      1  0.4285010000000  0.5704480000000  0.4705480000000 1.0
C      1  0.5748350000000  0.5265530000000  0.5713950000000 1.0
C      1  0.5494270000000  0.5361550000000  0.5818690000000 1.0
C      1  0.5847820000000  0.5666800000000  0.5359020000000 1.0
C      1  0.5857780000000  0.4613650000000  0.4297100000000 1.0
C      1  0.5388610000000  0.5185670000000  0.6024230000000 1.0
C      1  0.5764630000000  0.5167680000000  0.4267820000000 1.0
C      1  0.4537230000000  0.4389550000000  0.4293850000000 1.0
C      1  0.3983080000000  0.5084980000000  0.4632740000000 1.0
C      1  0.5677750000000  0.4225330000000  0.4510800000000 1.0
C      1  0.4941600000000  0.4083680000000  0.5171280000000 1.0
C      1  0.4075460000000  0.4851770000000  0.4480020000000 1.0
C      1  0.4613550000000  0.5866550000000  0.5288390000000 1.0
C      1  0.4280660000000  0.4843710000000  0.5790330000000 1.0
C      1  0.4091060000000  0.4125890000000  0.5160670000000 1.0
C      1  0.5484340000000  0.5496120000000  0.5364670000000 1.0
C      1  0.5999070000000  0.4913750000000  0.5297710000000 1.0
C      1  0.4915120000000  0.5670850000000  0.4144370000000 1.0
C      1  0.4962030000000  0.4630160000000  0.4072570000000 1.0
C      1  0.5336250000000  0.4401510000000  0.5047770000000 1.0
C      1  0.4642140000000  0.4045650000000  0.5129260000000 1.0
C      1  0.4612480000000  0.4060940000000  0.4839860000000 1.0
C      1  0.5452410000000  0.5018470000000  0.5258440000000 1.0
C      1  0.4798840000000  0.5309190000000  0.4882360000000 1.0
C      1  0.4200240000000  0.4624060000000  0.5204490000000 1.0
C      1  0.5141310000000  0.5939930000000  0.5433400000000 1.0
C      1  0.4945850000000  0.4953320000000  0.5205190000000 1.0
C      1  0.5096690000000  0.4868730000000  0.3989530000000 1.0
C      1  0.4684430000000  0.4331990000000  0.5833370000000 1.0
C      1  0.5840040000000  0.4789050000000  0.5067610000000 1.0
C      1  0.5218540000000  0.5423440000000  0.5662230000000 1.0
C      1  0.5658900000000  0.4169990000000  0.5149910000000 1.0
C      1  0.5455610000000  0.4566320000000  0.4195180000000 1.0
C      1  0.3929730000000  0.5066720000000  0.4933780000000 1.0
C      1  0.5720640000000  0.4585670000000  0.5451460000000 1.0
C      1  0.5225060000000  0.5755840000000  0.4980220000000 1.0
C      1  0.5462460000000  0.4862550000000  0.4637210000000 1.0
C      1  0.4721880000000  0.5365670000000  0.5349910000000 1.0
C      1  0.4611560000000  0.5741800000000  0.5783920000000 1.0
C      1  0.4374290000000  0.4206700000000  0.4734440000000 1.0
C      1  0.5225220000000  0.5076490000000  0.4774650000000 1.0
C      1  0.5060860000000  0.4593160000000  0.5762290000000 1.0
C      1  0.4659950000000  0.5247660000000  0.4206670000000 1.0
C      1  0.5742960000000  0.4966260000000  0.4791630000000 1.0
C      1  0.4475420000000  0.4962240000000  0.5131030000000 1.0
C      1  0.4470980000000  0.4653910000000  0.5730780000000 1.0
C      1  0.5688290000000  0.4393950000000  0.4256160000000 1.0
C      1  0.5869440000000  0.5357610000000  0.5435010000000 1.0
C      1  0.4214120000000  0.5336380000000  0.5608680000000 1.0
C      1  0.4635110000000  0.4673910000000  0.5481260000000 1.0
C      1  0.4814690000000  0.4583310000000  0.5914060000000 1.0
C      1  0.4413250000000  0.5243200000000  0.4130200000000 1.0
C      1  0.5169280000000  0.4981130000000  0.5400190000000 1.0
C      1  0.4687800000000  0.5008210000000  0.4379640000000 1.0
C      1  0.5326610000000  0.4469550000000  0.5320840000000 1.0
C      1  0.4639460000000  0.5491040000000  0.5944340000000 1.0
C      1  0.4142300000000  0.4267120000000  0.4911520000000 1.0
C      1  0.5939570000000  0.5258750000000  0.4462100000000 1.0
C      1  0.4045340000000  0.5315660000000  0.4466300000000 1.0
C      1  0.4394970000000  0.4374040000000  0.5756570000000 1.0
C      1  0.4767380000000  0.5937590000000  0.4770560000000 1.0
C      1  0.4906320000000  0.5960060000000  0.5247780000000 1.0
C      1  0.5529010000000  0.6026270000000  0.4581770000000 1.0
C      1  0.4242540000000  0.5432120000000  0.5139630000000 1.0
C      1  0.5911900000000  0.4254260000000  0.4687330000000 1.0
C      1  0.5111930000000  0.4000850000000  0.4948960000000 1.0
C      1  0.5571280000000  0.5031130000000  0.4127220000000 1.0
C      1  0.5121350000000  0.5743960000000  0.5655530000000 1.0
C      1  0.4905990000000  0.4516380000000  0.5514810000000 1.0
C      1  0.5902950000000  0.4793080000000  0.5543150000000 1.0
C      1  0.4166790000000  0.5540860000000  0.4591960000000 1.0
C      1  0.5990620000000  0.4539890000000  0.4977550000000 1.0
END
