TITL C-4164240-4114-492 100.572755122964 125000 -25747.7206383341 0 0 176 (C1) n - 1
REM
REM in /home/nfs/bkarasulu/CARBON/AIRSS/Generating-Clusters/ReaxFF-fromJPCA2015/Units_Real/with-SteepDescent/Only-C1/SD-CG/Try1-3A/FIRE-CG
REM
REM
REM
REM
REM
REM ./C.cell (11c1c37f851c82e70ff6c80c92926a4b)
REM
REM compiler GCC version 9.2.1 20190827 (Red Hat 9.2.1-1)
REM options -cpp -mtune=generic -march=x86-64 -g -O0 -fpre-include=/usr/include/finclude/math-vector-fortran.h
REM seed 2058803134 -1865053694 -985242246 1507964776 -1390408450 -1412835122 62982776 -825021624 1748295003 -1873963208 1796444531 -1782376873 1841344178 -409005686 -1886017905 -1790346222 567867602 908079736 -1001103860 522259291 -1399906933 1903106777 1184263296 -1741199906 1402142770 -254341959 1896560371 -1822176554 -2003984724 -1897312557 1792893742 1394277976 -353407790
REM
CELL 1.54180   50.00000   50.00000   50.00000   90.00000   90.00000   90.00000
LATT -1
SFAC C  
C      1  0.4748420000000  0.4472020000000  0.4111380000000 1.0
C      1  0.5662050000000  0.5000240000000  0.4102540000000 1.0
C      1  0.4325180000000  0.5378180000000  0.4478390000000 1.0
C      1  0.4189690000000  0.4192070000000  0.5050940000000 1.0
C      1  0.5448010000000  0.5747300000000  0.5410560000000 1.0
C      1  0.5793990000000  0.5443520000000  0.5643760000000 1.0
C      1  0.4850100000000  0.6080700000000  0.4898610000000 1.0
C      1  0.5597840000000  0.4864120000000  0.5824210000000 1.0
C      1  0.5838390000000  0.4115280000000  0.5161530000000 1.0
C      1  0.4469680000000  0.4450590000000  0.5852540000000 1.0
C      1  0.5397820000000  0.4622480000000  0.5827640000000 1.0
C      1  0.4554830000000  0.4639040000000  0.4737330000000 1.0
C      1  0.4996340000000  0.4471900000000  0.5041860000000 1.0
C      1  0.4659410000000  0.5402700000000  0.5436380000000 1.0
C      1  0.5013370000000  0.5642630000000  0.4680320000000 1.0
C      1  0.5933200000000  0.5206640000000  0.5584530000000 1.0
C      1  0.4788070000000  0.4551400000000  0.4599930000000 1.0
C      1  0.3853210000000  0.5143760000000  0.4950770000000 1.0
C      1  0.4300150000000  0.4775750000000  0.4669070000000 1.0
C      1  0.5782190000000  0.4703840000000  0.5184910000000 1.0
C      1  0.4149530000000  0.4292630000000  0.5283010000000 1.0
C      1  0.5062670000000  0.6022250000000  0.5092480000000 1.0
C      1  0.5468370000000  0.5130890000000  0.3961680000000 1.0
C      1  0.5132850000000  0.5425890000000  0.5371870000000 1.0
C      1  0.4655910000000  0.5319280000000  0.4835980000000 1.0
C      1  0.4919530000000  0.5960320000000  0.5345050000000 1.0
C      1  0.5736810000000  0.5689910000000  0.5454850000000 1.0
C      1  0.4754850000000  0.5589830000000  0.4792220000000 1.0
C      1  0.5093820000000  0.4258460000000  0.5173380000000 1.0
C      1  0.4463000000000  0.4288140000000  0.5621850000000 1.0
C      1  0.5825520000000  0.4835960000000  0.4264880000000 1.0
C      1  0.5261450000000  0.4857310000000  0.6126340000000 1.0
C      1  0.5401410000000  0.5637990000000  0.5858550000000 1.0
C      1  0.5286960000000  0.4892300000000  0.3931550000000 1.0
C      1  0.5659110000000  0.4556750000000  0.5394230000000 1.0
C      1  0.5431300000000  0.4932150000000  0.4754980000000 1.0
C      1  0.5792410000000  0.5538420000000  0.4395230000000 1.0
C      1  0.5525500000000  0.5695960000000  0.4770200000000 1.0
C      1  0.4710600000000  0.4498300000000  0.6012830000000 1.0
C      1  0.6021970000000  0.4847590000000  0.5214480000000 1.0
C      1  0.5233560000000  0.4570480000000  0.4342270000000 1.0
C      1  0.5895850000000  0.5242510000000  0.4925970000000 1.0
C      1  0.5451040000000  0.5476230000000  0.4940400000000 1.0
C      1  0.4548530000000  0.5721270000000  0.4922550000000 1.0
C      1  0.5136800000000  0.5370960000000  0.4636400000000 1.0
C      1  0.5013580000000  0.4017120000000  0.5015970000000 1.0
C      1  0.4607890000000  0.4160930000000  0.4463680000000 1.0
C      1  0.4893830000000  0.5221270000000  0.3955190000000 1.0
C      1  0.5358520000000  0.4644970000000  0.4080950000000 1.0
C      1  0.4837250000000  0.4817380000000  0.4498600000000 1.0
C      1  0.4372940000000  0.5856120000000  0.5337220000000 1.0
C      1  0.5611380000000  0.5235630000000  0.4825910000000 1.0
C      1  0.4835140000000  0.4119100000000  0.5633710000000 1.0
C      1  0.5603980000000  0.4950650000000  0.5296400000000 1.0
C      1  0.4069310000000  0.5693320000000  0.5019800000000 1.0
C      1  0.5007880000000  0.5855470000000  0.5598200000000 1.0
C      1  0.5205960000000  0.3943650000000  0.4811590000000 1.0
C      1  0.4211960000000  0.4421320000000  0.5524820000000 1.0
C      1  0.5070920000000  0.5103970000000  0.5772380000000 1.0
C      1  0.4974090000000  0.4875150000000  0.5639020000000 1.0
C      1  0.5458310000000  0.4652520000000  0.4807470000000 1.0
C      1  0.5342290000000  0.5545570000000  0.5213410000000 1.0
C      1  0.3902820000000  0.5293150000000  0.4705360000000 1.0
C      1  0.4869720000000  0.5360690000000  0.5275690000000 1.0
C      1  0.5888830000000  0.4610630000000  0.4658900000000 1.0
C      1  0.4276740000000  0.5259250000000  0.4971510000000 1.0
C      1  0.6050600000000  0.4103780000000  0.5019180000000 1.0
C      1  0.5240870000000  0.5102760000000  0.5998370000000 1.0
C      1  0.4168800000000  0.5260650000000  0.5639740000000 1.0
C      1  0.5266810000000  0.4520480000000  0.4637420000000 1.0
C      1  0.4586000000000  0.5559780000000  0.5666830000000 1.0
C      1  0.5981330000000  0.4890200000000  0.4699000000000 1.0
C      1  0.4316270000000  0.5888110000000  0.4534370000000 1.0
C      1  0.4263950000000  0.4831380000000  0.4369170000000 1.0
C      1  0.4701100000000  0.4942430000000  0.5804830000000 1.0
C      1  0.5347100000000  0.5260660000000  0.4460260000000 1.0
C      1  0.4341040000000  0.4764050000000  0.5135580000000 1.0
C      1  0.4616860000000  0.5994450000000  0.5311680000000 1.0
C      1  0.4322450000000  0.4684410000000  0.4193740000000 1.0
C      1  0.4982590000000  0.4880020000000  0.5355170000000 1.0
C      1  0.5019530000000  0.4485400000000  0.4767760000000 1.0
C      1  0.4499070000000  0.5460210000000  0.4199220000000 1.0
C      1  0.5051280000000  0.5862200000000  0.4494440000000 1.0
C      1  0.5705600000000  0.4210640000000  0.4091450000000 1.0
C      1  0.5374040000000  0.5107840000000  0.5196740000000 1.0
C      1  0.4549820000000  0.4731810000000  0.5917500000000 1.0
C      1  0.5109730000000  0.5204090000000  0.4901610000000 1.0
C      1  0.4567590000000  0.6035070000000  0.4503120000000 1.0
C      1  0.5793660000000  0.4562730000000  0.4399710000000 1.0
C      1  0.4624530000000  0.4131770000000  0.5459040000000 1.0
C      1  0.5396390000000  0.4153930000000  0.4479050000000 1.0
C      1  0.5463160000000  0.4087810000000  0.4753640000000 1.0
C      1  0.5321780000000  0.4983160000000  0.4488620000000 1.0
C      1  0.4594680000000  0.5996770000000  0.5013960000000 1.0
C      1  0.5182200000000  0.4930740000000  0.4888670000000 1.0
C      1  0.5591160000000  0.5874460000000  0.4989170000000 1.0
C      1  0.4925630000000  0.5586990000000  0.6004450000000 1.0
C      1  0.5507760000000  0.5129750000000  0.5934660000000 1.0
C      1  0.4758190000000  0.5366700000000  0.6112610000000 1.0
C      1  0.5797570000000  0.4154220000000  0.5481270000000 1.0
C      1  0.4171710000000  0.5634430000000  0.4574500000000 1.0
C      1  0.4546130000000  0.4917830000000  0.5288030000000 1.0
C      1  0.4231170000000  0.5244030000000  0.5366320000000 1.0
C      1  0.5650490000000  0.5264770000000  0.4517470000000 1.0
C      1  0.4986500000000  0.4477920000000  0.5916570000000 1.0
C      1  0.4069990000000  0.4548780000000  0.4679160000000 1.0
C      1  0.4747280000000  0.4736890000000  0.5321460000000 1.0
C      1  0.4500990000000  0.4555180000000  0.4999450000000 1.0
C      1  0.4738520000000  0.5080260000000  0.4499680000000 1.0
C      1  0.4807570000000  0.5721110000000  0.5771240000000 1.0
C      1  0.5182340000000  0.4425230000000  0.5393500000000 1.0
C      1  0.4984370000000  0.4942050000000  0.3923360000000 1.0
C      1  0.5671170000000  0.4217470000000  0.4920520000000 1.0
C      1  0.5329910000000  0.6013730000000  0.4963030000000 1.0
C      1  0.5836550000000  0.5412370000000  0.5157440000000 1.0
C      1  0.5112670000000  0.4123290000000  0.4386620000000 1.0
C      1  0.5826560000000  0.4820880000000  0.5672520000000 1.0
C      1  0.4591490000000  0.5193360000000  0.5933320000000 1.0
C      1  0.5140460000000  0.5356110000000  0.5654500000000 1.0
C      1  0.4854730000000  0.5237080000000  0.5020790000000 1.0
C      1  0.4785850000000  0.5487770000000  0.4309370000000 1.0
C      1  0.4269970000000  0.4115390000000  0.4795070000000 1.0
C      1  0.4170810000000  0.4305340000000  0.4575830000000 1.0
C      1  0.4166410000000  0.5058290000000  0.4245790000000 1.0
C      1  0.6022200000000  0.4945390000000  0.5500220000000 1.0
C      1  0.4552150000000  0.4059890000000  0.4734500000000 1.0
C      1  0.5711750000000  0.4520110000000  0.4898480000000 1.0
C      1  0.4846980000000  0.6052920000000  0.4603740000000 1.0
C      1  0.5295310000000  0.5808610000000  0.5650700000000 1.0
C      1  0.4996680000000  0.5657420000000  0.4214220000000 1.0
C      1  0.5566850000000  0.5706770000000  0.4443520000000 1.0
C      1  0.5860860000000  0.5034280000000  0.4475520000000 1.0
C      1  0.5540030000000  0.4368880000000  0.5805870000000 1.0
C      1  0.4450400000000  0.4469720000000  0.4138270000000 1.0
C      1  0.5456150000000  0.4346570000000  0.5339090000000 1.0
C      1  0.5087700000000  0.4647470000000  0.6109460000000 1.0
C      1  0.5077280000000  0.3870600000000  0.4539030000000 1.0
C      1  0.4859400000000  0.4704840000000  0.4015020000000 1.0
C      1  0.4506400000000  0.5198790000000  0.5338190000000 1.0
C      1  0.6047050000000  0.4995560000000  0.4969660000000 1.0
C      1  0.4724920000000  0.4040530000000  0.4973450000000 1.0
C      1  0.5788860000000  0.5706900000000  0.5172330000000 1.0
C      1  0.5371490000000  0.4127610000000  0.5744970000000 1.0
C      1  0.4124260000000  0.5717660000000  0.5316250000000 1.0
C      1  0.5408680000000  0.6229270000000  0.4523030000000 1.0
C      1  0.4845060000000  0.4295990000000  0.4352400000000 1.0
C      1  0.4323350000000  0.5547790000000  0.4990120000000 1.0
C      1  0.4506930000000  0.5183700000000  0.4634560000000 1.0
C      1  0.5401910000000  0.5609460000000  0.4226180000000 1.0
C      1  0.4157310000000  0.4687860000000  0.5393590000000 1.0
C      1  0.3965630000000  0.5575470000000  0.4774360000000 1.0
C      1  0.4624730000000  0.4215500000000  0.5185680000000 1.0
C      1  0.5634280000000  0.4308130000000  0.4315370000000 1.0
C      1  0.4732390000000  0.4492150000000  0.5155490000000 1.0
C      1  0.5272190000000  0.6062940000000  0.4655970000000 1.0
C      1  0.5518640000000  0.4086440000000  0.5491590000000 1.0
C      1  0.4400720000000  0.5369380000000  0.5792000000000 1.0
C      1  0.5364180000000  0.5419820000000  0.4022160000000 1.0
C      1  0.5633050000000  0.5229900000000  0.5284100000000 1.0
C      1  0.5191700000000  0.5492850000000  0.5912380000000 1.0
C      1  0.4074320000000  0.5456710000000  0.5445490000000 1.0
C      1  0.5077070000000  0.5463200000000  0.4006720000000 1.0
C      1  0.3848540000000  0.5028350000000  0.5198540000000 1.0
C      1  0.5573160000000  0.5403180000000  0.5838520000000 1.0
C      1  0.4379610000000  0.4302260000000  0.4348430000000 1.0
C      1  0.4615650000000  0.5271410000000  0.3990010000000 1.0
C      1  0.3998140000000  0.4931580000000  0.5458920000000 1.0
C      1  0.5102610000000  0.4828930000000  0.4388080000000 1.0
C      1  0.4279460000000  0.4983860000000  0.4910890000000 1.0
C      1  0.4064140000000  0.5237760000000  0.4460360000000 1.0
C      1  0.4362110000000  0.5218620000000  0.4095430000000 1.0
C      1  0.5133050000000  0.4586130000000  0.5670860000000 1.0
C      1  0.5777750000000  0.4413210000000  0.5622610000000 1.0
C      1  0.5087930000000  0.4108520000000  0.5712030000000 1.0
C      1  0.4936330000000  0.5278610000000  0.4426160000000 1.0
C      1  0.5195270000000  0.4877690000000  0.5171700000000 1.0
END
