TITL C-4164235-1454-43 9.16514700140956 125000 -17847.4222602659 0 0 119 (C1) n - 1
REM
REM in /home/nfs/bkarasulu/CARBON/AIRSS/Generating-Clusters/ReaxFF-fromJPCA2015/Units_Real/with-SteepDescent/Only-C1/SD-CG/Try1-3A/FIRE-CG
REM
REM
REM
REM
REM
REM ./C.cell (11c1c37f851c82e70ff6c80c92926a4b)
REM
REM compiler GCC version 9.2.1 20190827 (Red Hat 9.2.1-1)
REM options -cpp -mtune=generic -march=x86-64 -g -O0 -fpre-include=/usr/include/finclude/math-vector-fortran.h
REM seed 814196166 1882689291 20214223 -478767612 -1248392260 -760738774 1280660994 -1927580925 5805817 1487554342 756939459 1789884087 -1623150411 126934016 216456048 -690959476 -790795657 -1120323220 305065604 1140836200 -1108844005 2068890450 -1990093068 -1659086179 138848918 -461012826 -103166856 1440895071 -986661140 -1625178085 -1902389699 1166639066 1525819107
REM
CELL 1.54180   50.00000   50.00000   50.00000   90.00000   90.00000   90.00000
LATT -1
SFAC C  
C      1  0.4673140000000  0.5883390000000  0.4612040000000 1.0
C      1  0.5816810000000  0.4816610000000  0.4928800000000 1.0
C      1  0.4632000000000  0.4217630000000  0.4472490000000 1.0
C      1  0.5779550000000  0.4700180000000  0.5394420000000 1.0
C      1  0.4305620000000  0.4583410000000  0.5146960000000 1.0
C      1  0.5644670000000  0.5626760000000  0.5349410000000 1.0
C      1  0.4382590000000  0.5864870000000  0.4612950000000 1.0
C      1  0.4202310000000  0.5696250000000  0.4790660000000 1.0
C      1  0.4884550000000  0.4612230000000  0.5262190000000 1.0
C      1  0.5695250000000  0.4361430000000  0.4998550000000 1.0
C      1  0.4965950000000  0.5395930000000  0.4884300000000 1.0
C      1  0.5443310000000  0.5659170000000  0.4662970000000 1.0
C      1  0.4526380000000  0.4226670000000  0.5505200000000 1.0
C      1  0.4832950000000  0.5567900000000  0.5725410000000 1.0
C      1  0.5517280000000  0.5761280000000  0.5126860000000 1.0
C      1  0.5820780000000  0.5206550000000  0.5517340000000 1.0
C      1  0.5036020000000  0.4671890000000  0.4440370000000 1.0
C      1  0.4684310000000  0.4434110000000  0.5657040000000 1.0
C      1  0.4979440000000  0.4240350000000  0.4762700000000 1.0
C      1  0.4962700000000  0.4491140000000  0.5580500000000 1.0
C      1  0.4241040000000  0.5270580000000  0.5449600000000 1.0
C      1  0.5334010000000  0.5118010000000  0.5940560000000 1.0
C      1  0.5921090000000  0.4960130000000  0.5391720000000 1.0
C      1  0.4996110000000  0.4815880000000  0.4687430000000 1.0
C      1  0.4491560000000  0.4458940000000  0.4975240000000 1.0
C      1  0.5200750000000  0.5437890000000  0.5380560000000 1.0
C      1  0.4717390000000  0.4117100000000  0.4749040000000 1.0
C      1  0.4552540000000  0.4906950000000  0.4625480000000 1.0
C      1  0.4582580000000  0.5283650000000  0.4272800000000 1.0
C      1  0.5391000000000  0.4745750000000  0.5670300000000 1.0
C      1  0.4600270000000  0.5429970000000  0.5616410000000 1.0
C      1  0.4829540000000  0.5952880000000  0.4852190000000 1.0
C      1  0.4736580000000  0.4598500000000  0.5028610000000 1.0
C      1  0.5121050000000  0.5962150000000  0.5751140000000 1.0
C      1  0.4521360000000  0.4168480000000  0.4966790000000 1.0
C      1  0.5557430000000  0.5242060000000  0.5659510000000 1.0
C      1  0.5522180000000  0.5055080000000  0.4146010000000 1.0
C      1  0.5128800000000  0.5221790000000  0.5558270000000 1.0
C      1  0.4486020000000  0.4629310000000  0.5735670000000 1.0
C      1  0.4366790000000  0.4486780000000  0.4751290000000 1.0
C      1  0.5123860000000  0.4787020000000  0.4182880000000 1.0
C      1  0.5179000000000  0.5379520000000  0.5083150000000 1.0
C      1  0.5924980000000  0.5301040000000  0.5058520000000 1.0
C      1  0.5015510000000  0.4087130000000  0.5307870000000 1.0
C      1  0.5852930000000  0.5417930000000  0.5323010000000 1.0
C      1  0.5088410000000  0.4375680000000  0.4501920000000 1.0
C      1  0.5189410000000  0.4843510000000  0.5133580000000 1.0
C      1  0.5452140000000  0.5490800000000  0.5522550000000 1.0
C      1  0.4469000000000  0.4920340000000  0.5695180000000 1.0
C      1  0.4734040000000  0.4832640000000  0.4857100000000 1.0
C      1  0.5144770000000  0.4001050000000  0.5053550000000 1.0
C      1  0.5519110000000  0.5512200000000  0.4438410000000 1.0
C      1  0.4573390000000  0.5582980000000  0.5088920000000 1.0
C      1  0.4115110000000  0.5075420000000  0.5100390000000 1.0
C      1  0.4259640000000  0.4875500000000  0.5493620000000 1.0
C      1  0.4143690000000  0.5134010000000  0.4839170000000 1.0
C      1  0.5482440000000  0.5150070000000  0.4758470000000 1.0
C      1  0.4778570000000  0.5050320000000  0.5331010000000 1.0
C      1  0.5585300000000  0.4205160000000  0.5194670000000 1.0
C      1  0.5409030000000  0.4313660000000  0.4552410000000 1.0
C      1  0.5386220000000  0.4079780000000  0.4710900000000 1.0
C      1  0.4862840000000  0.5107190000000  0.5861060000000 1.0
C      1  0.5158860000000  0.4273550000000  0.5473490000000 1.0
C      1  0.5468620000000  0.4877560000000  0.4741550000000 1.0
C      1  0.4451860000000  0.4723410000000  0.4414960000000 1.0
C      1  0.5101010000000  0.4002890000000  0.4776260000000 1.0
C      1  0.5638750000000  0.5655710000000  0.4878320000000 1.0
C      1  0.4417160000000  0.4433040000000  0.4486750000000 1.0
C      1  0.5280470000000  0.5495460000000  0.4275510000000 1.0
C      1  0.4232550000000  0.5239350000000  0.4600530000000 1.0
C      1  0.5394850000000  0.4782950000000  0.4071080000000 1.0
C      1  0.5109760000000  0.5884850000000  0.4855610000000 1.0
C      1  0.5375020000000  0.5034360000000  0.5532570000000 1.0
C      1  0.4383790000000  0.4875170000000  0.4189180000000 1.0
C      1  0.4870600000000  0.4237590000000  0.4312730000000 1.0
C      1  0.5796630000000  0.4529050000000  0.4811020000000 1.0
C      1  0.4762150000000  0.5849080000000  0.5117190000000 1.0
C      1  0.5410990000000  0.5218660000000  0.5023210000000 1.0
C      1  0.5302490000000  0.5250000000000  0.4121970000000 1.0
C      1  0.4256450000000  0.4600290000000  0.5571850000000 1.0
C      1  0.4998590000000  0.5858830000000  0.5279100000000 1.0
C      1  0.5574490000000  0.4555110000000  0.5551970000000 1.0
C      1  0.5636050000000  0.4770140000000  0.5152100000000 1.0
C      1  0.5060320000000  0.5623030000000  0.4421650000000 1.0
C      1  0.4372730000000  0.5098060000000  0.4051550000000 1.0
C      1  0.4149530000000  0.5522160000000  0.4556800000000 1.0
C      1  0.4677210000000  0.5104070000000  0.5619860000000 1.0
C      1  0.5808620000000  0.5424680000000  0.4831430000000 1.0
C      1  0.5013970000000  0.5349420000000  0.5808520000000 1.0
C      1  0.5581580000000  0.4786930000000  0.4497320000000 1.0
C      1  0.4973160000000  0.5818480000000  0.5595040000000 1.0
C      1  0.5970830000000  0.5005030000000  0.5103820000000 1.0
C      1  0.5674740000000  0.5277960000000  0.4573190000000 1.0
C      1  0.5627900000000  0.4502800000000  0.4559770000000 1.0
C      1  0.4318310000000  0.5691170000000  0.4381110000000 1.0
C      1  0.5437040000000  0.4325130000000  0.5433200000000 1.0
C      1  0.4691870000000  0.5300020000000  0.4899030000000 1.0
C      1  0.5428200000000  0.4983250000000  0.5217780000000 1.0
C      1  0.4566990000000  0.5589400000000  0.4268630000000 1.0
C      1  0.5681740000000  0.5030520000000  0.4383690000000 1.0
C      1  0.4299200000000  0.4406070000000  0.5376870000000 1.0
C      1  0.5240450000000  0.5874530000000  0.5113140000000 1.0
C      1  0.4628170000000  0.5056170000000  0.5086580000000 1.0
C      1  0.5096330000000  0.4935800000000  0.5912250000000 1.0
C      1  0.4509160000000  0.4089240000000  0.5235900000000 1.0
C      1  0.5218400000000  0.4792490000000  0.4855910000000 1.0
C      1  0.4791590000000  0.5723960000000  0.4390720000000 1.0
C      1  0.5130870000000  0.4680450000000  0.5762710000000 1.0
C      1  0.5054780000000  0.5086310000000  0.4098330000000 1.0
C      1  0.4971570000000  0.4859320000000  0.5300740000000 1.0
C      1  0.5140140000000  0.5637710000000  0.4701890000000 1.0
C      1  0.4334390000000  0.4886490000000  0.5193880000000 1.0
C      1  0.4536030000000  0.5191940000000  0.4607910000000 1.0
C      1  0.4823220000000  0.5183140000000  0.4183900000000 1.0
C      1  0.4270600000000  0.5598030000000  0.5053400000000 1.0
C      1  0.4612110000000  0.5553580000000  0.5372680000000 1.0
C      1  0.4737590000000  0.4048670000000  0.5369780000000 1.0
C      1  0.4142330000000  0.5377720000000  0.5216460000000 1.0
C      1  0.5434090000000  0.4036620000000  0.4999500000000 1.0
END
