TITL C-4164234-2335-10 103.3751583357 125000 -29395.1902770923 0 0 198 (C1) n - 1
REM
REM in /home/nfs/bkarasulu/CARBON/AIRSS/Generating-Clusters/ReaxFF-fromJPCA2015/Units_Real/with-SteepDescent/Only-C1/SD-CG/Try1-3A/FIRE-CG
REM
REM
REM
REM
REM
REM ./C.cell (11c1c37f851c82e70ff6c80c92926a4b)
REM
REM compiler GCC version 9.2.1 20190827 (Red Hat 9.2.1-1)
REM options -cpp -mtune=generic -march=x86-64 -g -O0 -fpre-include=/usr/include/finclude/math-vector-fortran.h
REM seed -993123701 -328104498 1566453614 -1390589377 335552120 1014268104 566573907 -826477317 -1946497546 -111523467 -2010192407 -1581308903 -1324100298 939125655 739362618 -1044833084 352216218 -1267748178 939456545 -1100647789 1647722595 -770301422 1276106268 -782981711 1587201626 1064282780 -1959508882 -349243079 1473226106 1919267401 -831833375 -1595064709 -160398419
REM
CELL 1.54180   50.00000   50.00000   50.00000   90.00000   90.00000   90.00000
LATT -1
SFAC C  
C      1  0.3880960000000  0.5024950000000  0.5331990000000 1.0
C      1  0.4668460000000  0.5423570000000  0.4014650000000 1.0
C      1  0.4352350000000  0.5619740000000  0.5679750000000 1.0
C      1  0.5711290000000  0.4760980000000  0.3996530000000 1.0
C      1  0.4781260000000  0.5804180000000  0.4617530000000 1.0
C      1  0.5338220000000  0.4797980000000  0.5912550000000 1.0
C      1  0.5870900000000  0.4327420000000  0.4868580000000 1.0
C      1  0.5283270000000  0.4565690000000  0.4917680000000 1.0
C      1  0.5720930000000  0.4759100000000  0.4985980000000 1.0
C      1  0.4298530000000  0.4063000000000  0.4769170000000 1.0
C      1  0.3792150000000  0.4958430000000  0.4839920000000 1.0
C      1  0.5636110000000  0.4168530000000  0.5318800000000 1.0
C      1  0.5243910000000  0.6122080000000  0.4932540000000 1.0
C      1  0.5059030000000  0.4709430000000  0.4777290000000 1.0
C      1  0.4781820000000  0.3890190000000  0.4748600000000 1.0
C      1  0.4307110000000  0.3936230000000  0.5037780000000 1.0
C      1  0.6168330000000  0.5172100000000  0.5534680000000 1.0
C      1  0.4752010000000  0.4424600000000  0.4963100000000 1.0
C      1  0.5713960000000  0.4260730000000  0.5057160000000 1.0
C      1  0.4361870000000  0.5931460000000  0.4721790000000 1.0
C      1  0.5081700000000  0.5164020000000  0.4193360000000 1.0
C      1  0.5878770000000  0.4330610000000  0.5275040000000 1.0
C      1  0.4244730000000  0.5555840000000  0.4356030000000 1.0
C      1  0.4128000000000  0.4900560000000  0.5864190000000 1.0
C      1  0.4704090000000  0.5031180000000  0.5066640000000 1.0
C      1  0.5491980000000  0.4870750000000  0.4550300000000 1.0
C      1  0.5739230000000  0.5224520000000  0.3887220000000 1.0
C      1  0.4895340000000  0.4913030000000  0.6149240000000 1.0
C      1  0.4333850000000  0.5230520000000  0.5504490000000 1.0
C      1  0.4584140000000  0.4561490000000  0.4740870000000 1.0
C      1  0.5507050000000  0.4344600000000  0.5492040000000 1.0
C      1  0.5104030000000  0.4961850000000  0.4634430000000 1.0
C      1  0.5548160000000  0.5607920000000  0.5942790000000 1.0
C      1  0.4987460000000  0.5224820000000  0.4675600000000 1.0
C      1  0.4542740000000  0.4007690000000  0.4619190000000 1.0
C      1  0.4122330000000  0.4536080000000  0.5546700000000 1.0
C      1  0.4914730000000  0.4285200000000  0.4443880000000 1.0
C      1  0.5215690000000  0.5416500000000  0.5563220000000 1.0
C      1  0.4193640000000  0.4477940000000  0.4489540000000 1.0
C      1  0.5077130000000  0.4325830000000  0.4187240000000 1.0
C      1  0.4040530000000  0.5242320000000  0.5213690000000 1.0
C      1  0.4505240000000  0.6126060000000  0.5137100000000 1.0
C      1  0.5146370000000  0.5337170000000  0.6065760000000 1.0
C      1  0.5143190000000  0.4173630000000  0.5629070000000 1.0
C      1  0.4402550000000  0.5743830000000  0.5411030000000 1.0
C      1  0.4264160000000  0.4965900000000  0.5461500000000 1.0
C      1  0.5137580000000  0.5516790000000  0.5830680000000 1.0
C      1  0.5669950000000  0.5539030000000  0.4832470000000 1.0
C      1  0.4949080000000  0.4564720000000  0.4547590000000 1.0
C      1  0.6018550000000  0.5196000000000  0.4769240000000 1.0
C      1  0.5319880000000  0.4538560000000  0.5420290000000 1.0
C      1  0.4410290000000  0.5652900000000  0.5124210000000 1.0
C      1  0.4655480000000  0.4957110000000  0.4372970000000 1.0
C      1  0.5003750000000  0.6151730000000  0.5091840000000 1.0
C      1  0.5605540000000  0.4292350000000  0.4342570000000 1.0
C      1  0.4781530000000  0.5535040000000  0.5502350000000 1.0
C      1  0.4775100000000  0.5744910000000  0.5716710000000 1.0
C      1  0.4136220000000  0.5478080000000  0.4804190000000 1.0
C      1  0.5725840000000  0.5833080000000  0.4740480000000 1.0
C      1  0.5129620000000  0.5757910000000  0.5199480000000 1.0
C      1  0.4719950000000  0.4881510000000  0.5769250000000 1.0
C      1  0.5659310000000  0.5786120000000  0.5485410000000 1.0
C      1  0.6008410000000  0.4757660000000  0.4959490000000 1.0
C      1  0.5887820000000  0.4585330000000  0.5433540000000 1.0
C      1  0.4652080000000  0.5328020000000  0.5982220000000 1.0
C      1  0.4582340000000  0.4338060000000  0.5803320000000 1.0
C      1  0.4739500000000  0.6154330000000  0.4963280000000 1.0
C      1  0.5290840000000  0.3937820000000  0.4603990000000 1.0
C      1  0.5220240000000  0.5013490000000  0.5501000000000 1.0
C      1  0.5863960000000  0.5628230000000  0.5331700000000 1.0
C      1  0.4206250000000  0.4107100000000  0.5235640000000 1.0
C      1  0.5529480000000  0.5954080000000  0.4552500000000 1.0
C      1  0.4613320000000  0.4195750000000  0.4411340000000 1.0
C      1  0.6017690000000  0.5244980000000  0.5051550000000 1.0
C      1  0.5332260000000  0.4732460000000  0.5177360000000 1.0
C      1  0.5533550000000  0.5413700000000  0.3851980000000 1.0
C      1  0.5730490000000  0.4433590000000  0.4704800000000 1.0
C      1  0.5364840000000  0.4771630000000  0.4315960000000 1.0
C      1  0.5317120000000  0.5676230000000  0.4255020000000 1.0
C      1  0.4621740000000  0.4366130000000  0.5206790000000 1.0
C      1  0.4069760000000  0.5054200000000  0.4975760000000 1.0
C      1  0.4774260000000  0.4466590000000  0.5973450000000 1.0
C      1  0.5552300000000  0.5189260000000  0.5174250000000 1.0
C      1  0.5199330000000  0.4261620000000  0.5105340000000 1.0
C      1  0.4104220000000  0.5188190000000  0.5921010000000 1.0
C      1  0.5411130000000  0.5389840000000  0.4689700000000 1.0
C      1  0.3704490000000  0.4907590000000  0.5128010000000 1.0
C      1  0.3917040000000  0.4846980000000  0.4630680000000 1.0
C      1  0.5701560000000  0.5273510000000  0.4349500000000 1.0
C      1  0.4980380000000  0.3853350000000  0.5412550000000 1.0
C      1  0.4615570000000  0.4121470000000  0.5350760000000 1.0
C      1  0.4525470000000  0.5159420000000  0.4873850000000 1.0
C      1  0.4920970000000  0.3976780000000  0.5657530000000 1.0
C      1  0.5278370000000  0.5201020000000  0.5099060000000 1.0
C      1  0.4839300000000  0.4771510000000  0.5024410000000 1.0
C      1  0.6028440000000  0.4770820000000  0.5255330000000 1.0
C      1  0.4082940000000  0.4351660000000  0.5297220000000 1.0
C      1  0.5036380000000  0.5995180000000  0.5377520000000 1.0
C      1  0.4692340000000  0.5603720000000  0.4894220000000 1.0
C      1  0.4218710000000  0.5687910000000  0.4610870000000 1.0
C      1  0.4340310000000  0.4721020000000  0.5936440000000 1.0
C      1  0.4316790000000  0.4498970000000  0.5761900000000 1.0
C      1  0.4404330000000  0.4796260000000  0.5278820000000 1.0
C      1  0.5338400000000  0.3984370000000  0.5114560000000 1.0
C      1  0.4718750000000  0.5779360000000  0.4308950000000 1.0
C      1  0.4834800000000  0.5648940000000  0.4070670000000 1.0
C      1  0.4992180000000  0.5418640000000  0.5356910000000 1.0
C      1  0.5156770000000  0.6049070000000  0.5903890000000 1.0
C      1  0.5262770000000  0.5970220000000  0.5637150000000 1.0
C      1  0.5368340000000  0.5913150000000  0.5111060000000 1.0
C      1  0.5244790000000  0.4697400000000  0.3820510000000 1.0
C      1  0.5781300000000  0.5536080000000  0.4404250000000 1.0
C      1  0.4873250000000  0.4700320000000  0.5310420000000 1.0
C      1  0.5068620000000  0.5783910000000  0.4657910000000 1.0
C      1  0.4670430000000  0.5152950000000  0.5763650000000 1.0
C      1  0.5723720000000  0.4608760000000  0.5687140000000 1.0
C      1  0.5846850000000  0.4464350000000  0.4486190000000 1.0
C      1  0.4724230000000  0.4729720000000  0.4537820000000 1.0
C      1  0.4785560000000  0.5988190000000  0.5526240000000 1.0
C      1  0.4991600000000  0.4270950000000  0.4912940000000 1.0
C      1  0.5133770000000  0.4927910000000  0.4351950000000 1.0
C      1  0.5658380000000  0.5338480000000  0.5959870000000 1.0
C      1  0.5628350000000  0.5956870000000  0.5248010000000 1.0
C      1  0.5133580000000  0.4745270000000  0.6114020000000 1.0
C      1  0.5135810000000  0.4326990000000  0.5375030000000 1.0
C      1  0.4527420000000  0.6010510000000  0.5407880000000 1.0
C      1  0.4808910000000  0.3807970000000  0.5024490000000 1.0
C      1  0.5536500000000  0.5160150000000  0.4546640000000 1.0
C      1  0.4461000000000  0.5699390000000  0.4263720000000 1.0
C      1  0.5005220000000  0.5346410000000  0.4407700000000 1.0
C      1  0.5079910000000  0.3808750000000  0.5164570000000 1.0
C      1  0.5157080000000  0.4974050000000  0.5227480000000 1.0
C      1  0.5406660000000  0.3933690000000  0.4850080000000 1.0
C      1  0.4979780000000  0.5638060000000  0.4958200000000 1.0
C      1  0.5499290000000  0.4090810000000  0.4492940000000 1.0
C      1  0.5198900000000  0.4748470000000  0.5642210000000 1.0
C      1  0.5093550000000  0.5119500000000  0.3897340000000 1.0
C      1  0.4093790000000  0.4749210000000  0.4430200000000 1.0
C      1  0.4813930000000  0.5191690000000  0.5281600000000 1.0
C      1  0.4560100000000  0.5586040000000  0.5875630000000 1.0
C      1  0.5476210000000  0.5772520000000  0.5701120000000 1.0
C      1  0.4654480000000  0.4111270000000  0.5640720000000 1.0
C      1  0.5333150000000  0.5569210000000  0.3863330000000 1.0
C      1  0.5534970000000  0.4660220000000  0.4776740000000 1.0
C      1  0.5620300000000  0.4839930000000  0.5837700000000 1.0
C      1  0.4893210000000  0.5197270000000  0.6125430000000 1.0
C      1  0.4178840000000  0.5376310000000  0.5693290000000 1.0
C      1  0.4656560000000  0.4741110000000  0.6029010000000 1.0
C      1  0.5005110000000  0.4076240000000  0.4677880000000 1.0
C      1  0.4137540000000  0.5491240000000  0.5093550000000 1.0
C      1  0.5270770000000  0.4329400000000  0.5844190000000 1.0
C      1  0.5068410000000  0.4473330000000  0.6005620000000 1.0
C      1  0.4601800000000  0.4607240000000  0.5361650000000 1.0
C      1  0.5367740000000  0.4355830000000  0.4184720000000 1.0
C      1  0.4246170000000  0.4942680000000  0.4254700000000 1.0
C      1  0.4863900000000  0.4477640000000  0.4052220000000 1.0
C      1  0.4587070000000  0.4543220000000  0.4141620000000 1.0
C      1  0.5418010000000  0.5207810000000  0.5576770000000 1.0
C      1  0.5022660000000  0.5775170000000  0.5910860000000 1.0
C      1  0.4686130000000  0.5327140000000  0.4727850000000 1.0
C      1  0.4139860000000  0.4310690000000  0.4733470000000 1.0
C      1  0.6025250000000  0.4902350000000  0.4699010000000 1.0
C      1  0.5888120000000  0.4865110000000  0.4200120000000 1.0
C      1  0.4327870000000  0.5236750000000  0.4312220000000 1.0
C      1  0.4906580000000  0.4760050000000  0.5588320000000 1.0
C      1  0.6110730000000  0.5072970000000  0.5297200000000 1.0
C      1  0.5139100000000  0.5684740000000  0.4023350000000 1.0
C      1  0.5629130000000  0.5127680000000  0.5760270000000 1.0
C      1  0.4040320000000  0.4400070000000  0.5000130000000 1.0
C      1  0.5196080000000  0.5552090000000  0.4485190000000 1.0
C      1  0.5590420000000  0.5750210000000  0.4344120000000 1.0
C      1  0.4239560000000  0.4790990000000  0.5043160000000 1.0
C      1  0.4565890000000  0.3888470000000  0.5177170000000 1.0
C      1  0.5844870000000  0.5148930000000  0.4152170000000 1.0
C      1  0.5422750000000  0.5412610000000  0.6125880000000 1.0
C      1  0.4478110000000  0.5228240000000  0.4057160000000 1.0
C      1  0.5546920000000  0.4386610000000  0.5758080000000 1.0
C      1  0.4635560000000  0.6024310000000  0.4722300000000 1.0
C      1  0.5578890000000  0.4907320000000  0.5181260000000 1.0
C      1  0.4019600000000  0.4813960000000  0.5569930000000 1.0
C      1  0.4496060000000  0.4832490000000  0.4152910000000 1.0
C      1  0.4961100000000  0.4660840000000  0.3839690000000 1.0
C      1  0.5938530000000  0.4746340000000  0.4464340000000 1.0
C      1  0.5897260000000  0.5454930000000  0.4659180000000 1.0
C      1  0.4870280000000  0.4951090000000  0.3797710000000 1.0
C      1  0.4250900000000  0.5208310000000  0.4816150000000 1.0
C      1  0.4624880000000  0.5292680000000  0.5484970000000 1.0
C      1  0.4340670000000  0.5925420000000  0.5008520000000 1.0
C      1  0.5170570000000  0.5363110000000  0.4874460000000 1.0
C      1  0.5773010000000  0.5396520000000  0.5123790000000 1.0
C      1  0.5259740000000  0.6011280000000  0.4663950000000 1.0
C      1  0.5918250000000  0.5862770000000  0.5160350000000 1.0
C      1  0.4612830000000  0.5229910000000  0.4449450000000 1.0
C      1  0.5616590000000  0.4965590000000  0.3821760000000 1.0
C      1  0.4416550000000  0.4382890000000  0.4317280000000 1.0
C      1  0.5325390000000  0.4965320000000  0.3769530000000 1.0
C      1  0.5442580000000  0.4635250000000  0.4065610000000 1.0
C      1  0.4398620000000  0.4688200000000  0.4875450000000 1.0
END
