TITL C-4164241-3639-145 -0.458215076291743 125000 -3628.51402042479 0 0 26 (C1) n - 1
REM
REM in /home/nfs/bkarasulu/CARBON/AIRSS/Generating-Clusters/ReaxFF-fromJPCA2015/Units_Real/with-SteepDescent/Only-C1/SD-CG/Try1-3A/FIRE-CG
REM
REM
REM
REM
REM
REM ./C.cell (11c1c37f851c82e70ff6c80c92926a4b)
REM
REM compiler GCC version 9.2.1 20190827 (Red Hat 9.2.1-1)
REM options -cpp -mtune=generic -march=x86-64 -g -O0 -fpre-include=/usr/include/finclude/math-vector-fortran.h
REM seed -82363657 -867449847 138871120 1639737360 -132958757 962603017 -1517139525 -687309158 -651704581 1870502656 -1803129758 -1774549417 -643608611 -1858711146 -1850378980 1061728287 -357992721 930322313 -2082626334 1240113226 -759974611 -1238211350 -229429450 -1943903139 -1273431426 -2097765796 -719696240 310661896 -610962636 -2111161639 -404756311 -342080319 -1958785427
REM
CELL 1.54180   50.00000   50.00000   50.00000   90.00000   90.00000   90.00000
LATT -1
SFAC C  
C      1  0.4846190000000  0.5636720000000  0.5008460000000 1.0
C      1  0.5352480000000  0.4598350000000  0.5027390000000 1.0
C      1  0.5368050000000  0.4879620000000  0.5447080000000 1.0
C      1  0.5280360000000  0.4558090000000  0.4762920000000 1.0
C      1  0.4657370000000  0.4896630000000  0.5122090000000 1.0
C      1  0.5180840000000  0.5404060000000  0.4929540000000 1.0
C      1  0.5335290000000  0.5035660000000  0.4787380000000 1.0
C      1  0.4805440000000  0.4891960000000  0.5431380000000 1.0
C      1  0.5270560000000  0.4831830000000  0.4622610000000 1.0
C      1  0.4820120000000  0.5168300000000  0.5556220000000 1.0
C      1  0.4689950000000  0.5477000000000  0.4833010000000 1.0
C      1  0.4378520000000  0.5088550000000  0.5046770000000 1.0
C      1  0.4796140000000  0.4711670000000  0.4424500000000 1.0
C      1  0.5081570000000  0.4840690000000  0.5445560000000 1.0
C      1  0.4780090000000  0.4552930000000  0.4702370000000 1.0
C      1  0.4945640000000  0.5279730000000  0.5300210000000 1.0
C      1  0.5055680000000  0.5536390000000  0.5168020000000 1.0
C      1  0.5413920000000  0.5213720000000  0.4983330000000 1.0
C      1  0.4926990000000  0.5278200000000  0.4834170000000 1.0
C      1  0.5044430000000  0.4853360000000  0.4410830000000 1.0
C      1  0.5401910000000  0.4663440000000  0.5261820000000 1.0
C      1  0.4716880000000  0.4715820000000  0.4914330000000 1.0
C      1  0.5032450000000  0.4392480000000  0.4731830000000 1.0
C      1  0.4481580000000  0.5303540000000  0.4926930000000 1.0
C      1  0.5461550000000  0.5077030000000  0.5245350000000 1.0
C      1  0.4876010000000  0.5114230000000  0.5075900000000 1.0
END
