TITL C-4164242-3624-418 -2.81829221082973e-07 125000 -1569.44262663447 0 0 12 (Cs) n - 1
REM
REM in /home/nfs/bkarasulu/CARBON/AIRSS/Generating-Clusters/ReaxFF-fromJPCA2015/Units_Real/with-SteepDescent/Only-C1/SD-CG/Try1-3A/FIRE-CG
REM
REM
REM
REM
REM
REM ./C.cell (11c1c37f851c82e70ff6c80c92926a4b)
REM
REM compiler GCC version 9.2.1 20190827 (Red Hat 9.2.1-1)
REM options -cpp -mtune=generic -march=x86-64 -g -O0 -fpre-include=/usr/include/finclude/math-vector-fortran.h
REM seed 722016840 -56897016 221525714 1380255743 2126093058 209138588 -654596989 -2020558182 144744849 -1951061506 1913967933 701834010 -1657362320 -1842196970 -119709913 2132877999 1837871039 -248422321 2025834399 -1495668903 270848429 -493623036 1757108072 515039798 -1921459963 -731283312 -202718853 -1770650905 -144667417 -640372396 -1526132717 -335277244 2134810263
REM
CELL 1.54180   50.00000   50.00000   50.00000   90.00000   90.00000   90.00000
LATT -1
SFAC C  
C      1  0.5278400000000  0.5025700000000  0.4804200000000 1.0
C      1  0.5116220000000  0.5092760000000  0.5397680000000 1.0
C      1  0.5009100000000  0.4953420000000  0.4716430000000 1.0
C      1  0.4845010000000  0.5035700000000  0.5401300000000 1.0
C      1  0.4431130000000  0.4847170000000  0.4813780000000 1.0
C      1  0.4363280000000  0.4883050000000  0.5107820000000 1.0
C      1  0.5667940000000  0.5120640000000  0.4874940000000 1.0
C      1  0.5453370000000  0.5100090000000  0.5021500000000 1.0
C      1  0.5372510000000  0.5140100000000  0.5355810000000 1.0
C      1  0.4664180000000  0.4954430000000  0.5151020000000 1.0
C      1  0.4720390000000  0.4921800000000  0.4890490000000 1.0
C      1  0.5078460000000  0.4925150000000  0.4465020000000 1.0
END
