TITL C-4164239-2837-67 70.2378571436286 125000 -24509.3421252275 0 0 166 (C1) n - 1
REM
REM in /home/nfs/bkarasulu/CARBON/AIRSS/Generating-Clusters/ReaxFF-fromJPCA2015/Units_Real/with-SteepDescent/Only-C1/SD-CG/Try1-3A/FIRE-CG
REM
REM
REM
REM
REM
REM ./C.cell (11c1c37f851c82e70ff6c80c92926a4b)
REM
REM compiler GCC version 9.2.1 20190827 (Red Hat 9.2.1-1)
REM options -cpp -mtune=generic -march=x86-64 -g -O0 -fpre-include=/usr/include/finclude/math-vector-fortran.h
REM seed 1626781856 -1215933019 -1811511997 -520696240 -1053389497 -310790576 -2130745338 1646361847 33616968 558899185 602144163 -148725595 1443065432 -1179260777 -101571678 -625602061 -89993946 1957650173 1591328378 1872429877 761043734 -349296274 786655496 -921457494 1681397612 782494539 16011165 1859498796 1809299752 789767396 238595583 -1346825742 1564731685
REM
CELL 1.54180   50.00000   50.00000   50.00000   90.00000   90.00000   90.00000
LATT -1
SFAC C  
C      1  0.5265450000000  0.4625850000000  0.5344620000000 1.0
C      1  0.4656650000000  0.4581030000000  0.5923170000000 1.0
C      1  0.5649930000000  0.5076750000000  0.4788870000000 1.0
C      1  0.4789210000000  0.5517370000000  0.4258570000000 1.0
C      1  0.5652490000000  0.5457480000000  0.5612580000000 1.0
C      1  0.4435130000000  0.4754920000000  0.5477460000000 1.0
C      1  0.5423950000000  0.5331570000000  0.5770410000000 1.0
C      1  0.5459980000000  0.5043200000000  0.5897000000000 1.0
C      1  0.5148560000000  0.4448280000000  0.4051110000000 1.0
C      1  0.4611490000000  0.4299210000000  0.4776470000000 1.0
C      1  0.4755300000000  0.5312800000000  0.5185620000000 1.0
C      1  0.4967660000000  0.4633960000000  0.3936170000000 1.0
C      1  0.4599430000000  0.4878380000000  0.5113700000000 1.0
C      1  0.4325290000000  0.5861190000000  0.5093670000000 1.0
C      1  0.4927110000000  0.4974920000000  0.4585170000000 1.0
C      1  0.6115310000000  0.5165500000000  0.4572540000000 1.0
C      1  0.4782250000000  0.5363320000000  0.3868670000000 1.0
C      1  0.5200260000000  0.4231450000000  0.5580630000000 1.0
C      1  0.5576140000000  0.5789290000000  0.5158800000000 1.0
C      1  0.5201770000000  0.4357280000000  0.5304820000000 1.0
C      1  0.5054890000000  0.4324920000000  0.5825990000000 1.0
C      1  0.3902800000000  0.5303610000000  0.4939950000000 1.0
C      1  0.4700320000000  0.5403730000000  0.4480590000000 1.0
C      1  0.4145570000000  0.5262490000000  0.4339030000000 1.0
C      1  0.4630020000000  0.5087120000000  0.5303300000000 1.0
C      1  0.5794980000000  0.5141490000000  0.4116740000000 1.0
C      1  0.4642610000000  0.5084690000000  0.4463170000000 1.0
C      1  0.3911320000000  0.4829670000000  0.5000900000000 1.0
C      1  0.5447760000000  0.5763670000000  0.5921000000000 1.0
C      1  0.5489030000000  0.4643350000000  0.4918780000000 1.0
C      1  0.4164310000000  0.5687340000000  0.4656050000000 1.0
C      1  0.5158620000000  0.4751550000000  0.6160960000000 1.0
C      1  0.5341470000000  0.4921230000000  0.6119070000000 1.0
C      1  0.4959390000000  0.5563360000000  0.5750530000000 1.0
C      1  0.4681920000000  0.5923650000000  0.5509160000000 1.0
C      1  0.5174290000000  0.5007800000000  0.5223240000000 1.0
C      1  0.5613880000000  0.4931060000000  0.4540890000000 1.0
C      1  0.4031880000000  0.5527250000000  0.5337930000000 1.0
C      1  0.5468920000000  0.5472440000000  0.4640910000000 1.0
C      1  0.5126870000000  0.5783680000000  0.4000080000000 1.0
C      1  0.5808310000000  0.4723840000000  0.4421750000000 1.0
C      1  0.4570710000000  0.5383470000000  0.4965460000000 1.0
C      1  0.5356720000000  0.5722490000000  0.4149030000000 1.0
C      1  0.4071410000000  0.5716150000000  0.5119030000000 1.0
C      1  0.4679000000000  0.4115540000000  0.5224300000000 1.0
C      1  0.5170960000000  0.5487690000000  0.5312500000000 1.0
C      1  0.5940090000000  0.5276700000000  0.4327470000000 1.0
C      1  0.4442960000000  0.5110460000000  0.5884200000000 1.0
C      1  0.5374100000000  0.5496500000000  0.6027800000000 1.0
C      1  0.4832040000000  0.4161830000000  0.5758710000000 1.0
C      1  0.4358840000000  0.5884750000000  0.4807640000000 1.0
C      1  0.5829320000000  0.4655600000000  0.5440610000000 1.0
C      1  0.5325030000000  0.4263930000000  0.4166910000000 1.0
C      1  0.4409200000000  0.5018390000000  0.4641480000000 1.0
C      1  0.5765760000000  0.4203860000000  0.5400570000000 1.0
C      1  0.4642760000000  0.4943330000000  0.5550040000000 1.0
C      1  0.4851130000000  0.3899950000000  0.5116350000000 1.0
C      1  0.5792050000000  0.4143140000000  0.5136340000000 1.0
C      1  0.4026680000000  0.4485470000000  0.4640110000000 1.0
C      1  0.5542400000000  0.5914010000000  0.4917540000000 1.0
C      1  0.4915490000000  0.4846380000000  0.5574190000000 1.0
C      1  0.4912950000000  0.5523460000000  0.6044500000000 1.0
C      1  0.4324070000000  0.4162960000000  0.4362580000000 1.0
C      1  0.4150240000000  0.4216730000000  0.4598740000000 1.0
C      1  0.5062250000000  0.3928470000000  0.4909680000000 1.0
C      1  0.4342750000000  0.5277360000000  0.5659270000000 1.0
C      1  0.4188100000000  0.5508930000000  0.4447380000000 1.0
C      1  0.5003640000000  0.5157660000000  0.5064150000000 1.0
C      1  0.4547020000000  0.4495910000000  0.4203010000000 1.0
C      1  0.5458260000000  0.5882100000000  0.5402270000000 1.0
C      1  0.5065810000000  0.3857730000000  0.5318180000000 1.0
C      1  0.5505690000000  0.4130260000000  0.5091530000000 1.0
C      1  0.4987890000000  0.5170350000000  0.3745690000000 1.0
C      1  0.5345970000000  0.5981720000000  0.4743540000000 1.0
C      1  0.5693220000000  0.5365010000000  0.4815890000000 1.0
C      1  0.5021030000000  0.5997630000000  0.5196670000000 1.0
C      1  0.3999340000000  0.5578300000000  0.4871160000000 1.0
C      1  0.4336750000000  0.5295520000000  0.4140920000000 1.0
C      1  0.5845220000000  0.5715410000000  0.4559370000000 1.0
C      1  0.3947870000000  0.5048960000000  0.4813530000000 1.0
C      1  0.5050950000000  0.4586470000000  0.4855970000000 1.0
C      1  0.4424260000000  0.4121840000000  0.5361310000000 1.0
C      1  0.5067800000000  0.5914080000000  0.4736140000000 1.0
C      1  0.5772360000000  0.5356620000000  0.5369910000000 1.0
C      1  0.4591100000000  0.4354600000000  0.5757360000000 1.0
C      1  0.4846480000000  0.4702470000000  0.4696500000000 1.0
C      1  0.6069440000000  0.5006180000000  0.4804270000000 1.0
C      1  0.5142290000000  0.4925180000000  0.4357360000000 1.0
C      1  0.5783380000000  0.4420210000000  0.4477900000000 1.0
C      1  0.5619920000000  0.4891460000000  0.5007560000000 1.0
C      1  0.5461500000000  0.4354760000000  0.4903760000000 1.0
C      1  0.4251450000000  0.4583700000000  0.5870570000000 1.0
C      1  0.5273410000000  0.3923850000000  0.5100080000000 1.0
C      1  0.5340860000000  0.5404240000000  0.5097600000000 1.0
C      1  0.4987340000000  0.4610110000000  0.5969370000000 1.0
C      1  0.5814220000000  0.5538440000000  0.4336440000000 1.0
C      1  0.4770100000000  0.4175350000000  0.4547720000000 1.0
C      1  0.5935040000000  0.4384730000000  0.5004770000000 1.0
C      1  0.4438390000000  0.4778150000000  0.5940580000000 1.0
C      1  0.4879230000000  0.5257590000000  0.6174790000000 1.0
C      1  0.3918630000000  0.5288790000000  0.5235400000000 1.0
C      1  0.5026150000000  0.3997790000000  0.5570680000000 1.0
C      1  0.5088610000000  0.4802200000000  0.5768440000000 1.0
C      1  0.5867910000000  0.4403680000000  0.4735140000000 1.0
C      1  0.5855120000000  0.4883340000000  0.4209560000000 1.0
C      1  0.4693850000000  0.5685460000000  0.5682410000000 1.0
C      1  0.5452210000000  0.4976740000000  0.5241510000000 1.0
C      1  0.5265490000000  0.4755540000000  0.4801930000000 1.0
C      1  0.5263790000000  0.5357900000000  0.4814280000000 1.0
C      1  0.4509090000000  0.5470350000000  0.5671570000000 1.0
C      1  0.5959620000000  0.4920300000000  0.5549370000000 1.0
C      1  0.5367400000000  0.4835120000000  0.5721140000000 1.0
C      1  0.4754490000000  0.4375240000000  0.5083340000000 1.0
C      1  0.5494570000000  0.4772380000000  0.5454550000000 1.0
C      1  0.5502420000000  0.5245110000000  0.4120680000000 1.0
C      1  0.5214130000000  0.6043400000000  0.5391780000000 1.0
C      1  0.4861400000000  0.6120260000000  0.4846570000000 1.0
C      1  0.4119130000000  0.5002560000000  0.4557320000000 1.0
C      1  0.5139040000000  0.5427610000000  0.6188210000000 1.0
C      1  0.4723810000000  0.5517740000000  0.4752840000000 1.0
C      1  0.5167110000000  0.5448000000000  0.5593640000000 1.0
C      1  0.4660020000000  0.5188250000000  0.6026190000000 1.0
C      1  0.5631540000000  0.5490210000000  0.5127810000000 1.0
C      1  0.4332150000000  0.4157520000000  0.4825380000000 1.0
C      1  0.5041230000000  0.4375860000000  0.5056380000000 1.0
C      1  0.4405100000000  0.5002340000000  0.4929860000000 1.0
C      1  0.4951060000000  0.5671000000000  0.4840260000000 1.0
C      1  0.5340770000000  0.4823810000000  0.4540110000000 1.0
C      1  0.5821680000000  0.4371530000000  0.5613660000000 1.0
C      1  0.5126530000000  0.4130770000000  0.4325630000000 1.0
C      1  0.5557420000000  0.5734790000000  0.5639600000000 1.0
C      1  0.4753250000000  0.5596670000000  0.5254720000000 1.0
C      1  0.4368570000000  0.4339130000000  0.5557230000000 1.0
C      1  0.5000630000000  0.4893990000000  0.3828550000000 1.0
C      1  0.5053920000000  0.4087330000000  0.4604490000000 1.0
C      1  0.4245630000000  0.4582970000000  0.5411210000000 1.0
C      1  0.4704470000000  0.4708960000000  0.4084790000000 1.0
C      1  0.4073610000000  0.4635530000000  0.5152370000000 1.0
C      1  0.4622760000000  0.4978860000000  0.4169280000000 1.0
C      1  0.4138660000000  0.4700710000000  0.4484740000000 1.0
C      1  0.4867190000000  0.5599110000000  0.4018180000000 1.0
C      1  0.4592250000000  0.4580480000000  0.4669520000000 1.0
C      1  0.6229690000000  0.5408760000000  0.4720340000000 1.0
C      1  0.4265830000000  0.4092520000000  0.5102110000000 1.0
C      1  0.5307650000000  0.5091890000000  0.4220140000000 1.0
C      1  0.5512430000000  0.5498280000000  0.4295020000000 1.0
C      1  0.5098160000000  0.5116900000000  0.4798130000000 1.0
C      1  0.5951550000000  0.4630290000000  0.5171910000000 1.0
C      1  0.5965080000000  0.4911550000000  0.5071790000000 1.0
C      1  0.4588600000000  0.6041110000000  0.4737410000000 1.0
C      1  0.5929230000000  0.5113300000000  0.5336490000000 1.0
C      1  0.4759900000000  0.4655570000000  0.5169710000000 1.0
C      1  0.4415520000000  0.4623000000000  0.4437130000000 1.0
C      1  0.4984800000000  0.5706850000000  0.5143530000000 1.0
C      1  0.5008420000000  0.4761160000000  0.5320430000000 1.0
C      1  0.4204110000000  0.5270530000000  0.5343380000000 1.0
C      1  0.4545440000000  0.5794710000000  0.5284950000000 1.0
C      1  0.5355570000000  0.4258310000000  0.4648190000000 1.0
C      1  0.5959480000000  0.5536040000000  0.4752510000000 1.0
C      1  0.5510010000000  0.4300080000000  0.4427490000000 1.0
C      1  0.4612310000000  0.4216980000000  0.4302560000000 1.0
C      1  0.4552990000000  0.5200500000000  0.3985820000000 1.0
C      1  0.4929510000000  0.6066100000000  0.5451720000000 1.0
C      1  0.4341290000000  0.5247910000000  0.5065720000000 1.0
C      1  0.5554940000000  0.5779470000000  0.4657500000000 1.0
C      1  0.3938350000000  0.4543030000000  0.4917310000000 1.0
END
