TITL C-4164241-3639-174 -7.28192970082565 125000 -12683.2450466956 0 0 86 (C1) n - 1
REM
REM in /home/nfs/bkarasulu/CARBON/AIRSS/Generating-Clusters/ReaxFF-fromJPCA2015/Units_Real/with-SteepDescent/Only-C1/SD-CG/Try1-3A/FIRE-CG
REM
REM
REM
REM
REM
REM ./C.cell (11c1c37f851c82e70ff6c80c92926a4b)
REM
REM compiler GCC version 9.2.1 20190827 (Red Hat 9.2.1-1)
REM options -cpp -mtune=generic -march=x86-64 -g -O0 -fpre-include=/usr/include/finclude/math-vector-fortran.h
REM seed -1910420802 504842103 -1768329574 -1197910759 -709887195 103565458 -1145928139 551833815 -720574162 1308627977 924271169 -1707233899 -47795230 -749818768 883789388 1973350225 -161867597 -399490622 848083279 -828777019 -1259864246 -1439897789 1880167644 -1247628143 1116739158 1016905310 1075196095 1230364973 514284042 -1947900685 660815791 -581022334 -970612062
REM
CELL 1.54180   50.00000   50.00000   50.00000   90.00000   90.00000   90.00000
LATT -1
SFAC C  
C      1  0.4993520000000  0.4540720000000  0.5710670000000 1.0
C      1  0.5523420000000  0.4814160000000  0.5573240000000 1.0
C      1  0.4778930000000  0.5010380000000  0.5135160000000 1.0
C      1  0.4582630000000  0.5450430000000  0.4534840000000 1.0
C      1  0.4712400000000  0.4518940000000  0.5566950000000 1.0
C      1  0.4502670000000  0.4761560000000  0.5583130000000 1.0
C      1  0.4717000000000  0.5258410000000  0.5543820000000 1.0
C      1  0.5337020000000  0.5600590000000  0.4546030000000 1.0
C      1  0.5224120000000  0.4759180000000  0.5012570000000 1.0
C      1  0.5402530000000  0.5606830000000  0.5316360000000 1.0
C      1  0.4979070000000  0.4949720000000  0.4595570000000 1.0
C      1  0.4953690000000  0.5252790000000  0.4862030000000 1.0
C      1  0.5296320000000  0.5709810000000  0.5065910000000 1.0
C      1  0.5449670000000  0.4529780000000  0.5534440000000 1.0
C      1  0.4619100000000  0.4332340000000  0.5327000000000 1.0
C      1  0.5475400000000  0.4866980000000  0.4407230000000 1.0
C      1  0.4192670000000  0.4916760000000  0.5200120000000 1.0
C      1  0.5008520000000  0.5850510000000  0.5347870000000 1.0
C      1  0.4606640000000  0.5013950000000  0.5567530000000 1.0
C      1  0.5659870000000  0.5498870000000  0.5322170000000 1.0
C      1  0.5367840000000  0.5500300000000  0.4813620000000 1.0
C      1  0.5080920000000  0.4230800000000  0.5314350000000 1.0
C      1  0.4279070000000  0.5181490000000  0.5227590000000 1.0
C      1  0.4382030000000  0.5436210000000  0.5250130000000 1.0
C      1  0.5373370000000  0.5427710000000  0.4320820000000 1.0
C      1  0.5675460000000  0.4992850000000  0.5390540000000 1.0
C      1  0.5623700000000  0.5586700000000  0.4835570000000 1.0
C      1  0.4496730000000  0.4925930000000  0.4472100000000 1.0
C      1  0.4538190000000  0.5222390000000  0.4356310000000 1.0
C      1  0.4798510000000  0.5641140000000  0.4938520000000 1.0
C      1  0.4669630000000  0.4633720000000  0.4851680000000 1.0
C      1  0.5356890000000  0.4401780000000  0.4664410000000 1.0
C      1  0.5110310000000  0.5442090000000  0.4242840000000 1.0
C      1  0.4910860000000  0.4358830000000  0.4548790000000 1.0
C      1  0.5179530000000  0.4472110000000  0.4909780000000 1.0
C      1  0.4306840000000  0.5329550000000  0.4205040000000 1.0
C      1  0.5210550000000  0.5467070000000  0.5523820000000 1.0
C      1  0.5811600000000  0.4633290000000  0.4615850000000 1.0
C      1  0.5631480000000  0.5265030000000  0.5491380000000 1.0
C      1  0.5333340000000  0.4980260000000  0.5726200000000 1.0
C      1  0.5610420000000  0.4502060000000  0.5295510000000 1.0
C      1  0.5384330000000  0.5257320000000  0.5651040000000 1.0
C      1  0.4722130000000  0.4852120000000  0.4648390000000 1.0
C      1  0.4207030000000  0.4790540000000  0.4919920000000 1.0
C      1  0.4860930000000  0.4647290000000  0.5340580000000 1.0
C      1  0.5400700000000  0.5205080000000  0.4823830000000 1.0
C      1  0.5700360000000  0.4906020000000  0.4584240000000 1.0
C      1  0.4302970000000  0.4706570000000  0.5378360000000 1.0
C      1  0.5047220000000  0.5041140000000  0.5241010000000 1.0
C      1  0.4839280000000  0.4262820000000  0.5154320000000 1.0
C      1  0.5153930000000  0.5020690000000  0.4818340000000 1.0
C      1  0.5083630000000  0.4957150000000  0.4341480000000 1.0
C      1  0.4808050000000  0.5601540000000  0.4635570000000 1.0
C      1  0.4237510000000  0.4951320000000  0.4680290000000 1.0
C      1  0.5174020000000  0.4446360000000  0.4450950000000 1.0
C      1  0.5651700000000  0.5067240000000  0.4842520000000 1.0
C      1  0.5184050000000  0.4398440000000  0.5548230000000 1.0
C      1  0.5010400000000  0.5713110000000  0.5592680000000 1.0
C      1  0.5627940000000  0.4496710000000  0.4641310000000 1.0
C      1  0.4743080000000  0.4747700000000  0.5110080000000 1.0
C      1  0.4672290000000  0.5203450000000  0.4939210000000 1.0
C      1  0.4211380000000  0.5221010000000  0.4694700000000 1.0
C      1  0.4142380000000  0.5495740000000  0.4400640000000 1.0
C      1  0.4308840000000  0.5482780000000  0.4666450000000 1.0
C      1  0.4549710000000  0.4664760000000  0.4343490000000 1.0
C      1  0.4539480000000  0.5459080000000  0.4999150000000 1.0
C      1  0.4884760000000  0.4393650000000  0.4852910000000 1.0
C      1  0.4381050000000  0.4471910000000  0.5216970000000 1.0
C      1  0.5037650000000  0.4836040000000  0.5437530000000 1.0
C      1  0.5248980000000  0.4183210000000  0.5082180000000 1.0
C      1  0.4988500000000  0.5313550000000  0.5343810000000 1.0
C      1  0.4531810000000  0.5486130000000  0.5520220000000 1.0
C      1  0.4982300000000  0.5440520000000  0.5068940000000 1.0
C      1  0.5636040000000  0.4235230000000  0.5189820000000 1.0
C      1  0.5254170000000  0.4711920000000  0.4324980000000 1.0
C      1  0.5250950000000  0.5179220000000  0.4250820000000 1.0
C      1  0.4378460000000  0.4564210000000  0.4942920000000 1.0
C      1  0.5494330000000  0.4715420000000  0.5101050000000 1.0
C      1  0.4705050000000  0.4476540000000  0.4396440000000 1.0
C      1  0.5083590000000  0.4820470000000  0.5725700000000 1.0
C      1  0.5045180000000  0.5615400000000  0.4471600000000 1.0
C      1  0.5804260000000  0.5566830000000  0.5035560000000 1.0
C      1  0.4730910000000  0.5673170000000  0.5580810000000 1.0
C      1  0.5688980000000  0.4937190000000  0.5101750000000 1.0
C      1  0.5510980000000  0.4066230000000  0.5092930000000 1.0
C      1  0.5036220000000  0.5843120000000  0.5068810000000 1.0
END
