TITL C-4164232-771-724 29.5176487798409 125000 -13180.0325931089 0 0 91 (C1) n - 1
REM
REM in /home/nfs/bkarasulu/CARBON/AIRSS/Generating-Clusters/ReaxFF-fromJPCA2015/Units_Real/with-SteepDescent/Only-C1/SD-CG/Try1-3A/FIRE-CG
REM
REM
REM
REM
REM
REM ./C.cell (11c1c37f851c82e70ff6c80c92926a4b)
REM
REM compiler GCC version 9.2.1 20190827 (Red Hat 9.2.1-1)
REM options -cpp -mtune=generic -march=x86-64 -g -O0 -fpre-include=/usr/include/finclude/math-vector-fortran.h
REM seed 884591582 -1804911981 -715368037 723848043 965764334 -1033283324 1819718765 1025776191 1115069480 352581272 -176040016 1471403764 1747163766 -1030013666 -132467949 398469334 1372784776 1437325603 727272672 -1757438095 -126020160 -1564122423 -1099148048 -2127888237 937442788 -649764272 -1676262992 -1990826098 -612935750 929736213 -1580621008 1264120136 -1684908878
REM
CELL 1.54180   50.00000   50.00000   50.00000   90.00000   90.00000   90.00000
LATT -1
SFAC C  
C      1  0.4817390000000  0.5458740000000  0.5474890000000 1.0
C      1  0.4800850000000  0.4282860000000  0.5390180000000 1.0
C      1  0.4540750000000  0.4379820000000  0.5296790000000 1.0
C      1  0.4737000000000  0.5759710000000  0.5379970000000 1.0
C      1  0.5729650000000  0.4933080000000  0.4617540000000 1.0
C      1  0.5135380000000  0.5753540000000  0.4790150000000 1.0
C      1  0.4409970000000  0.5114380000000  0.4268500000000 1.0
C      1  0.4166430000000  0.4891730000000  0.4857320000000 1.0
C      1  0.5710480000000  0.4642030000000  0.4616510000000 1.0
C      1  0.4771740000000  0.4934970000000  0.4873690000000 1.0
C      1  0.4177820000000  0.5384140000000  0.4988900000000 1.0
C      1  0.5791420000000  0.5323520000000  0.4736700000000 1.0
C      1  0.5305130000000  0.4440020000000  0.5033840000000 1.0
C      1  0.4225360000000  0.4725630000000  0.5306340000000 1.0
C      1  0.5461340000000  0.4461060000000  0.5556910000000 1.0
C      1  0.5351910000000  0.5202020000000  0.5112490000000 1.0
C      1  0.4584860000000  0.4530950000000  0.4368030000000 1.0
C      1  0.4967430000000  0.4223870000000  0.4762280000000 1.0
C      1  0.4565280000000  0.4747940000000  0.4575240000000 1.0
C      1  0.4777870000000  0.4551580000000  0.5797220000000 1.0
C      1  0.5825750000000  0.5008060000000  0.5141410000000 1.0
C      1  0.4986370000000  0.5879450000000  0.5326800000000 1.0
C      1  0.4261140000000  0.4665270000000  0.5018210000000 1.0
C      1  0.5589300000000  0.5458510000000  0.5321080000000 1.0
C      1  0.5094150000000  0.5205460000000  0.4212010000000 1.0
C      1  0.5118790000000  0.5482620000000  0.4344840000000 1.0
C      1  0.5509930000000  0.4635880000000  0.4418440000000 1.0
C      1  0.5021780000000  0.5931960000000  0.5009580000000 1.0
C      1  0.5264460000000  0.4278090000000  0.4806850000000 1.0
C      1  0.5259660000000  0.5118400000000  0.4718490000000 1.0
C      1  0.5435640000000  0.4706090000000  0.4990270000000 1.0
C      1  0.4667880000000  0.5508830000000  0.4581610000000 1.0
C      1  0.4374340000000  0.4536860000000  0.5477470000000 1.0
C      1  0.4497280000000  0.4621190000000  0.5730820000000 1.0
C      1  0.5577140000000  0.4333310000000  0.5074050000000 1.0
C      1  0.4682920000000  0.5121450000000  0.4199680000000 1.0
C      1  0.5461520000000  0.5468960000000  0.5057520000000 1.0
C      1  0.5852010000000  0.5073580000000  0.4846090000000 1.0
C      1  0.4853160000000  0.6044580000000  0.4843290000000 1.0
C      1  0.5713250000000  0.4784310000000  0.5302370000000 1.0
C      1  0.4346060000000  0.4847910000000  0.4417370000000 1.0
C      1  0.4302880000000  0.5615920000000  0.5032910000000 1.0
C      1  0.5330160000000  0.4734570000000  0.4237970000000 1.0
C      1  0.5189750000000  0.4357810000000  0.5528520000000 1.0
C      1  0.5737000000000  0.5197060000000  0.5347740000000 1.0
C      1  0.5111510000000  0.5508540000000  0.5589260000000 1.0
C      1  0.5470650000000  0.4655500000000  0.5772380000000 1.0
C      1  0.4446320000000  0.5375430000000  0.4420800000000 1.0
C      1  0.4729650000000  0.5344670000000  0.5220130000000 1.0
C      1  0.5472810000000  0.4941900000000  0.5734500000000 1.0
C      1  0.4155950000000  0.5114260000000  0.5065940000000 1.0
C      1  0.5667490000000  0.4561760000000  0.4908810000000 1.0
C      1  0.4235690000000  0.5010310000000  0.5331040000000 1.0
C      1  0.4862270000000  0.5193380000000  0.5004220000000 1.0
C      1  0.4581520000000  0.5315810000000  0.5638020000000 1.0
C      1  0.5408120000000  0.5663030000000  0.4833310000000 1.0
C      1  0.5356580000000  0.5646250000000  0.4343850000000 1.0
C      1  0.4404520000000  0.5104950000000  0.5572220000000 1.0
C      1  0.5388460000000  0.5542630000000  0.5525290000000 1.0
C      1  0.4639940000000  0.4273220000000  0.4505180000000 1.0
C      1  0.4556120000000  0.4908500000000  0.5751150000000 1.0
C      1  0.5119850000000  0.4405990000000  0.4592660000000 1.0
C      1  0.4491120000000  0.5762920000000  0.5235330000000 1.0
C      1  0.4732150000000  0.4978240000000  0.4606500000000 1.0
C      1  0.5189670000000  0.5771820000000  0.5506260000000 1.0
C      1  0.5242790000000  0.4818750000000  0.5829520000000 1.0
C      1  0.4759710000000  0.4697010000000  0.5027310000000 1.0
C      1  0.4519070000000  0.4530370000000  0.5044550000000 1.0
C      1  0.4205450000000  0.4931710000000  0.4582630000000 1.0
C      1  0.5552550000000  0.5618350000000  0.4581450000000 1.0
C      1  0.5349350000000  0.4968580000000  0.4939000000000 1.0
C      1  0.4946540000000  0.4685860000000  0.5235530000000 1.0
C      1  0.4477550000000  0.5475010000000  0.5240650000000 1.0
C      1  0.5628760000000  0.4503300000000  0.5316870000000 1.0
C      1  0.5642250000000  0.5367210000000  0.4526130000000 1.0
C      1  0.5076150000000  0.4933520000000  0.5649710000000 1.0
C      1  0.4905860000000  0.5013150000000  0.4315750000000 1.0
C      1  0.5480990000000  0.5108910000000  0.4503010000000 1.0
C      1  0.4842890000000  0.4546880000000  0.4209270000000 1.0
C      1  0.5050530000000  0.4910110000000  0.5361240000000 1.0
C      1  0.4976560000000  0.5521940000000  0.4628880000000 1.0
C      1  0.5046760000000  0.4425090000000  0.5270370000000 1.0
C      1  0.4576290000000  0.5255700000000  0.4647370000000 1.0
C      1  0.4920710000000  0.4340940000000  0.5650310000000 1.0
C      1  0.5114830000000  0.4518550000000  0.4315390000000 1.0
C      1  0.5636980000000  0.4972300000000  0.5505760000000 1.0
C      1  0.5323490000000  0.5030420000000  0.4251820000000 1.0
C      1  0.4842260000000  0.4841150000000  0.5791310000000 1.0
C      1  0.5064730000000  0.5291970000000  0.4810800000000 1.0
C      1  0.5079140000000  0.5147040000000  0.5186600000000 1.0
C      1  0.4737010000000  0.4109330000000  0.4633030000000 1.0
END
