TITL C-4164236-1577-601 9.19344321653986 125000 -25333.4466745215 0 0 170 (C1) n - 1
REM
REM in /home/nfs/bkarasulu/CARBON/AIRSS/Generating-Clusters/ReaxFF-fromJPCA2015/Units_Real/with-SteepDescent/Only-C1/SD-CG/Try1-3A/FIRE-CG
REM
REM
REM
REM
REM
REM ./C.cell (11c1c37f851c82e70ff6c80c92926a4b)
REM
REM compiler GCC version 9.2.1 20190827 (Red Hat 9.2.1-1)
REM options -cpp -mtune=generic -march=x86-64 -g -O0 -fpre-include=/usr/include/finclude/math-vector-fortran.h
REM seed 1922085286 -264767626 229728400 -1250126846 -1225643681 176492183 1540119893 -299220644 -1734296421 -1067095455 126775942 1891153186 -1304093298 -1971889525 286269922 -1240829597 650887911 -1242972720 688778883 1122404798 275674759 165327144 -1246812719 1698568057 534811391 -1828273748 -2143873222 1198989079 1786477548 2029077709 2133960817 738382811 1907546409
REM
CELL 1.54180   50.00000   50.00000   50.00000   90.00000   90.00000   90.00000
LATT -1
SFAC C  
C      1  0.5273650000000  0.3856910000000  0.5042830000000 1.0
C      1  0.4944770000000  0.5983280000000  0.4851250000000 1.0
C      1  0.5004580000000  0.5083030000000  0.4007830000000 1.0
C      1  0.4444080000000  0.4016300000000  0.4407010000000 1.0
C      1  0.5790050000000  0.4912650000000  0.5260220000000 1.0
C      1  0.4075160000000  0.5299090000000  0.4965070000000 1.0
C      1  0.5290450000000  0.4446470000000  0.5849010000000 1.0
C      1  0.5534010000000  0.3979710000000  0.5038820000000 1.0
C      1  0.5105000000000  0.5054260000000  0.4469680000000 1.0
C      1  0.4538030000000  0.5892590000000  0.4490340000000 1.0
C      1  0.5814780000000  0.4464560000000  0.5101010000000 1.0
C      1  0.4670180000000  0.6044360000000  0.4693340000000 1.0
C      1  0.5009640000000  0.5309130000000  0.5917800000000 1.0
C      1  0.5964250000000  0.5290910000000  0.5390310000000 1.0
C      1  0.4192960000000  0.5546170000000  0.4552570000000 1.0
C      1  0.5219270000000  0.6073440000000  0.4712360000000 1.0
C      1  0.4833040000000  0.5358810000000  0.6116690000000 1.0
C      1  0.4532550000000  0.4572880000000  0.5854440000000 1.0
C      1  0.5602130000000  0.5814740000000  0.4369990000000 1.0
C      1  0.5379890000000  0.4089720000000  0.4619280000000 1.0
C      1  0.4889210000000  0.4691560000000  0.5509750000000 1.0
C      1  0.4700410000000  0.4839530000000  0.5325910000000 1.0
C      1  0.5202510000000  0.4717550000000  0.4730990000000 1.0
C      1  0.5386550000000  0.5977540000000  0.4501310000000 1.0
C      1  0.4706230000000  0.4792600000000  0.4204410000000 1.0
C      1  0.3978910000000  0.4475610000000  0.4813700000000 1.0
C      1  0.4810180000000  0.5761410000000  0.5607380000000 1.0
C      1  0.5124680000000  0.4558470000000  0.5357310000000 1.0
C      1  0.4907180000000  0.5193210000000  0.4620660000000 1.0
C      1  0.4060090000000  0.5395190000000  0.5216860000000 1.0
C      1  0.5705450000000  0.4623660000000  0.5652150000000 1.0
C      1  0.4862500000000  0.4018790000000  0.5177710000000 1.0
C      1  0.5928840000000  0.4733810000000  0.5094690000000 1.0
C      1  0.5310820000000  0.5666150000000  0.5840900000000 1.0
C      1  0.4274030000000  0.4568080000000  0.4441300000000 1.0
C      1  0.4940790000000  0.5766420000000  0.4134950000000 1.0
C      1  0.4976230000000  0.5716800000000  0.4414710000000 1.0
C      1  0.5435000000000  0.4837700000000  0.5110590000000 1.0
C      1  0.5603240000000  0.4596220000000  0.4409480000000 1.0
C      1  0.5826240000000  0.5063090000000  0.4412530000000 1.0
C      1  0.4446780000000  0.5443500000000  0.5564510000000 1.0
C      1  0.5066430000000  0.4786860000000  0.4491330000000 1.0
C      1  0.4846750000000  0.4212040000000  0.5558050000000 1.0
C      1  0.5655730000000  0.4846590000000  0.4289110000000 1.0
C      1  0.5898560000000  0.5096430000000  0.5593470000000 1.0
C      1  0.5367210000000  0.5099690000000  0.5492550000000 1.0
C      1  0.4934790000000  0.5640230000000  0.4862040000000 1.0
C      1  0.4499910000000  0.5779800000000  0.5232890000000 1.0
C      1  0.4118210000000  0.5518150000000  0.5462120000000 1.0
C      1  0.6062410000000  0.5482140000000  0.4979330000000 1.0
C      1  0.4152250000000  0.4694710000000  0.5741260000000 1.0
C      1  0.4482810000000  0.5105040000000  0.5856950000000 1.0
C      1  0.5227640000000  0.4888050000000  0.6161190000000 1.0
C      1  0.5882100000000  0.4814450000000  0.5500460000000 1.0
C      1  0.5193700000000  0.5350910000000  0.4070870000000 1.0
C      1  0.4763860000000  0.5872000000000  0.5329350000000 1.0
C      1  0.5325280000000  0.5725830000000  0.5552340000000 1.0
C      1  0.5872340000000  0.5565230000000  0.5460940000000 1.0
C      1  0.4453790000000  0.4438550000000  0.4219490000000 1.0
C      1  0.5855620000000  0.5690760000000  0.4998180000000 1.0
C      1  0.5210290000000  0.5587220000000  0.4508010000000 1.0
C      1  0.5213300000000  0.4916320000000  0.4013750000000 1.0
C      1  0.4901410000000  0.5495170000000  0.5098240000000 1.0
C      1  0.3937860000000  0.4722100000000  0.4970750000000 1.0
C      1  0.5975900000000  0.5027060000000  0.4667200000000 1.0
C      1  0.4402870000000  0.5679900000000  0.4362020000000 1.0
C      1  0.5486690000000  0.4948980000000  0.4044670000000 1.0
C      1  0.4562550000000  0.4093060000000  0.5445700000000 1.0
C      1  0.4677870000000  0.5355790000000  0.5170920000000 1.0
C      1  0.4028280000000  0.5025000000000  0.4570080000000 1.0
C      1  0.5299010000000  0.4908330000000  0.5690360000000 1.0
C      1  0.5132060000000  0.4085720000000  0.5534750000000 1.0
C      1  0.5513530000000  0.5081800000000  0.4734180000000 1.0
C      1  0.5937280000000  0.4776290000000  0.4796200000000 1.0
C      1  0.4174750000000  0.4396770000000  0.5232780000000 1.0
C      1  0.5010280000000  0.4908310000000  0.5728430000000 1.0
C      1  0.4169300000000  0.4856480000000  0.4371280000000 1.0
C      1  0.5697950000000  0.5559810000000  0.4788700000000 1.0
C      1  0.4307720000000  0.4449450000000  0.5719720000000 1.0
C      1  0.4662910000000  0.5035270000000  0.4636870000000 1.0
C      1  0.5024410000000  0.4510510000000  0.5944390000000 1.0
C      1  0.4552920000000  0.5169750000000  0.5599560000000 1.0
C      1  0.5468980000000  0.4179740000000  0.5243320000000 1.0
C      1  0.4338980000000  0.5034630000000  0.5428680000000 1.0
C      1  0.4589480000000  0.4981100000000  0.4901930000000 1.0
C      1  0.4620970000000  0.5594010000000  0.5752580000000 1.0
C      1  0.5015790000000  0.4787750000000  0.6024100000000 1.0
C      1  0.4850380000000  0.4312060000000  0.4145870000000 1.0
C      1  0.5718890000000  0.4304310000000  0.5320310000000 1.0
C      1  0.5596900000000  0.5305300000000  0.4916010000000 1.0
C      1  0.4676620000000  0.5335470000000  0.4537720000000 1.0
C      1  0.4804750000000  0.4479130000000  0.5741890000000 1.0
C      1  0.4765500000000  0.4634500000000  0.4962040000000 1.0
C      1  0.4520440000000  0.5518180000000  0.4144730000000 1.0
C      1  0.5109930000000  0.3921030000000  0.5292710000000 1.0
C      1  0.5120090000000  0.5235590000000  0.5445080000000 1.0
C      1  0.5618250000000  0.5670930000000  0.4131760000000 1.0
C      1  0.4500130000000  0.5219360000000  0.4123500000000 1.0
C      1  0.5190470000000  0.3928910000000  0.4770460000000 1.0
C      1  0.4790950000000  0.5584300000000  0.4605720000000 1.0
C      1  0.4480680000000  0.5504670000000  0.5294800000000 1.0
C      1  0.4340340000000  0.4279020000000  0.5461630000000 1.0
C      1  0.4729360000000  0.5034490000000  0.4070340000000 1.0
C      1  0.5788570000000  0.4578570000000  0.4630020000000 1.0
C      1  0.5026740000000  0.5571050000000  0.3962980000000 1.0
C      1  0.4924640000000  0.4085560000000  0.4886490000000 1.0
C      1  0.5623530000000  0.4354270000000  0.5581710000000 1.0
C      1  0.5481040000000  0.4811670000000  0.4832020000000 1.0
C      1  0.5588830000000  0.4147860000000  0.4801650000000 1.0
C      1  0.4728220000000  0.5067830000000  0.5140050000000 1.0
C      1  0.4390780000000  0.4832080000000  0.5879310000000 1.0
C      1  0.4196770000000  0.5534920000000  0.4843400000000 1.0
C      1  0.5237160000000  0.4349470000000  0.5179300000000 1.0
C      1  0.4420300000000  0.4813120000000  0.5257710000000 1.0
C      1  0.4742740000000  0.5628080000000  0.3995110000000 1.0
C      1  0.4466200000000  0.5984650000000  0.4878040000000 1.0
C      1  0.5755640000000  0.5578900000000  0.4505240000000 1.0
C      1  0.5123570000000  0.4308370000000  0.4916090000000 1.0
C      1  0.6090360000000  0.5225960000000  0.4855610000000 1.0
C      1  0.4037940000000  0.5061160000000  0.5485740000000 1.0
C      1  0.4856690000000  0.4288600000000  0.5275460000000 1.0
C      1  0.4356020000000  0.4834030000000  0.4943220000000 1.0
C      1  0.5189190000000  0.4448460000000  0.4674850000000 1.0
C      1  0.4326070000000  0.5776570000000  0.4994640000000 1.0
C      1  0.5473740000000  0.5023350000000  0.6234730000000 1.0
C      1  0.4967890000000  0.5980020000000  0.5149490000000 1.0
C      1  0.5208980000000  0.5566430000000  0.4783980000000 1.0
C      1  0.5661370000000  0.4436640000000  0.4853930000000 1.0
C      1  0.5537830000000  0.5024400000000  0.5267680000000 1.0
C      1  0.5301330000000  0.5399080000000  0.5954640000000 1.0
C      1  0.4908720000000  0.5178770000000  0.5645530000000 1.0
C      1  0.5334760000000  0.5428400000000  0.4994630000000 1.0
C      1  0.5132940000000  0.5389620000000  0.5201180000000 1.0
C      1  0.5351170000000  0.4234550000000  0.5661230000000 1.0
C      1  0.4225900000000  0.4117230000000  0.4560930000000 1.0
C      1  0.5454010000000  0.4685930000000  0.5775150000000 1.0
C      1  0.5679650000000  0.5405810000000  0.4053950000000 1.0
C      1  0.4033510000000  0.5310820000000  0.4470680000000 1.0
C      1  0.4686380000000  0.4220760000000  0.4768810000000 1.0
C      1  0.4221130000000  0.4377300000000  0.4946420000000 1.0
C      1  0.5268230000000  0.6009820000000  0.5183420000000 1.0
C      1  0.5774700000000  0.5237620000000  0.5839850000000 1.0
C      1  0.5348160000000  0.4356600000000  0.4429560000000 1.0
C      1  0.3981440000000  0.4766440000000  0.5508230000000 1.0
C      1  0.5293920000000  0.5386500000000  0.4353470000000 1.0
C      1  0.4676610000000  0.4556280000000  0.4077140000000 1.0
C      1  0.3992450000000  0.4621990000000  0.5243410000000 1.0
C      1  0.4373360000000  0.4580400000000  0.4775500000000 1.0
C      1  0.5362210000000  0.5152650000000  0.4499840000000 1.0
C      1  0.4479740000000  0.4053580000000  0.4673680000000 1.0
C      1  0.5791300000000  0.5341450000000  0.4327830000000 1.0
C      1  0.5012670000000  0.4760080000000  0.4953250000000 1.0
C      1  0.4080120000000  0.4373370000000  0.4552710000000 1.0
C      1  0.5383610000000  0.6158580000000  0.4950920000000 1.0
C      1  0.4720440000000  0.4432350000000  0.5108100000000 1.0
C      1  0.4572920000000  0.4182930000000  0.4219740000000 1.0
C      1  0.5530520000000  0.5235440000000  0.6015190000000 1.0
C      1  0.5470560000000  0.5846820000000  0.5329930000000 1.0
C      1  0.5734830000000  0.5743310000000  0.5259540000000 1.0
C      1  0.4062960000000  0.4981450000000  0.4871010000000 1.0
C      1  0.5087420000000  0.5803770000000  0.5704670000000 1.0
C      1  0.5098580000000  0.4331040000000  0.4271520000000 1.0
C      1  0.4305410000000  0.5062590000000  0.4254140000000 1.0
C      1  0.5173620000000  0.4786250000000  0.5178590000000 1.0
C      1  0.4597270000000  0.5366770000000  0.5957480000000 1.0
C      1  0.4655620000000  0.4518820000000  0.4722100000000 1.0
C      1  0.5931080000000  0.5261360000000  0.5091850000000 1.0
C      1  0.5793080000000  0.5477890000000  0.5713520000000 1.0
C      1  0.4772350000000  0.4757470000000  0.4482890000000 1.0
C      1  0.5463750000000  0.5229140000000  0.3962010000000 1.0
END
