TITL C-4164241-3639-304 1.08112936602099 125000 -11444.5847923318 0 0 77 (C1) n - 1
REM
REM in /home/nfs/bkarasulu/CARBON/AIRSS/Generating-Clusters/ReaxFF-fromJPCA2015/Units_Real/with-SteepDescent/Only-C1/SD-CG/Try1-3A/FIRE-CG
REM
REM
REM
REM
REM
REM ./C.cell (11c1c37f851c82e70ff6c80c92926a4b)
REM
REM compiler GCC version 9.2.1 20190827 (Red Hat 9.2.1-1)
REM options -cpp -mtune=generic -march=x86-64 -g -O0 -fpre-include=/usr/include/finclude/math-vector-fortran.h
REM seed -1122781473 -1389379885 1038336000 -392465007 2063370450 -1350308086 -1214851359 -443137006 689134142 1004494261 556145215 -2146665584 -1747227088 -755425724 779965504 -1585531311 675242255 549199515 -1235571650 767491014 1770623424 -1990981859 1429369471 1747076439 -1537658627 -1273941171 -1725905674 -1849396044 -871430446 1506669638 -495095159 -1812525489 2020891823
REM
CELL 1.54180   50.00000   50.00000   50.00000   90.00000   90.00000   90.00000
LATT -1
SFAC C  
C      1  0.4832140000000  0.5515370000000  0.5004050000000 1.0
C      1  0.5238450000000  0.4391540000000  0.4490130000000 1.0
C      1  0.4548740000000  0.4915730000000  0.4505220000000 1.0
C      1  0.5620430000000  0.4733940000000  0.5331210000000 1.0
C      1  0.5261010000000  0.4775090000000  0.4656020000000 1.0
C      1  0.4983480000000  0.4267490000000  0.5449900000000 1.0
C      1  0.5388290000000  0.5508620000000  0.5161420000000 1.0
C      1  0.5764970000000  0.4644450000000  0.4964070000000 1.0
C      1  0.5371550000000  0.5367450000000  0.4582210000000 1.0
C      1  0.5019440000000  0.4831540000000  0.4301100000000 1.0
C      1  0.5053170000000  0.4845500000000  0.4834370000000 1.0
C      1  0.5031260000000  0.4726010000000  0.5100430000000 1.0
C      1  0.4214830000000  0.4633370000000  0.5183840000000 1.0
C      1  0.5671250000000  0.4992750000000  0.4624320000000 1.0
C      1  0.4847490000000  0.5194590000000  0.4230730000000 1.0
C      1  0.4591380000000  0.5306290000000  0.4214290000000 1.0
C      1  0.5163040000000  0.5280190000000  0.4803340000000 1.0
C      1  0.4811710000000  0.5657040000000  0.5484190000000 1.0
C      1  0.4392670000000  0.5314610000000  0.4868090000000 1.0
C      1  0.4755990000000  0.4632070000000  0.5149270000000 1.0
C      1  0.5728160000000  0.5151480000000  0.5109280000000 1.0
C      1  0.4924690000000  0.5112290000000  0.4764590000000 1.0
C      1  0.4649400000000  0.4373530000000  0.5022850000000 1.0
C      1  0.5220800000000  0.5644420000000  0.4509850000000 1.0
C      1  0.4700460000000  0.5254020000000  0.4957030000000 1.0
C      1  0.5087640000000  0.5482760000000  0.5727550000000 1.0
C      1  0.4403390000000  0.5138580000000  0.4375160000000 1.0
C      1  0.4689320000000  0.4671760000000  0.5672910000000 1.0
C      1  0.4918600000000  0.4175950000000  0.5166010000000 1.0
C      1  0.5385500000000  0.4339540000000  0.5240830000000 1.0
C      1  0.4815250000000  0.5476880000000  0.4269450000000 1.0
C      1  0.5129520000000  0.5429930000000  0.5041800000000 1.0
C      1  0.4646220000000  0.5085840000000  0.5202170000000 1.0
C      1  0.5128800000000  0.4920940000000  0.5293780000000 1.0
C      1  0.4639750000000  0.5671340000000  0.5229820000000 1.0
C      1  0.4902150000000  0.5078650000000  0.5411890000000 1.0
C      1  0.4877000000000  0.4432880000000  0.5673900000000 1.0
C      1  0.5670960000000  0.4703230000000  0.4695000000000 1.0
C      1  0.4565010000000  0.5973140000000  0.5084710000000 1.0
C      1  0.5491010000000  0.5131980000000  0.5529500000000 1.0
C      1  0.4143440000000  0.4877620000000  0.5227880000000 1.0
C      1  0.5739610000000  0.5205870000000  0.4821460000000 1.0
C      1  0.5054720000000  0.4115520000000  0.4903380000000 1.0
C      1  0.4557390000000  0.4821050000000  0.5052110000000 1.0
C      1  0.4831750000000  0.5004250000000  0.4445270000000 1.0
C      1  0.5043700000000  0.4221190000000  0.4633730000000 1.0
C      1  0.4800990000000  0.5689190000000  0.4744910000000 1.0
C      1  0.5137010000000  0.4834570000000  0.5763580000000 1.0
C      1  0.5248750000000  0.4363130000000  0.5497080000000 1.0
C      1  0.4869180000000  0.4909130000000  0.5664810000000 1.0
C      1  0.5395220000000  0.4888600000000  0.5396030000000 1.0
C      1  0.5150960000000  0.4546430000000  0.5714140000000 1.0
C      1  0.5291530000000  0.4900080000000  0.4382500000000 1.0
C      1  0.4328720000000  0.5236280000000  0.4623790000000 1.0
C      1  0.4392290000000  0.5495140000000  0.5282040000000 1.0
C      1  0.4383690000000  0.4448170000000  0.5125760000000 1.0
C      1  0.5254950000000  0.5323400000000  0.5814720000000 1.0
C      1  0.5476590000000  0.5109680000000  0.4444840000000 1.0
C      1  0.5015450000000  0.4545520000000  0.4366440000000 1.0
C      1  0.4636820000000  0.4491440000000  0.4735120000000 1.0
C      1  0.5518060000000  0.5651960000000  0.4936180000000 1.0
C      1  0.5431990000000  0.4535860000000  0.4660040000000 1.0
C      1  0.5605870000000  0.4505150000000  0.5174730000000 1.0
C      1  0.5355440000000  0.5798760000000  0.4721680000000 1.0
C      1  0.4533780000000  0.4758080000000  0.4754310000000 1.0
C      1  0.4426710000000  0.5218730000000  0.5371010000000 1.0
C      1  0.5618310000000  0.5457210000000  0.4745310000000 1.0
C      1  0.4945490000000  0.5390910000000  0.5536770000000 1.0
C      1  0.5555020000000  0.5302050000000  0.5291520000000 1.0
C      1  0.4821680000000  0.4391680000000  0.4532140000000 1.0
C      1  0.4202760000000  0.5393180000000  0.5082470000000 1.0
C      1  0.5339880000000  0.5057370000000  0.5774270000000 1.0
C      1  0.4931160000000  0.5642040000000  0.4480240000000 1.0
C      1  0.5207940000000  0.4167420000000  0.5110940000000 1.0
C      1  0.5795590000000  0.4869830000000  0.5155060000000 1.0
C      1  0.4151480000000  0.5152770000000  0.5270930000000 1.0
C      1  0.4671170000000  0.5897970000000  0.4846570000000 1.0
END
