TITL C-4164232-771-484 -17.309530534167 125000 -9230.97373958518 0 0 63 (C1) n - 1
REM
REM in /home/nfs/bkarasulu/CARBON/AIRSS/Generating-Clusters/ReaxFF-fromJPCA2015/Units_Real/with-SteepDescent/Only-C1/SD-CG/Try1-3A/FIRE-CG
REM
REM
REM
REM
REM
REM ./C.cell (11c1c37f851c82e70ff6c80c92926a4b)
REM
REM compiler GCC version 9.2.1 20190827 (Red Hat 9.2.1-1)
REM options -cpp -mtune=generic -march=x86-64 -g -O0 -fpre-include=/usr/include/finclude/math-vector-fortran.h
REM seed 761564530 -1788034919 209191027 -1757902134 -1220372654 -735616776 458537226 908792205 -585623047 266224890 1855707227 -539105706 1390086084 458077822 -2088940264 909865145 370826301 -799243986 1559829920 676185490 933999236 -669316900 -1136214545 -1874464527 -403354569 -30327686 404308656 -1704184184 1292321727 117097976 1722805923 -1372698650 -547168656
REM
CELL 1.54180   50.00000   50.00000   50.00000   90.00000   90.00000   90.00000
LATT -1
SFAC C  
C      1  0.5387230000000  0.4427900000000  0.4896570000000 1.0
C      1  0.5129130000000  0.5583650000000  0.4613080000000 1.0
C      1  0.4694230000000  0.4784280000000  0.4476430000000 1.0
C      1  0.4951540000000  0.5563350000000  0.5454570000000 1.0
C      1  0.4533040000000  0.4383070000000  0.5187030000000 1.0
C      1  0.5227420000000  0.5267720000000  0.5544580000000 1.0
C      1  0.4612320000000  0.4703690000000  0.5535010000000 1.0
C      1  0.4849100000000  0.5569850000000  0.4492310000000 1.0
C      1  0.5137120000000  0.4408160000000  0.4739040000000 1.0
C      1  0.5673310000000  0.4731920000000  0.5271330000000 1.0
C      1  0.5257370000000  0.4808230000000  0.5052390000000 1.0
C      1  0.4895720000000  0.4618290000000  0.5491210000000 1.0
C      1  0.4853860000000  0.4447380000000  0.4827740000000 1.0
C      1  0.4409620000000  0.5199570000000  0.4570900000000 1.0
C      1  0.4371190000000  0.5073420000000  0.4833280000000 1.0
C      1  0.5258750000000  0.5089310000000  0.5106160000000 1.0
C      1  0.5779790000000  0.5178870000000  0.4981830000000 1.0
C      1  0.4647110000000  0.5497420000000  0.4270820000000 1.0
C      1  0.5303490000000  0.4486240000000  0.5567100000000 1.0
C      1  0.5538190000000  0.4708230000000  0.4983940000000 1.0
C      1  0.5314730000000  0.5010780000000  0.5421850000000 1.0
C      1  0.5751550000000  0.5215970000000  0.5270510000000 1.0
C      1  0.4867090000000  0.4963340000000  0.5163470000000 1.0
C      1  0.5348810000000  0.5444720000000  0.4506860000000 1.0
C      1  0.4657330000000  0.4647280000000  0.4732100000000 1.0
C      1  0.4911090000000  0.4735140000000  0.4281480000000 1.0
C      1  0.5631560000000  0.5421730000000  0.5097660000000 1.0
C      1  0.5189680000000  0.4269500000000  0.5370840000000 1.0
C      1  0.4912020000000  0.4350470000000  0.5351970000000 1.0
C      1  0.4946660000000  0.5636190000000  0.5044220000000 1.0
C      1  0.5682820000000  0.4942500000000  0.4839550000000 1.0
C      1  0.4938200000000  0.5288840000000  0.5600240000000 1.0
C      1  0.5617830000000  0.4989300000000  0.5403360000000 1.0
C      1  0.5289600000000  0.4314870000000  0.5117490000000 1.0
C      1  0.5521370000000  0.5083710000000  0.4648750000000 1.0
C      1  0.5548090000000  0.4589920000000  0.5474880000000 1.0
C      1  0.4351530000000  0.5217800000000  0.5091560000000 1.0
C      1  0.4778770000000  0.4307290000000  0.5078730000000 1.0
C      1  0.5087450000000  0.4967120000000  0.4691190000000 1.0
C      1  0.4420460000000  0.5471790000000  0.4461290000000 1.0
C      1  0.4649390000000  0.5076500000000  0.4453180000000 1.0
C      1  0.5367220000000  0.5540900000000  0.5123480000000 1.0
C      1  0.4442220000000  0.4791500000000  0.4882460000000 1.0
C      1  0.4555000000000  0.5661900000000  0.4637200000000 1.0
C      1  0.4517430000000  0.4975230000000  0.5499510000000 1.0
C      1  0.4507080000000  0.5593860000000  0.4897030000000 1.0
C      1  0.4822690000000  0.5288400000000  0.4358900000000 1.0
C      1  0.5176820000000  0.5645150000000  0.4904770000000 1.0
C      1  0.5011480000000  0.5244050000000  0.5884180000000 1.0
C      1  0.5277970000000  0.5153170000000  0.4808400000000 1.0
C      1  0.5593640000000  0.5311730000000  0.4437170000000 1.0
C      1  0.5212270000000  0.4513890000000  0.4470010000000 1.0
C      1  0.4410600000000  0.4555420000000  0.5366410000000 1.0
C      1  0.5159820000000  0.4737450000000  0.5531370000000 1.0
C      1  0.4321810000000  0.4742570000000  0.5146360000000 1.0
C      1  0.5028090000000  0.4455990000000  0.4234170000000 1.0
C      1  0.4983890000000  0.4830720000000  0.4938200000000 1.0
C      1  0.5224240000000  0.5503860000000  0.5376550000000 1.0
C      1  0.4470830000000  0.5487040000000  0.5138320000000 1.0
C      1  0.4755590000000  0.5607260000000  0.5237940000000 1.0
C      1  0.5144440000000  0.4805260000000  0.4452300000000 1.0
C      1  0.4773030000000  0.5076320000000  0.5394640000000 1.0
C      1  0.4318290000000  0.5002980000000  0.5284100000000 1.0
END
