TITL C-4164238-4211-540 1.60435426103457 125000 -2874.81723451656 0 0 21 (C1) n - 1
REM
REM in /home/nfs/bkarasulu/CARBON/AIRSS/Generating-Clusters/ReaxFF-fromJPCA2015/Units_Real/with-SteepDescent/Only-C1/SD-CG/Try1-3A/FIRE-CG
REM
REM
REM
REM
REM
REM ./C.cell (11c1c37f851c82e70ff6c80c92926a4b)
REM
REM compiler GCC version 9.2.1 20190827 (Red Hat 9.2.1-1)
REM options -cpp -mtune=generic -march=x86-64 -g -O0 -fpre-include=/usr/include/finclude/math-vector-fortran.h
REM seed 1392294116 1624933983 1124438047 1957807207 1263679448 -34030771 2030018137 646654058 -671709944 -716160388 1839557449 621847768 1265298232 -1376985893 202655199 -671428488 -521304625 -1232751554 -1468654089 -136626466 648823540 474720968 -812604482 1456162772 -1065336643 1914751170 964915715 -1422773351 1223632352 -92668745 1045365046 -207770005 2006521755
REM
CELL 1.54180   50.00000   50.00000   50.00000   90.00000   90.00000   90.00000
LATT -1
SFAC C  
C      1  0.4538470000000  0.4896270000000  0.4886960000000 1.0
C      1  0.5173600000000  0.5011390000000  0.4541180000000 1.0
C      1  0.5032590000000  0.5275110000000  0.4948510000000 1.0
C      1  0.4952280000000  0.5018190000000  0.4377580000000 1.0
C      1  0.4718700000000  0.4746420000000  0.5353110000000 1.0
C      1  0.4720020000000  0.5259800000000  0.5528010000000 1.0
C      1  0.5242200000000  0.4482240000000  0.5072040000000 1.0
C      1  0.5486570000000  0.5265070000000  0.4894450000000 1.0
C      1  0.5133710000000  0.5409450000000  0.5196080000000 1.0
C      1  0.5392290000000  0.4689410000000  0.5222690000000 1.0
C      1  0.4476030000000  0.4995610000000  0.5131620000000 1.0
C      1  0.5385190000000  0.5237310000000  0.5180820000000 1.0
C      1  0.4822520000000  0.4778670000000  0.5041150000000 1.0
C      1  0.5018830000000  0.5012100000000  0.5090250000000 1.0
C      1  0.5272420000000  0.4966930000000  0.5222550000000 1.0
C      1  0.4931760000000  0.5359370000000  0.5383670000000 1.0
C      1  0.5112910000000  0.4745100000000  0.4665360000000 1.0
C      1  0.5020710000000  0.4592190000000  0.4895750000000 1.0
C      1  0.5236780000000  0.5240820000000  0.4734570000000 1.0
C      1  0.4575990000000  0.4994320000000  0.5400850000000 1.0
C      1  0.4756430000000  0.5024220000000  0.4232800000000 1.0
END
