TITL C-4164239-2837-336 2.7920089287227 125000 -28503.2922595775 0 0 189 (C1) n - 1
REM
REM in /home/nfs/bkarasulu/CARBON/AIRSS/Generating-Clusters/ReaxFF-fromJPCA2015/Units_Real/with-SteepDescent/Only-C1/SD-CG/Try1-3A/FIRE-CG
REM
REM
REM
REM
REM
REM ./C.cell (11c1c37f851c82e70ff6c80c92926a4b)
REM
REM compiler GCC version 9.2.1 20190827 (Red Hat 9.2.1-1)
REM options -cpp -mtune=generic -march=x86-64 -g -O0 -fpre-include=/usr/include/finclude/math-vector-fortran.h
REM seed -572041564 -135238513 31586177 1297023716 -1143855217 -1805596374 -29395096 -2101316490 -1149902539 2011339609 -959313500 1530928629 841941455 1414795337 -238406966 681284484 1132052480 1008580224 -62906135 -1657721333 -1836040710 926886352 2145124211 1682740440 -7706150 -1332394481 -1185089113 -600222351 -609194155 -1118619410 -930593305 -1345600076 -996514950
REM
CELL 1.54180   50.00000   50.00000   50.00000   90.00000   90.00000   90.00000
LATT -1
SFAC C  
C      1  0.5434330000000  0.5305920000000  0.4925020000000 1.0
C      1  0.4283200000000  0.5011580000000  0.4776820000000 1.0
C      1  0.5448190000000  0.4085260000000  0.5347570000000 1.0
C      1  0.5191160000000  0.5822990000000  0.6052510000000 1.0
C      1  0.4662390000000  0.5537550000000  0.4618260000000 1.0
C      1  0.4747170000000  0.4442360000000  0.5860730000000 1.0
C      1  0.5584120000000  0.5668110000000  0.5692520000000 1.0
C      1  0.4434440000000  0.5445870000000  0.4758710000000 1.0
C      1  0.4647690000000  0.4081060000000  0.5393400000000 1.0
C      1  0.5204300000000  0.5302430000000  0.4018120000000 1.0
C      1  0.4356500000000  0.5222330000000  0.5389970000000 1.0
C      1  0.4958630000000  0.4264040000000  0.5764920000000 1.0
C      1  0.4668610000000  0.4263770000000  0.4159180000000 1.0
C      1  0.6058490000000  0.4591330000000  0.4845540000000 1.0
C      1  0.5303710000000  0.4628660000000  0.6003440000000 1.0
C      1  0.4697550000000  0.5148820000000  0.4485320000000 1.0
C      1  0.4476820000000  0.5794420000000  0.5103160000000 1.0
C      1  0.3905680000000  0.4984040000000  0.5297920000000 1.0
C      1  0.4965100000000  0.5696650000000  0.4941260000000 1.0
C      1  0.3868280000000  0.4712670000000  0.5179450000000 1.0
C      1  0.4521250000000  0.5231040000000  0.6048590000000 1.0
C      1  0.4015600000000  0.4460110000000  0.5224310000000 1.0
C      1  0.4995670000000  0.5424590000000  0.5794910000000 1.0
C      1  0.4334730000000  0.4826440000000  0.4988730000000 1.0
C      1  0.5840400000000  0.4912100000000  0.4126180000000 1.0
C      1  0.4777080000000  0.4880060000000  0.5384270000000 1.0
C      1  0.5282580000000  0.5379480000000  0.4295470000000 1.0
C      1  0.6019330000000  0.5059330000000  0.5084650000000 1.0
C      1  0.3925170000000  0.5203460000000  0.5079070000000 1.0
C      1  0.4079350000000  0.4885760000000  0.5508140000000 1.0
C      1  0.5673250000000  0.5134400000000  0.4021290000000 1.0
C      1  0.4452130000000  0.5836210000000  0.5768350000000 1.0
C      1  0.4928610000000  0.5539540000000  0.5171420000000 1.0
C      1  0.5584190000000  0.5032870000000  0.6014300000000 1.0
C      1  0.4780240000000  0.5932520000000  0.5003150000000 1.0
C      1  0.5138480000000  0.5328580000000  0.4548630000000 1.0
C      1  0.4974000000000  0.4790150000000  0.5540790000000 1.0
C      1  0.5817500000000  0.4984000000000  0.5281710000000 1.0
C      1  0.5888080000000  0.4701190000000  0.5339750000000 1.0
C      1  0.4347500000000  0.5840500000000  0.4824420000000 1.0
C      1  0.4533180000000  0.4689900000000  0.4850030000000 1.0
C      1  0.4880790000000  0.4701400000000  0.5800190000000 1.0
C      1  0.5441540000000  0.4610780000000  0.4070770000000 1.0
C      1  0.4753600000000  0.4949720000000  0.3955570000000 1.0
C      1  0.5543240000000  0.4874700000000  0.4791280000000 1.0
C      1  0.4769320000000  0.5335050000000  0.4264510000000 1.0
C      1  0.5916190000000  0.5593410000000  0.4756670000000 1.0
C      1  0.5732350000000  0.5392070000000  0.5641440000000 1.0
C      1  0.4034550000000  0.5481140000000  0.5062930000000 1.0
C      1  0.5888810000000  0.5719050000000  0.5256360000000 1.0
C      1  0.5672750000000  0.5917940000000  0.5246560000000 1.0
C      1  0.5500290000000  0.5573810000000  0.4236600000000 1.0
C      1  0.5970600000000  0.4528740000000  0.5115540000000 1.0
C      1  0.4774450000000  0.4610080000000  0.5001040000000 1.0
C      1  0.5945360000000  0.5548040000000  0.5489860000000 1.0
C      1  0.5170320000000  0.4163060000000  0.4306630000000 1.0
C      1  0.4491990000000  0.4488330000000  0.5386540000000 1.0
C      1  0.4551150000000  0.4670190000000  0.4519730000000 1.0
C      1  0.4585970000000  0.4768630000000  0.6083810000000 1.0
C      1  0.4796330000000  0.4333670000000  0.4977270000000 1.0
C      1  0.4363570000000  0.5063860000000  0.4169270000000 1.0
C      1  0.4087670000000  0.5632010000000  0.5307380000000 1.0
C      1  0.4613930000000  0.4300810000000  0.5206980000000 1.0
C      1  0.4250310000000  0.4496140000000  0.4166290000000 1.0
C      1  0.5399630000000  0.5102910000000  0.3909580000000 1.0
C      1  0.5377930000000  0.5538210000000  0.5080220000000 1.0
C      1  0.5938090000000  0.5311590000000  0.4317900000000 1.0
C      1  0.6100840000000  0.5129550000000  0.5614010000000 1.0
C      1  0.5209220000000  0.4394830000000  0.5850500000000 1.0
C      1  0.3870880000000  0.5067860000000  0.4832660000000 1.0
C      1  0.4293440000000  0.5154750000000  0.5880500000000 1.0
C      1  0.4309360000000  0.5501720000000  0.4355550000000 1.0
C      1  0.5395170000000  0.4746860000000  0.4329190000000 1.0
C      1  0.5730640000000  0.5396200000000  0.4144070000000 1.0
C      1  0.5370810000000  0.5118190000000  0.5538430000000 1.0
C      1  0.4627640000000  0.5318190000000  0.5367570000000 1.0
C      1  0.5755850000000  0.4525020000000  0.4438630000000 1.0
C      1  0.4176970000000  0.5425380000000  0.5511070000000 1.0
C      1  0.5120350000000  0.3993920000000  0.4809260000000 1.0
C      1  0.5303600000000  0.4830740000000  0.3909800000000 1.0
C      1  0.4294700000000  0.5621350000000  0.5677850000000 1.0
C      1  0.5409160000000  0.5749970000000  0.4441340000000 1.0
C      1  0.4266200000000  0.5867380000000  0.5302390000000 1.0
C      1  0.5209200000000  0.4400560000000  0.4161180000000 1.0
C      1  0.4961910000000  0.5558140000000  0.4677900000000 1.0
C      1  0.4887870000000  0.5615830000000  0.4256850000000 1.0
C      1  0.5148930000000  0.4089330000000  0.5322890000000 1.0
C      1  0.4464400000000  0.4391980000000  0.4334970000000 1.0
C      1  0.5509200000000  0.5862540000000  0.5476100000000 1.0
C      1  0.4550270000000  0.5262540000000  0.5766730000000 1.0
C      1  0.5066310000000  0.6012320000000  0.4683130000000 1.0
C      1  0.4074930000000  0.4687830000000  0.4221580000000 1.0
C      1  0.4446080000000  0.5208180000000  0.4898750000000 1.0
C      1  0.5150310000000  0.5048570000000  0.4547880000000 1.0
C      1  0.4551980000000  0.5691010000000  0.4395230000000 1.0
C      1  0.5540680000000  0.4038240000000  0.4797770000000 1.0
C      1  0.4175820000000  0.4907670000000  0.5787710000000 1.0
C      1  0.5212330000000  0.4945740000000  0.4291250000000 1.0
C      1  0.5494230000000  0.4025300000000  0.5075440000000 1.0
C      1  0.5246280000000  0.4465810000000  0.4959260000000 1.0
C      1  0.5040830000000  0.4850180000000  0.4054520000000 1.0
C      1  0.6130150000000  0.4956830000000  0.4558980000000 1.0
C      1  0.5496230000000  0.5738510000000  0.4927860000000 1.0
C      1  0.5859490000000  0.5322970000000  0.4627040000000 1.0
C      1  0.5179390000000  0.5605590000000  0.5271680000000 1.0
C      1  0.5487150000000  0.4628430000000  0.4577810000000 1.0
C      1  0.5228890000000  0.5239100000000  0.5771060000000 1.0
C      1  0.4580690000000  0.4724860000000  0.3943740000000 1.0
C      1  0.4745450000000  0.4492490000000  0.4006130000000 1.0
C      1  0.5616100000000  0.4272640000000  0.5524170000000 1.0
C      1  0.4408510000000  0.6000620000000  0.5520570000000 1.0
C      1  0.5142730000000  0.4935300000000  0.5132700000000 1.0
C      1  0.4340650000000  0.4704500000000  0.5950010000000 1.0
C      1  0.4795260000000  0.5051530000000  0.4741090000000 1.0
C      1  0.6153700000000  0.5344590000000  0.5436230000000 1.0
C      1  0.5620760000000  0.5668960000000  0.4691440000000 1.0
C      1  0.4529490000000  0.5921660000000  0.4611560000000 1.0
C      1  0.6126430000000  0.4880220000000  0.4833840000000 1.0
C      1  0.5578440000000  0.4740120000000  0.5965270000000 1.0
C      1  0.5297830000000  0.5097610000000  0.6020230000000 1.0
C      1  0.4533770000000  0.4770330000000  0.5403610000000 1.0
C      1  0.4358750000000  0.4103560000000  0.5458880000000 1.0
C      1  0.5041090000000  0.4719540000000  0.4964810000000 1.0
C      1  0.4762850000000  0.4354430000000  0.4688820000000 1.0
C      1  0.5761420000000  0.5032550000000  0.4711210000000 1.0
C      1  0.5234040000000  0.6083300000000  0.4926620000000 1.0
C      1  0.5728120000000  0.4378710000000  0.5064480000000 1.0
C      1  0.4001700000000  0.4784150000000  0.4468950000000 1.0
C      1  0.4851570000000  0.4867980000000  0.6045870000000 1.0
C      1  0.4756760000000  0.5878870000000  0.5732660000000 1.0
C      1  0.4754850000000  0.3946330000000  0.4482580000000 1.0
C      1  0.4710660000000  0.5139450000000  0.4982030000000 1.0
C      1  0.5400350000000  0.4603980000000  0.5396770000000 1.0
C      1  0.4841670000000  0.4585880000000  0.4525240000000 1.0
C      1  0.4320300000000  0.4930660000000  0.5309150000000 1.0
C      1  0.5794000000000  0.5182820000000  0.5881900000000 1.0
C      1  0.6008070000000  0.5572380000000  0.5027380000000 1.0
C      1  0.5921260000000  0.4416110000000  0.4649490000000 1.0
C      1  0.5476690000000  0.4504110000000  0.5136190000000 1.0
C      1  0.5381960000000  0.4417370000000  0.5611800000000 1.0
C      1  0.4161970000000  0.4176450000000  0.4936890000000 1.0
C      1  0.5017030000000  0.5544580000000  0.3995160000000 1.0
C      1  0.4559590000000  0.4169390000000  0.4579440000000 1.0
C      1  0.5509680000000  0.6016300000000  0.5007700000000 1.0
C      1  0.5319820000000  0.4424060000000  0.4692660000000 1.0
C      1  0.4987880000000  0.5718200000000  0.5819290000000 1.0
C      1  0.5142480000000  0.6085950000000  0.5210940000000 1.0
C      1  0.4193620000000  0.5248880000000  0.4344530000000 1.0
C      1  0.4039840000000  0.4381550000000  0.4801770000000 1.0
C      1  0.4155910000000  0.4220670000000  0.5242520000000 1.0
C      1  0.4854870000000  0.6095040000000  0.5249910000000 1.0
C      1  0.5227680000000  0.4853210000000  0.5412350000000 1.0
C      1  0.3909520000000  0.4604330000000  0.4683680000000 1.0
C      1  0.5770140000000  0.4219980000000  0.4820540000000 1.0
C      1  0.4707480000000  0.6049320000000  0.5497750000000 1.0
C      1  0.4336090000000  0.4355340000000  0.5603520000000 1.0
C      1  0.4622970000000  0.5186900000000  0.4053730000000 1.0
C      1  0.5965420000000  0.4964520000000  0.5794740000000 1.0
C      1  0.4746430000000  0.5393450000000  0.5946410000000 1.0
C      1  0.5290140000000  0.4143370000000  0.4608050000000 1.0
C      1  0.4881040000000  0.3849610000000  0.4724610000000 1.0
C      1  0.4281620000000  0.4760970000000  0.4022060000000 1.0
C      1  0.5089200000000  0.4180810000000  0.5041080000000 1.0
C      1  0.5119470000000  0.5789890000000  0.4484510000000 1.0
C      1  0.5236190000000  0.5860360000000  0.5379850000000 1.0
C      1  0.4192430000000  0.5594440000000  0.4834790000000 1.0
C      1  0.5572890000000  0.5390910000000  0.4683190000000 1.0
C      1  0.4606120000000  0.3841390000000  0.4871160000000 1.0
C      1  0.5751720000000  0.4638240000000  0.4173750000000 1.0
C      1  0.5147140000000  0.4856840000000  0.6094200000000 1.0
C      1  0.4653520000000  0.5576620000000  0.5241220000000 1.0
C      1  0.4821380000000  0.5116040000000  0.5243120000000 1.0
C      1  0.5400930000000  0.5727960000000  0.5890520000000 1.0
C      1  0.4968370000000  0.4567270000000  0.4200020000000 1.0
C      1  0.4536020000000  0.4936970000000  0.4388700000000 1.0
C      1  0.5787980000000  0.4520420000000  0.5553980000000 1.0
C      1  0.5364220000000  0.5030740000000  0.4966970000000 1.0
C      1  0.4923280000000  0.4110880000000  0.5511760000000 1.0
C      1  0.4056950000000  0.5053400000000  0.4574380000000 1.0
C      1  0.4395640000000  0.4027220000000  0.4794310000000 1.0
C      1  0.4887180000000  0.4088790000000  0.4267130000000 1.0
C      1  0.6125580000000  0.5321630000000  0.5135970000000 1.0
C      1  0.5795830000000  0.4696180000000  0.5781980000000 1.0
C      1  0.3815980000000  0.4793520000000  0.4897030000000 1.0
C      1  0.6053740000000  0.5043530000000  0.4294280000000 1.0
C      1  0.4777500000000  0.6039290000000  0.4719940000000 1.0
C      1  0.5628000000000  0.5164410000000  0.5445710000000 1.0
C      1  0.4984100000000  0.4836950000000  0.4694780000000 1.0
C      1  0.4448470000000  0.4443110000000  0.5862740000000 1.0
END
