TITL C-4164243-3780-320 -9.31137501203176 125000 -13799.0336143069 0 0 93 (C1) n - 1
REM
REM in /home/nfs/bkarasulu/CARBON/AIRSS/Generating-Clusters/ReaxFF-fromJPCA2015/Units_Real/with-SteepDescent/Only-C1/SD-CG/Try1-3A/FIRE-CG
REM
REM
REM
REM
REM
REM ./C.cell (11c1c37f851c82e70ff6c80c92926a4b)
REM
REM compiler GCC version 9.2.1 20190827 (Red Hat 9.2.1-1)
REM options -cpp -mtune=generic -march=x86-64 -g -O0 -fpre-include=/usr/include/finclude/math-vector-fortran.h
REM seed -1815156869 106973253 -1232389005 -904609783 1983293213 -1361024648 62554605 -1423122068 159489876 -5434817 1386987961 1845079715 -920446307 1883614264 125691036 1599069474 319054501 -620027789 1460785413 -526852228 810057036 1006162049 1844126712 -53150327 -181154942 -455031090 1440273341 1758642640 -736571431 734116992 148068349 1827517968 -1945757908
REM
CELL 1.54180   50.00000   50.00000   50.00000   90.00000   90.00000   90.00000
LATT -1
SFAC C  
C      1  0.5008010000000  0.4641740000000  0.5457230000000 1.0
C      1  0.5542850000000  0.5317330000000  0.5428260000000 1.0
C      1  0.4847820000000  0.4878850000000  0.5517870000000 1.0
C      1  0.4287720000000  0.5426080000000  0.4823020000000 1.0
C      1  0.5382520000000  0.4592730000000  0.4509020000000 1.0
C      1  0.5505810000000  0.5517790000000  0.4694290000000 1.0
C      1  0.4929020000000  0.4840960000000  0.4628850000000 1.0
C      1  0.5234210000000  0.5017160000000  0.5758700000000 1.0
C      1  0.4731790000000  0.4744240000000  0.5884480000000 1.0
C      1  0.5377710000000  0.5746390000000  0.5101400000000 1.0
C      1  0.4535890000000  0.5131080000000  0.4283050000000 1.0
C      1  0.4630140000000  0.4679120000000  0.4207570000000 1.0
C      1  0.4926370000000  0.5001350000000  0.5779580000000 1.0
C      1  0.4222840000000  0.4897770000000  0.4999710000000 1.0
C      1  0.4491120000000  0.5212610000000  0.5558960000000 1.0
C      1  0.5196340000000  0.4771900000000  0.4689360000000 1.0
C      1  0.5828730000000  0.4845960000000  0.4635260000000 1.0
C      1  0.5632040000000  0.5293100000000  0.4553720000000 1.0
C      1  0.5260140000000  0.4313820000000  0.5183340000000 1.0
C      1  0.5404910000000  0.4786060000000  0.5729090000000 1.0
C      1  0.5025230000000  0.5602230000000  0.4479480000000 1.0
C      1  0.5128390000000  0.5348650000000  0.5144070000000 1.0
C      1  0.4250290000000  0.5629590000000  0.5304540000000 1.0
C      1  0.5134090000000  0.4184900000000  0.4949680000000 1.0
C      1  0.5208700000000  0.5841310000000  0.4883280000000 1.0
C      1  0.5120440000000  0.4528680000000  0.4368530000000 1.0
C      1  0.4759230000000  0.5246590000000  0.5672620000000 1.0
C      1  0.5669210000000  0.4547090000000  0.5375890000000 1.0
C      1  0.5674840000000  0.5369020000000  0.5170690000000 1.0
C      1  0.4386400000000  0.4438500000000  0.4960020000000 1.0
C      1  0.5485250000000  0.4293300000000  0.4585950000000 1.0
C      1  0.4861150000000  0.4870110000000  0.4304870000000 1.0
C      1  0.4476240000000  0.5793420000000  0.4885730000000 1.0
C      1  0.4448520000000  0.5689660000000  0.5485210000000 1.0
C      1  0.5190640000000  0.5504870000000  0.5574780000000 1.0
C      1  0.5823560000000  0.5141370000000  0.4705940000000 1.0
C      1  0.4289220000000  0.4800920000000  0.5267210000000 1.0
C      1  0.4320680000000  0.5443910000000  0.5504250000000 1.0
C      1  0.5452850000000  0.4343810000000  0.5414910000000 1.0
C      1  0.4334780000000  0.5153630000000  0.4912760000000 1.0
C      1  0.4943220000000  0.5927390000000  0.4975210000000 1.0
C      1  0.4742930000000  0.5709260000000  0.5469810000000 1.0
C      1  0.4590150000000  0.4791440000000  0.5637730000000 1.0
C      1  0.4764000000000  0.5693410000000  0.4557200000000 1.0
C      1  0.4775090000000  0.4465110000000  0.5829570000000 1.0
C      1  0.4891620000000  0.4308140000000  0.4820200000000 1.0
C      1  0.5248470000000  0.4565260000000  0.5043290000000 1.0
C      1  0.5607320000000  0.4802970000000  0.4454130000000 1.0
C      1  0.5747970000000  0.5147240000000  0.4986430000000 1.0
C      1  0.5256790000000  0.5676710000000  0.4641910000000 1.0
C      1  0.4285080000000  0.4674700000000  0.4815800000000 1.0
C      1  0.5517950000000  0.5066880000000  0.4380590000000 1.0
C      1  0.5220550000000  0.5582860000000  0.5291530000000 1.0
C      1  0.5142520000000  0.5246160000000  0.4654040000000 1.0
C      1  0.4923290000000  0.4928500000000  0.5116350000000 1.0
C      1  0.5149590000000  0.5073350000000  0.5233620000000 1.0
C      1  0.4663920000000  0.4337340000000  0.5006350000000 1.0
C      1  0.5401370000000  0.4924990000000  0.5290160000000 1.0
C      1  0.4985800000000  0.4395250000000  0.5629550000000 1.0
C      1  0.5008550000000  0.5381900000000  0.4872530000000 1.0
C      1  0.5009530000000  0.4660310000000  0.5172680000000 1.0
C      1  0.5360090000000  0.4097230000000  0.4769950000000 1.0
C      1  0.4712000000000  0.5890460000000  0.4769660000000 1.0
C      1  0.5249610000000  0.5053740000000  0.4282090000000 1.0
C      1  0.4892560000000  0.4419830000000  0.4538890000000 1.0
C      1  0.4543310000000  0.5475140000000  0.4660820000000 1.0
C      1  0.4396310000000  0.4671710000000  0.4548350000000 1.0
C      1  0.4792900000000  0.4919230000000  0.4857040000000 1.0
C      1  0.4896730000000  0.5492550000000  0.5610380000000 1.0
C      1  0.5396590000000  0.4050940000000  0.4494050000000 1.0
C      1  0.4856190000000  0.5854240000000  0.5240980000000 1.0
C      1  0.4378490000000  0.4945810000000  0.5508960000000 1.0
C      1  0.5304830000000  0.5025110000000  0.4743890000000 1.0
C      1  0.4818430000000  0.5146120000000  0.4246460000000 1.0
C      1  0.4721640000000  0.5361070000000  0.4860640000000 1.0
C      1  0.5474330000000  0.4750520000000  0.5072020000000 1.0
C      1  0.5357850000000  0.5268370000000  0.5647910000000 1.0
C      1  0.4617400000000  0.5123340000000  0.4940680000000 1.0
C      1  0.5522030000000  0.4975580000000  0.4914350000000 1.0
C      1  0.4608980000000  0.4365290000000  0.5308540000000 1.0
C      1  0.5053830000000  0.5276020000000  0.4367240000000 1.0
C      1  0.4627600000000  0.4497610000000  0.4433470000000 1.0
C      1  0.5830070000000  0.4680040000000  0.4869290000000 1.0
C      1  0.4713910000000  0.4306820000000  0.5576480000000 1.0
C      1  0.4263340000000  0.5654290000000  0.5007270000000 1.0
C      1  0.5764600000000  0.4562430000000  0.5097920000000 1.0
C      1  0.4420520000000  0.4847740000000  0.4313240000000 1.0
C      1  0.5129140000000  0.4792590000000  0.4245790000000 1.0
C      1  0.4530790000000  0.5347910000000  0.4439520000000 1.0
C      1  0.5563330000000  0.4802380000000  0.5487330000000 1.0
C      1  0.4358430000000  0.4511980000000  0.5244100000000 1.0
C      1  0.5572440000000  0.5572370000000  0.4975620000000 1.0
C      1  0.5380350000000  0.4474710000000  0.5675250000000 1.0
END
