TITL C-4164233-775-84 67.3961635309935 125000 -24649.8811529413 0 0 165 (C1) n - 1
REM
REM in /home/nfs/bkarasulu/CARBON/AIRSS/Generating-Clusters/ReaxFF-fromJPCA2015/Units_Real/with-SteepDescent/Only-C1/SD-CG/Try1-3A/FIRE-CG
REM
REM
REM
REM
REM
REM ./C.cell (11c1c37f851c82e70ff6c80c92926a4b)
REM
REM compiler GCC version 9.2.1 20190827 (Red Hat 9.2.1-1)
REM options -cpp -mtune=generic -march=x86-64 -g -O0 -fpre-include=/usr/include/finclude/math-vector-fortran.h
REM seed 1770354834 501360366 1612509900 556319912 -1469557093 1855057046 -1802436511 -1665556556 349027106 1660483399 23427298 492544241 -1593524873 -1238647928 1188879496 -494945882 -783133068 -360616336 1554548855 1570457983 -1045029144 -232290410 1609204398 -99159174 -182735500 -1032573941 1744481147 1533730572 1978736956 -1707661122 459771863 -870176837 -314252072
REM
CELL 1.54180   50.00000   50.00000   50.00000   90.00000   90.00000   90.00000
LATT -1
SFAC C  
C      1  0.5167020000000  0.4719970000000  0.4662730000000 1.0
C      1  0.5580870000000  0.5823040000000  0.4722180000000 1.0
C      1  0.4587930000000  0.5045010000000  0.4441480000000 1.0
C      1  0.4563860000000  0.5536220000000  0.5645870000000 1.0
C      1  0.5823840000000  0.5239310000000  0.5555100000000 1.0
C      1  0.4226540000000  0.5519450000000  0.5315010000000 1.0
C      1  0.4759200000000  0.5371770000000  0.4905210000000 1.0
C      1  0.4728320000000  0.6069720000000  0.4884870000000 1.0
C      1  0.5462940000000  0.4738400000000  0.4603400000000 1.0
C      1  0.4083040000000  0.5341740000000  0.4591840000000 1.0
C      1  0.5032650000000  0.4867320000000  0.4008670000000 1.0
C      1  0.5199950000000  0.6090960000000  0.4641490000000 1.0
C      1  0.4204980000000  0.4473460000000  0.5576090000000 1.0
C      1  0.4792840000000  0.5063610000000  0.4926290000000 1.0
C      1  0.4818100000000  0.6059510000000  0.5174200000000 1.0
C      1  0.5585440000000  0.5498200000000  0.5222490000000 1.0
C      1  0.5374190000000  0.4054570000000  0.5483570000000 1.0
C      1  0.5858270000000  0.4392450000000  0.5001080000000 1.0
C      1  0.4464650000000  0.5417060000000  0.4878950000000 1.0
C      1  0.5092640000000  0.4017910000000  0.5398230000000 1.0
C      1  0.4377560000000  0.4209720000000  0.4900720000000 1.0
C      1  0.5419840000000  0.4505260000000  0.4966620000000 1.0
C      1  0.5065250000000  0.4581230000000  0.4074620000000 1.0
C      1  0.4294600000000  0.5905550000000  0.4975750000000 1.0
C      1  0.5014060000000  0.4879620000000  0.4923620000000 1.0
C      1  0.5865870000000  0.4739760000000  0.5447680000000 1.0
C      1  0.4969850000000  0.5529370000000  0.4696950000000 1.0
C      1  0.5803610000000  0.5743680000000  0.4890550000000 1.0
C      1  0.5369150000000  0.5264190000000  0.4090610000000 1.0
C      1  0.5152480000000  0.5117550000000  0.5428340000000 1.0
C      1  0.6059550000000  0.5205480000000  0.5195030000000 1.0
C      1  0.4903110000000  0.6039640000000  0.4655620000000 1.0
C      1  0.5512450000000  0.4258550000000  0.4521770000000 1.0
C      1  0.5743880000000  0.5756370000000  0.5184560000000 1.0
C      1  0.4347230000000  0.4858600000000  0.5841570000000 1.0
C      1  0.4653880000000  0.4330020000000  0.4360750000000 1.0
C      1  0.5568930000000  0.4879450000000  0.5793870000000 1.0
C      1  0.4885430000000  0.5365870000000  0.4040710000000 1.0
C      1  0.4412160000000  0.4605070000000  0.5991120000000 1.0
C      1  0.5056240000000  0.4703580000000  0.5141380000000 1.0
C      1  0.5544530000000  0.4942710000000  0.5147370000000 1.0
C      1  0.5174910000000  0.4472360000000  0.5704660000000 1.0
C      1  0.4014960000000  0.5340080000000  0.5195080000000 1.0
C      1  0.4622410000000  0.4086380000000  0.5233110000000 1.0
C      1  0.4838300000000  0.4068780000000  0.4767890000000 1.0
C      1  0.4167170000000  0.4719060000000  0.4628790000000 1.0
C      1  0.4119420000000  0.4929450000000  0.4426010000000 1.0
C      1  0.4521600000000  0.5047640000000  0.4005690000000 1.0
C      1  0.4575370000000  0.4484370000000  0.4924300000000 1.0
C      1  0.4683330000000  0.4499030000000  0.6051980000000 1.0
C      1  0.5903990000000  0.4592760000000  0.4519490000000 1.0
C      1  0.4395940000000  0.4918450000000  0.4262710000000 1.0
C      1  0.5098930000000  0.5607780000000  0.5750830000000 1.0
C      1  0.5660030000000  0.5434010000000  0.5716540000000 1.0
C      1  0.5581030000000  0.4141340000000  0.5299090000000 1.0
C      1  0.5017520000000  0.4404640000000  0.5103670000000 1.0
C      1  0.5427890000000  0.4073430000000  0.4873710000000 1.0
C      1  0.4757930000000  0.3927280000000  0.5020040000000 1.0
C      1  0.4388350000000  0.4413460000000  0.4276000000000 1.0
C      1  0.4808930000000  0.5468360000000  0.5206660000000 1.0
C      1  0.4523430000000  0.4958120000000  0.4921980000000 1.0
C      1  0.5930960000000  0.5328860000000  0.4591110000000 1.0
C      1  0.6019240000000  0.5044260000000  0.4599740000000 1.0
C      1  0.6083450000000  0.4848420000000  0.4814060000000 1.0
C      1  0.5371920000000  0.4836310000000  0.6009900000000 1.0
C      1  0.5556940000000  0.5668000000000  0.4461820000000 1.0
C      1  0.5556870000000  0.4424540000000  0.5349920000000 1.0
C      1  0.5753420000000  0.4663700000000  0.5716340000000 1.0
C      1  0.5297310000000  0.4297260000000  0.5043610000000 1.0
C      1  0.5087400000000  0.4381810000000  0.4341810000000 1.0
C      1  0.4706400000000  0.5284160000000  0.4409340000000 1.0
C      1  0.5321790000000  0.5697230000000  0.4289540000000 1.0
C      1  0.5773610000000  0.5311490000000  0.5045930000000 1.0
C      1  0.4673680000000  0.4341840000000  0.5799940000000 1.0
C      1  0.5302400000000  0.5501700000000  0.5111090000000 1.0
C      1  0.5555840000000  0.5132410000000  0.4925440000000 1.0
C      1  0.4341760000000  0.5178800000000  0.4906940000000 1.0
C      1  0.4398980000000  0.5889920000000  0.5251950000000 1.0
C      1  0.6188080000000  0.4971980000000  0.5067470000000 1.0
C      1  0.4044190000000  0.5128820000000  0.5373740000000 1.0
C      1  0.5378420000000  0.5990930000000  0.4848120000000 1.0
C      1  0.4818530000000  0.4897320000000  0.5878100000000 1.0
C      1  0.4499510000000  0.4662510000000  0.4160510000000 1.0
C      1  0.5544200000000  0.4716380000000  0.4888480000000 1.0
C      1  0.4700370000000  0.5313650000000  0.5427650000000 1.0
C      1  0.4561660000000  0.4618420000000  0.5176060000000 1.0
C      1  0.4539900000000  0.4750250000000  0.5414900000000 1.0
C      1  0.4488670000000  0.5616120000000  0.5247680000000 1.0
C      1  0.5675810000000  0.4148520000000  0.5015310000000 1.0
C      1  0.5446300000000  0.5401480000000  0.5525280000000 1.0
C      1  0.5546310000000  0.5942280000000  0.5239190000000 1.0
C      1  0.5139960000000  0.5120780000000  0.4548120000000 1.0
C      1  0.5342630000000  0.4054450000000  0.4585320000000 1.0
C      1  0.3998840000000  0.4713600000000  0.4918670000000 1.0
C      1  0.5147750000000  0.5446040000000  0.4166020000000 1.0
C      1  0.5911530000000  0.5480630000000  0.4836090000000 1.0
C      1  0.4868570000000  0.4434800000000  0.5600190000000 1.0
C      1  0.5302980000000  0.6029610000000  0.5151190000000 1.0
C      1  0.4396630000000  0.5144340000000  0.5822150000000 1.0
C      1  0.5935210000000  0.4861660000000  0.4395790000000 1.0
C      1  0.5055120000000  0.5968310000000  0.5305160000000 1.0
C      1  0.4624070000000  0.5724020000000  0.4368180000000 1.0
C      1  0.4862940000000  0.5076670000000  0.5483030000000 1.0
C      1  0.4723480000000  0.4826330000000  0.4537090000000 1.0
C      1  0.5054700000000  0.4466240000000  0.4612090000000 1.0
C      1  0.4891980000000  0.4357560000000  0.4832200000000 1.0
C      1  0.5483720000000  0.4814470000000  0.4191270000000 1.0
C      1  0.4222530000000  0.4271480000000  0.4692810000000 1.0
C      1  0.4984520000000  0.5342950000000  0.4462250000000 1.0
C      1  0.4373120000000  0.4383020000000  0.5798550000000 1.0
C      1  0.4153910000000  0.4356430000000  0.5306400000000 1.0
C      1  0.4626990000000  0.6010880000000  0.5393290000000 1.0
C      1  0.4858140000000  0.5774110000000  0.4530990000000 1.0
C      1  0.4733800000000  0.4618370000000  0.4334240000000 1.0
C      1  0.5259730000000  0.5107670000000  0.5946970000000 1.0
C      1  0.4713860000000  0.5819680000000  0.5591500000000 1.0
C      1  0.4134270000000  0.5202890000000  0.4357970000000 1.0
C      1  0.5078050000000  0.4098740000000  0.4416900000000 1.0
C      1  0.5637480000000  0.5244130000000  0.4207070000000 1.0
C      1  0.4792700000000  0.4089580000000  0.4481710000000 1.0
C      1  0.5983800000000  0.4564070000000  0.4795240000000 1.0
C      1  0.5226400000000  0.5930070000000  0.4407080000000 1.0
C      1  0.5751230000000  0.4993540000000  0.5371760000000 1.0
C      1  0.4967280000000  0.5146750000000  0.5960210000000 1.0
C      1  0.4910260000000  0.4688070000000  0.6061190000000 1.0
C      1  0.4978530000000  0.3883040000000  0.5194760000000 1.0
C      1  0.4872220000000  0.4251770000000  0.5360270000000 1.0
C      1  0.5728830000000  0.5434750000000  0.4406500000000 1.0
C      1  0.5734700000000  0.4968010000000  0.4213980000000 1.0
C      1  0.5004960000000  0.4874590000000  0.4488170000000 1.0
C      1  0.5293820000000  0.4990900000000  0.4031300000000 1.0
C      1  0.4278050000000  0.5486300000000  0.5586900000000 1.0
C      1  0.5271760000000  0.4826420000000  0.5309380000000 1.0
C      1  0.5613330000000  0.4518920000000  0.4480420000000 1.0
C      1  0.5619490000000  0.4410570000000  0.5754950000000 1.0
C      1  0.4607080000000  0.5355400000000  0.5877090000000 1.0
C      1  0.4994150000000  0.5821360000000  0.5570460000000 1.0
C      1  0.4819390000000  0.5089500000000  0.3985280000000 1.0
C      1  0.4037630000000  0.5196080000000  0.4904110000000 1.0
C      1  0.4631540000000  0.5466770000000  0.4184110000000 1.0
C      1  0.5822490000000  0.4513650000000  0.5263010000000 1.0
C      1  0.4791340000000  0.4806010000000  0.5598260000000 1.0
C      1  0.4401670000000  0.5805120000000  0.4532040000000 1.0
C      1  0.4474650000000  0.5983060000000  0.4766820000000 1.0
C      1  0.4173550000000  0.4443910000000  0.4484380000000 1.0
C      1  0.5347090000000  0.4589730000000  0.5477240000000 1.0
C      1  0.6108740000000  0.5298140000000  0.5482120000000 1.0
C      1  0.5392630000000  0.5583860000000  0.5750430000000 1.0
C      1  0.5238730000000  0.5480090000000  0.4825510000000 1.0
C      1  0.4348490000000  0.5282010000000  0.4107460000000 1.0
C      1  0.5338290000000  0.4581970000000  0.4104030000000 1.0
C      1  0.4896140000000  0.5412100000000  0.5876110000000 1.0
C      1  0.4287110000000  0.4750680000000  0.5574810000000 1.0
C      1  0.5400950000000  0.4237200000000  0.5715700000000 1.0
C      1  0.4181480000000  0.5216590000000  0.5621110000000 1.0
C      1  0.4475370000000  0.4723800000000  0.4754890000000 1.0
C      1  0.3983210000000  0.4953140000000  0.5064070000000 1.0
C      1  0.4346890000000  0.4154710000000  0.5184650000000 1.0
C      1  0.5178780000000  0.4621440000000  0.5970480000000 1.0
C      1  0.5333670000000  0.5221830000000  0.4746520000000 1.0
C      1  0.4258420000000  0.5631040000000  0.4878130000000 1.0
C      1  0.4170470000000  0.5616230000000  0.4601120000000 1.0
C      1  0.5100190000000  0.5373350000000  0.5272100000000 1.0
C      1  0.5384070000000  0.5098040000000  0.5678600000000 1.0
C      1  0.4059650000000  0.4548920000000  0.5126830000000 1.0
END
