TITL C-4164233-775-14 30.7066826142716 125000 -24205.7539477189 0 0 162 (C1) n - 1
REM
REM in /home/nfs/bkarasulu/CARBON/AIRSS/Generating-Clusters/ReaxFF-fromJPCA2015/Units_Real/with-SteepDescent/Only-C1/SD-CG/Try1-3A/FIRE-CG
REM
REM
REM
REM
REM
REM ./C.cell (11c1c37f851c82e70ff6c80c92926a4b)
REM
REM compiler GCC version 9.2.1 20190827 (Red Hat 9.2.1-1)
REM options -cpp -mtune=generic -march=x86-64 -g -O0 -fpre-include=/usr/include/finclude/math-vector-fortran.h
REM seed 70761277 -873296447 1818276125 269024 970386628 257323325 -122568982 2030637171 -981290405 -245737668 -465892199 1476143940 -2035252476 1686219228 1679282997 -866958741 -408746928 539862963 -520809823 -568071466 1509756740 1876311942 1004896033 -45839255 803010869 1143149656 -1926476499 759470277 -1139380337 1522562047 464845910 -458109381 750560746
REM
CELL 1.54180   50.00000   50.00000   50.00000   90.00000   90.00000   90.00000
LATT -1
SFAC C  
C      1  0.5144000000000  0.4273210000000  0.4285040000000 1.0
C      1  0.4745810000000  0.5990840000000  0.4817680000000 1.0
C      1  0.5022900000000  0.5331220000000  0.4569460000000 1.0
C      1  0.5232120000000  0.5601470000000  0.5146780000000 1.0
C      1  0.5575730000000  0.4503690000000  0.5779750000000 1.0
C      1  0.5942620000000  0.4727630000000  0.4651880000000 1.0
C      1  0.4731380000000  0.5628360000000  0.5886650000000 1.0
C      1  0.4584270000000  0.5837040000000  0.4574100000000 1.0
C      1  0.6026340000000  0.4734330000000  0.5063580000000 1.0
C      1  0.5315280000000  0.6064990000000  0.5052500000000 1.0
C      1  0.4542220000000  0.4341750000000  0.5801590000000 1.0
C      1  0.5755640000000  0.5297100000000  0.4259370000000 1.0
C      1  0.5919250000000  0.4876440000000  0.5550190000000 1.0
C      1  0.4851450000000  0.4770080000000  0.4767910000000 1.0
C      1  0.5364930000000  0.4146620000000  0.5458320000000 1.0
C      1  0.5151230000000  0.4590990000000  0.5595830000000 1.0
C      1  0.5006040000000  0.4870960000000  0.4420200000000 1.0
C      1  0.4467260000000  0.5761860000000  0.5047380000000 1.0
C      1  0.5942640000000  0.4533090000000  0.4860110000000 1.0
C      1  0.4715730000000  0.4954840000000  0.6090610000000 1.0
C      1  0.4123540000000  0.4539840000000  0.5397870000000 1.0
C      1  0.5092300000000  0.4896400000000  0.4679260000000 1.0
C      1  0.5036540000000  0.4110180000000  0.5038460000000 1.0
C      1  0.4992320000000  0.5533420000000  0.5043140000000 1.0
C      1  0.4681890000000  0.5436310000000  0.6075190000000 1.0
C      1  0.4534450000000  0.5444430000000  0.4354300000000 1.0
C      1  0.4502480000000  0.4526030000000  0.4816330000000 1.0
C      1  0.4869340000000  0.4557930000000  0.5628060000000 1.0
C      1  0.5873420000000  0.5065540000000  0.4406760000000 1.0
C      1  0.4702780000000  0.5844400000000  0.4277650000000 1.0
C      1  0.5287730000000  0.4159570000000  0.5177830000000 1.0
C      1  0.4747330000000  0.5933120000000  0.5393250000000 1.0
C      1  0.4294170000000  0.4995470000000  0.5739160000000 1.0
C      1  0.5185800000000  0.4061340000000  0.5677490000000 1.0
C      1  0.5379470000000  0.4454490000000  0.4380910000000 1.0
C      1  0.4783900000000  0.4016350000000  0.5147000000000 1.0
C      1  0.4936500000000  0.5022930000000  0.5098600000000 1.0
C      1  0.5387030000000  0.5227940000000  0.5613000000000 1.0
C      1  0.5069700000000  0.5813470000000  0.4469970000000 1.0
C      1  0.5544530000000  0.5881500000000  0.5094940000000 1.0
C      1  0.4857530000000  0.4300050000000  0.5808160000000 1.0
C      1  0.4656010000000  0.4089190000000  0.4699170000000 1.0
C      1  0.4351390000000  0.5274130000000  0.5723570000000 1.0
C      1  0.4389050000000  0.5159750000000  0.4016770000000 1.0
C      1  0.5118980000000  0.4682390000000  0.4015800000000 1.0
C      1  0.5069040000000  0.5485090000000  0.4116000000000 1.0
C      1  0.4265910000000  0.5795770000000  0.4576990000000 1.0
C      1  0.5209260000000  0.5051270000000  0.5987780000000 1.0
C      1  0.4559550000000  0.5650290000000  0.4124800000000 1.0
C      1  0.5957650000000  0.5152580000000  0.5457560000000 1.0
C      1  0.4447610000000  0.4957230000000  0.4523040000000 1.0
C      1  0.4202090000000  0.5660530000000  0.4981670000000 1.0
C      1  0.4964500000000  0.5740090000000  0.4209270000000 1.0
C      1  0.5605900000000  0.5138480000000  0.5116630000000 1.0
C      1  0.5550520000000  0.4736800000000  0.5430970000000 1.0
C      1  0.4514370000000  0.4906380000000  0.5266360000000 1.0
C      1  0.4553230000000  0.5762590000000  0.5530270000000 1.0
C      1  0.5900210000000  0.5171680000000  0.5170080000000 1.0
C      1  0.4504930000000  0.4209130000000  0.5536620000000 1.0
C      1  0.5509870000000  0.5301050000000  0.4103160000000 1.0
C      1  0.4590330000000  0.4447220000000  0.5080100000000 1.0
C      1  0.4924600000000  0.5179330000000  0.4071570000000 1.0
C      1  0.5407740000000  0.4615370000000  0.5029660000000 1.0
C      1  0.5266420000000  0.4764190000000  0.5400400000000 1.0
C      1  0.4558890000000  0.5573030000000  0.5281640000000 1.0
C      1  0.5137450000000  0.4540220000000  0.4918500000000 1.0
C      1  0.4972810000000  0.4477490000000  0.4170360000000 1.0
C      1  0.4525960000000  0.5135100000000  0.5382780000000 1.0
C      1  0.4657370000000  0.5972870000000  0.5089510000000 1.0
C      1  0.6015920000000  0.5013750000000  0.4953250000000 1.0
C      1  0.5857770000000  0.4582440000000  0.4423370000000 1.0
C      1  0.4068830000000  0.4937080000000  0.5044500000000 1.0
C      1  0.5545640000000  0.4343090000000  0.5085470000000 1.0
C      1  0.4372670000000  0.4335350000000  0.5308000000000 1.0
C      1  0.4622240000000  0.4961090000000  0.4757110000000 1.0
C      1  0.5393730000000  0.5179240000000  0.5322900000000 1.0
C      1  0.5362120000000  0.5003470000000  0.4762210000000 1.0
C      1  0.5663640000000  0.4160960000000  0.4635370000000 1.0
C      1  0.5520740000000  0.5700380000000  0.4382680000000 1.0
C      1  0.5276140000000  0.6042590000000  0.4750860000000 1.0
C      1  0.4772620000000  0.5156340000000  0.4906080000000 1.0
C      1  0.4227340000000  0.4589380000000  0.4750150000000 1.0
C      1  0.4154150000000  0.4802880000000  0.5523700000000 1.0
C      1  0.4061670000000  0.5296240000000  0.4678600000000 1.0
C      1  0.4899660000000  0.4027860000000  0.5654180000000 1.0
C      1  0.5115900000000  0.4092570000000  0.4516770000000 1.0
C      1  0.5771370000000  0.5542110000000  0.4410440000000 1.0
C      1  0.5591920000000  0.4311080000000  0.5568050000000 1.0
C      1  0.4234420000000  0.4287460000000  0.4437750000000 1.0
C      1  0.4955670000000  0.4881460000000  0.5955110000000 1.0
C      1  0.4517480000000  0.4196230000000  0.4447370000000 1.0
C      1  0.5524120000000  0.4865010000000  0.4951210000000 1.0
C      1  0.4553500000000  0.4023190000000  0.4962420000000 1.0
C      1  0.4603050000000  0.5541740000000  0.4611490000000 1.0
C      1  0.5229650000000  0.4508660000000  0.4671350000000 1.0
C      1  0.4368040000000  0.5355280000000  0.5322620000000 1.0
C      1  0.5402090000000  0.5049410000000  0.3998020000000 1.0
C      1  0.5465440000000  0.5265130000000  0.4837190000000 1.0
C      1  0.5752930000000  0.4302180000000  0.4881720000000 1.0
C      1  0.5683600000000  0.5584360000000  0.5716320000000 1.0
C      1  0.5950680000000  0.4680110000000  0.5343210000000 1.0
C      1  0.5807790000000  0.4822070000000  0.4259880000000 1.0
C      1  0.4177330000000  0.5088220000000  0.4498940000000 1.0
C      1  0.4091430000000  0.4362330000000  0.4686670000000 1.0
C      1  0.4925800000000  0.4189620000000  0.4747120000000 1.0
C      1  0.5988060000000  0.5124790000000  0.4674440000000 1.0
C      1  0.5078050000000  0.5300700000000  0.6064170000000 1.0
C      1  0.4307350000000  0.4128230000000  0.5088680000000 1.0
C      1  0.5169320000000  0.5005320000000  0.5263930000000 1.0
C      1  0.4997500000000  0.6020530000000  0.4672600000000 1.0
C      1  0.5392090000000  0.4080680000000  0.4572590000000 1.0
C      1  0.4751620000000  0.5091190000000  0.5534040000000 1.0
C      1  0.4037080000000  0.4689180000000  0.4919600000000 1.0
C      1  0.4766370000000  0.4505490000000  0.4670310000000 1.0
C      1  0.4930140000000  0.5294760000000  0.5480480000000 1.0
C      1  0.5185620000000  0.5563830000000  0.4582660000000 1.0
C      1  0.5184810000000  0.5782920000000  0.5696310000000 1.0
C      1  0.5627030000000  0.5766490000000  0.4839890000000 1.0
C      1  0.4231560000000  0.4899950000000  0.5264890000000 1.0
C      1  0.5867260000000  0.5378920000000  0.5626700000000 1.0
C      1  0.5404360000000  0.5523840000000  0.4759190000000 1.0
C      1  0.4197650000000  0.5085050000000  0.4214520000000 1.0
C      1  0.4048220000000  0.5205180000000  0.4950350000000 1.0
C      1  0.5823340000000  0.5594800000000  0.4808190000000 1.0
C      1  0.4629410000000  0.5020420000000  0.4094460000000 1.0
C      1  0.4840010000000  0.5401110000000  0.4774560000000 1.0
C      1  0.5455870000000  0.5685280000000  0.5294750000000 1.0
C      1  0.4861460000000  0.4540510000000  0.5103530000000 1.0
C      1  0.5376140000000  0.4627010000000  0.4128440000000 1.0
C      1  0.5146660000000  0.4249220000000  0.5900630000000 1.0
C      1  0.4489340000000  0.5551350000000  0.5730810000000 1.0
C      1  0.5443730000000  0.5030100000000  0.5811020000000 1.0
C      1  0.5123790000000  0.4975950000000  0.3974900000000 1.0
C      1  0.4858400000000  0.5484950000000  0.5290390000000 1.0
C      1  0.5022900000000  0.5962610000000  0.5502750000000 1.0
C      1  0.4552710000000  0.4799560000000  0.4281050000000 1.0
C      1  0.4101810000000  0.5594130000000  0.4699740000000 1.0
C      1  0.4078620000000  0.4251280000000  0.4962840000000 1.0
C      1  0.4710700000000  0.4030360000000  0.5435740000000 1.0
C      1  0.4781230000000  0.4795260000000  0.5197030000000 1.0
C      1  0.5642940000000  0.4802920000000  0.5712510000000 1.0
C      1  0.4986410000000  0.5143610000000  0.4360170000000 1.0
C      1  0.5572050000000  0.4822750000000  0.4076330000000 1.0
C      1  0.5483570000000  0.5898000000000  0.4592700000000 1.0
C      1  0.4815290000000  0.4639410000000  0.4369100000000 1.0
C      1  0.4351300000000  0.5450820000000  0.4124380000000 1.0
C      1  0.4819340000000  0.5222360000000  0.6189200000000 1.0
C      1  0.5445410000000  0.5727290000000  0.5595740000000 1.0
C      1  0.5047820000000  0.5569020000000  0.5847970000000 1.0
C      1  0.5126480000000  0.6042910000000  0.5261140000000 1.0
C      1  0.5666940000000  0.4355160000000  0.4418340000000 1.0
C      1  0.5927110000000  0.5424290000000  0.4655250000000 1.0
C      1  0.4820980000000  0.4837800000000  0.5698650000000 1.0
C      1  0.4445620000000  0.4451850000000  0.4331640000000 1.0
C      1  0.4161680000000  0.5411640000000  0.5125030000000 1.0
C      1  0.4008800000000  0.4482090000000  0.5132190000000 1.0
C      1  0.5118820000000  0.5350720000000  0.5662640000000 1.0
C      1  0.4477850000000  0.4599550000000  0.5879750000000 1.0
C      1  0.5295080000000  0.4491220000000  0.5839910000000 1.0
C      1  0.5341950000000  0.5527140000000  0.4180990000000 1.0
C      1  0.4454820000000  0.4858850000000  0.5959760000000 1.0
C      1  0.5701210000000  0.4482850000000  0.5351130000000 1.0
END
