TITL C-4164243-3780-640 -26.0804944759701 125000 -14669.4824280165 0 0 97 (C1) n - 1
REM
REM in /home/nfs/bkarasulu/CARBON/AIRSS/Generating-Clusters/ReaxFF-fromJPCA2015/Units_Real/with-SteepDescent/Only-C1/SD-CG/Try1-3A/FIRE-CG
REM
REM
REM
REM
REM
REM ./C.cell (11c1c37f851c82e70ff6c80c92926a4b)
REM
REM compiler GCC version 9.2.1 20190827 (Red Hat 9.2.1-1)
REM options -cpp -mtune=generic -march=x86-64 -g -O0 -fpre-include=/usr/include/finclude/math-vector-fortran.h
REM seed 1613078804 80599107 -1062563388 1422084381 -1529970921 -1540506207 -694839110 1486986182 -693832573 1621767363 -1709397121 600390643 -1769702087 -612606396 43697637 157065481 618128096 -447215835 -794518584 -613860632 907923368 685099281 -11603853 -256721301 829175306 -2089242358 1930020794 -1188228199 1190993840 -516380717 -401661023 1959590420 -1588679688
REM
CELL 1.54180   50.00000   50.00000   50.00000   90.00000   90.00000   90.00000
LATT -1
SFAC C  
C      1  0.4358640000000  0.5339110000000  0.4582510000000 1.0
C      1  0.4944430000000  0.6044850000000  0.4662700000000 1.0
C      1  0.5730640000000  0.4477650000000  0.5341000000000 1.0
C      1  0.4149560000000  0.5084160000000  0.5059830000000 1.0
C      1  0.5866530000000  0.5308360000000  0.4902080000000 1.0
C      1  0.4971520000000  0.6115080000000  0.4899000000000 1.0
C      1  0.5031710000000  0.5966380000000  0.5129830000000 1.0
C      1  0.5745950000000  0.5633720000000  0.5223830000000 1.0
C      1  0.4722190000000  0.4085530000000  0.5201470000000 1.0
C      1  0.5003450000000  0.4501500000000  0.4064960000000 1.0
C      1  0.4378790000000  0.4810920000000  0.5600350000000 1.0
C      1  0.5401200000000  0.4708750000000  0.5647400000000 1.0
C      1  0.4822760000000  0.4849880000000  0.4216000000000 1.0
C      1  0.4769120000000  0.4862990000000  0.5288390000000 1.0
C      1  0.4454850000000  0.4483910000000  0.4550280000000 1.0
C      1  0.5057850000000  0.5103650000000  0.4863930000000 1.0
C      1  0.4899120000000  0.5933440000000  0.5407880000000 1.0
C      1  0.4349370000000  0.4446780000000  0.4823560000000 1.0
C      1  0.5116220000000  0.4204390000000  0.4709180000000 1.0
C      1  0.5897630000000  0.5390490000000  0.5177400000000 1.0
C      1  0.4634600000000  0.5146850000000  0.5842010000000 1.0
C      1  0.5416410000000  0.5003720000000  0.5599660000000 1.0
C      1  0.5420560000000  0.5306400000000  0.4326440000000 1.0
C      1  0.5341820000000  0.5191970000000  0.4809300000000 1.0
C      1  0.5535640000000  0.5614800000000  0.5017630000000 1.0
C      1  0.5865660000000  0.5211950000000  0.5425200000000 1.0
C      1  0.5617800000000  0.5221370000000  0.5601160000000 1.0
C      1  0.5045950000000  0.5033520000000  0.4185890000000 1.0
C      1  0.4885250000000  0.5414550000000  0.5468370000000 1.0
C      1  0.4823230000000  0.4219040000000  0.4705060000000 1.0
C      1  0.4417070000000  0.5704310000000  0.4951330000000 1.0
C      1  0.4564120000000  0.4944230000000  0.4311820000000 1.0
C      1  0.5631220000000  0.5696620000000  0.5500980000000 1.0
C      1  0.5531040000000  0.4998910000000  0.4898140000000 1.0
C      1  0.4597780000000  0.5089640000000  0.4819600000000 1.0
C      1  0.5485200000000  0.4827120000000  0.4366770000000 1.0
C      1  0.4714140000000  0.5209420000000  0.5276030000000 1.0
C      1  0.5898810000000  0.4947300000000  0.5443260000000 1.0
C      1  0.5069590000000  0.5718090000000  0.4975290000000 1.0
C      1  0.4248330000000  0.4675200000000  0.5380820000000 1.0
C      1  0.4527380000000  0.5232130000000  0.4370490000000 1.0
C      1  0.4404470000000  0.5097760000000  0.5661620000000 1.0
C      1  0.4779200000000  0.5226240000000  0.4988330000000 1.0
C      1  0.5054190000000  0.4896480000000  0.5310910000000 1.0
C      1  0.5647140000000  0.4560500000000  0.5598230000000 1.0
C      1  0.4656900000000  0.4702830000000  0.5533680000000 1.0
C      1  0.5459300000000  0.5465090000000  0.5563540000000 1.0
C      1  0.5210050000000  0.4677480000000  0.4690240000000 1.0
C      1  0.4749940000000  0.5606500000000  0.4560250000000 1.0
C      1  0.4707960000000  0.4712070000000  0.5048990000000 1.0
C      1  0.5810140000000  0.5021770000000  0.4838070000000 1.0
C      1  0.4741920000000  0.5687410000000  0.5408480000000 1.0
C      1  0.4266450000000  0.5114180000000  0.4774590000000 1.0
C      1  0.4994730000000  0.4860010000000  0.4677780000000 1.0
C      1  0.5211160000000  0.5107190000000  0.5435210000000 1.0
C      1  0.4209330000000  0.5302340000000  0.5239920000000 1.0
C      1  0.5208420000000  0.5408830000000  0.5377670000000 1.0
C      1  0.4988750000000  0.5320010000000  0.4186900000000 1.0
C      1  0.4150620000000  0.4804290000000  0.5132470000000 1.0
C      1  0.4593350000000  0.4201710000000  0.5422560000000 1.0
C      1  0.5136840000000  0.4583560000000  0.5612650000000 1.0
C      1  0.4379230000000  0.4754250000000  0.4441000000000 1.0
C      1  0.5665890000000  0.5487210000000  0.4784370000000 1.0
C      1  0.5252290000000  0.4418810000000  0.4562720000000 1.0
C      1  0.5106630000000  0.4357650000000  0.5417850000000 1.0
C      1  0.4726290000000  0.4824510000000  0.4782840000000 1.0
C      1  0.4665470000000  0.4211550000000  0.4955810000000 1.0
C      1  0.4164290000000  0.4663790000000  0.4868140000000 1.0
C      1  0.5651000000000  0.4683660000000  0.4498050000000 1.0
C      1  0.4550080000000  0.4465750000000  0.5051130000000 1.0
C      1  0.4848930000000  0.4538550000000  0.4259150000000 1.0
C      1  0.5339720000000  0.5021990000000  0.4255810000000 1.0
C      1  0.5289210000000  0.4310920000000  0.5200110000000 1.0
C      1  0.4254050000000  0.5587320000000  0.5162380000000 1.0
C      1  0.5793030000000  0.4855750000000  0.4624150000000 1.0
C      1  0.5529500000000  0.4487160000000  0.5111110000000 1.0
C      1  0.4461660000000  0.4463280000000  0.5379050000000 1.0
C      1  0.4976100000000  0.5765530000000  0.4681000000000 1.0
C      1  0.4497170000000  0.5571300000000  0.4697640000000 1.0
C      1  0.5243350000000  0.5488940000000  0.4173300000000 1.0
C      1  0.4497950000000  0.5729570000000  0.5234200000000 1.0
C      1  0.5153880000000  0.4890650000000  0.5050780000000 1.0
C      1  0.4753620000000  0.5413830000000  0.4342900000000 1.0
C      1  0.4198520000000  0.4846300000000  0.4644240000000 1.0
C      1  0.4900770000000  0.4730400000000  0.5705490000000 1.0
C      1  0.5383950000000  0.4754990000000  0.4949860000000 1.0
C      1  0.4705710000000  0.4366510000000  0.4489070000000 1.0
C      1  0.5542900000000  0.4433020000000  0.4600750000000 1.0
C      1  0.4878610000000  0.4172280000000  0.5418060000000 1.0
C      1  0.4439110000000  0.5232580000000  0.5406660000000 1.0
C      1  0.4867030000000  0.5281150000000  0.5735680000000 1.0
C      1  0.5449550000000  0.5376450000000  0.4617910000000 1.0
C      1  0.5263910000000  0.5544720000000  0.5105250000000 1.0
C      1  0.5908760000000  0.4675480000000  0.5472020000000 1.0
C      1  0.5549820000000  0.4306480000000  0.4867290000000 1.0
C      1  0.5298360000000  0.4175760000000  0.4938320000000 1.0
C      1  0.4889730000000  0.4996960000000  0.5827010000000 1.0
END
