TITL C-4164247-2821-236 114.76049104786 125000 -18661.6972855943 0 0 126 (C1) n - 1
REM
REM in /home/nfs/bkarasulu/CARBON/AIRSS/Generating-Clusters/ReaxFF-fromJPCA2015/Units_Real/with-SteepDescent/Only-C1/SD-CG/Try1-3A/FIRE-CG
REM
REM
REM
REM
REM
REM ./C.cell (11c1c37f851c82e70ff6c80c92926a4b)
REM
REM compiler GCC version 9.2.1 20190827 (Red Hat 9.2.1-1)
REM options -cpp -mtune=generic -march=x86-64 -g -O0 -fpre-include=/usr/include/finclude/math-vector-fortran.h
REM seed -123909273 -523112887 729110468 421915326 1740421202 1613296529 -241245232 -2118270840 1380838256 -1668730596 -1354638099 395804412 -1010956093 -1260791014 854796342 1688633843 -2027887263 -1682505510 -1889216229 -815718504 955070793 1634690555 -2023856466 228658295 -919559365 -674681873 -1393187465 9921953 1043540669 -679004181 1373085924 1001446789 -78027326
REM
CELL 1.54180   50.00000   50.00000   50.00000   90.00000   90.00000   90.00000
LATT -1
SFAC C  
C      1  0.5566190000000  0.4350500000000  0.4758170000000 1.0
C      1  0.5876080000000  0.5318600000000  0.5405540000000 1.0
C      1  0.4609270000000  0.4694680000000  0.5555120000000 1.0
C      1  0.4998640000000  0.5238980000000  0.5943570000000 1.0
C      1  0.5241320000000  0.5540630000000  0.4697820000000 1.0
C      1  0.4421370000000  0.4889320000000  0.5139420000000 1.0
C      1  0.5409260000000  0.4775750000000  0.4760660000000 1.0
C      1  0.3966690000000  0.4985480000000  0.5106200000000 1.0
C      1  0.4944040000000  0.5896310000000  0.5268130000000 1.0
C      1  0.4698240000000  0.5277930000000  0.4178220000000 1.0
C      1  0.4872870000000  0.4284710000000  0.4416140000000 1.0
C      1  0.4143100000000  0.5456720000000  0.5034630000000 1.0
C      1  0.4193900000000  0.5002960000000  0.5292950000000 1.0
C      1  0.4687630000000  0.5128090000000  0.5333830000000 1.0
C      1  0.4473450000000  0.5800400000000  0.5187700000000 1.0
C      1  0.5361330000000  0.4183280000000  0.5338840000000 1.0
C      1  0.3916520000000  0.4702310000000  0.5037160000000 1.0
C      1  0.4935980000000  0.5069880000000  0.4809570000000 1.0
C      1  0.4361060000000  0.5444740000000  0.5505110000000 1.0
C      1  0.5500010000000  0.4836910000000  0.5682280000000 1.0
C      1  0.5423600000000  0.4879010000000  0.4155210000000 1.0
C      1  0.5830120000000  0.5120260000000  0.4822130000000 1.0
C      1  0.5202130000000  0.4624230000000  0.4634670000000 1.0
C      1  0.4402950000000  0.4373230000000  0.4563190000000 1.0
C      1  0.4161520000000  0.4493210000000  0.4679250000000 1.0
C      1  0.5160060000000  0.5360550000000  0.4211210000000 1.0
C      1  0.5098000000000  0.5472350000000  0.5163920000000 1.0
C      1  0.5672660000000  0.4421610000000  0.5039080000000 1.0
C      1  0.5811330000000  0.5273600000000  0.4568250000000 1.0
C      1  0.4594500000000  0.4277270000000  0.5355350000000 1.0
C      1  0.4988860000000  0.4710100000000  0.5901240000000 1.0
C      1  0.4865130000000  0.4463080000000  0.5803950000000 1.0
C      1  0.4937880000000  0.4837860000000  0.4169460000000 1.0
C      1  0.4252310000000  0.5255430000000  0.4826390000000 1.0
C      1  0.5897660000000  0.4810840000000  0.4506650000000 1.0
C      1  0.5040250000000  0.5958150000000  0.4985020000000 1.0
C      1  0.4065660000000  0.4475770000000  0.5169010000000 1.0
C      1  0.4624360000000  0.4438130000000  0.4356050000000 1.0
C      1  0.4789950000000  0.5254820000000  0.4638940000000 1.0
C      1  0.4545210000000  0.5821510000000  0.4924290000000 1.0
C      1  0.4175870000000  0.4338690000000  0.4928130000000 1.0
C      1  0.5350510000000  0.5706940000000  0.5557120000000 1.0
C      1  0.5619930000000  0.5475830000000  0.4475150000000 1.0
C      1  0.5198100000000  0.5514500000000  0.5710320000000 1.0
C      1  0.4038890000000  0.5034150000000  0.4821460000000 1.0
C      1  0.4836220000000  0.4130710000000  0.5326780000000 1.0
C      1  0.4585670000000  0.4974690000000  0.5851190000000 1.0
C      1  0.4256430000000  0.5580860000000  0.5264780000000 1.0
C      1  0.5680860000000  0.5335960000000  0.5620230000000 1.0
C      1  0.4842300000000  0.4957920000000  0.5950040000000 1.0
C      1  0.4343370000000  0.4959830000000  0.5718150000000 1.0
C      1  0.4016430000000  0.4746280000000  0.4761470000000 1.0
C      1  0.4492110000000  0.5340860000000  0.4574320000000 1.0
C      1  0.5643770000000  0.5150660000000  0.5053110000000 1.0
C      1  0.4258830000000  0.4503410000000  0.5375030000000 1.0
C      1  0.4978300000000  0.4331660000000  0.4919170000000 1.0
C      1  0.4591060000000  0.4756500000000  0.4715640000000 1.0
C      1  0.5846240000000  0.4656850000000  0.5025670000000 1.0
C      1  0.5835040000000  0.5064420000000  0.4367340000000 1.0
C      1  0.5094560000000  0.4144600000000  0.5481020000000 1.0
C      1  0.5274840000000  0.4703340000000  0.5809720000000 1.0
C      1  0.4659070000000  0.4696990000000  0.4241780000000 1.0
C      1  0.5654370000000  0.5705150000000  0.4920650000000 1.0
C      1  0.5204820000000  0.4580860000000  0.5548640000000 1.0
C      1  0.5505500000000  0.5131500000000  0.5740020000000 1.0
C      1  0.5101880000000  0.4341290000000  0.5692950000000 1.0
C      1  0.5920030000000  0.4842130000000  0.4796210000000 1.0
C      1  0.4793190000000  0.5321510000000  0.5507750000000 1.0
C      1  0.5315470000000  0.5028890000000  0.5125140000000 1.0
C      1  0.4941740000000  0.5472790000000  0.4747650000000 1.0
C      1  0.4696090000000  0.5785610000000  0.5375570000000 1.0
C      1  0.4738020000000  0.5564200000000  0.4264310000000 1.0
C      1  0.5225660000000  0.5872940000000  0.5354680000000 1.0
C      1  0.4653390000000  0.4413860000000  0.5603310000000 1.0
C      1  0.4851050000000  0.4801130000000  0.4837540000000 1.0
C      1  0.5610130000000  0.5605090000000  0.5527790000000 1.0
C      1  0.5290260000000  0.4478680000000  0.4162130000000 1.0
C      1  0.4475940000000  0.4664760000000  0.4966620000000 1.0
C      1  0.5624380000000  0.4604380000000  0.4706540000000 1.0
C      1  0.5128610000000  0.5768820000000  0.4527170000000 1.0
C      1  0.5025250000000  0.5612570000000  0.4297150000000 1.0
C      1  0.5727750000000  0.4576020000000  0.4451370000000 1.0
C      1  0.5006860000000  0.4612230000000  0.4996110000000 1.0
C      1  0.5298180000000  0.4350610000000  0.4628490000000 1.0
C      1  0.4954480000000  0.5161890000000  0.4141330000000 1.0
C      1  0.5469520000000  0.5355170000000  0.4253320000000 1.0
C      1  0.5289100000000  0.5585040000000  0.5007580000000 1.0
C      1  0.5554130000000  0.4420370000000  0.5308150000000 1.0
C      1  0.4259400000000  0.5171490000000  0.5527890000000 1.0
C      1  0.5290170000000  0.5282160000000  0.5868300000000 1.0
C      1  0.4632580000000  0.5560510000000  0.5578150000000 1.0
C      1  0.4765900000000  0.4853320000000  0.5384020000000 1.0
C      1  0.5071500000000  0.5311820000000  0.5529460000000 1.0
C      1  0.5518710000000  0.5681730000000  0.4666960000000 1.0
C      1  0.4561660000000  0.5620600000000  0.4482980000000 1.0
C      1  0.5849950000000  0.5072200000000  0.5249400000000 1.0
C      1  0.4667870000000  0.5290070000000  0.5106030000000 1.0
C      1  0.5596600000000  0.5475910000000  0.5086930000000 1.0
C      1  0.4645980000000  0.5838310000000  0.4670160000000 1.0
C      1  0.5829880000000  0.4777570000000  0.5292470000000 1.0
C      1  0.4318090000000  0.4674690000000  0.5592590000000 1.0
C      1  0.4828180000000  0.4202160000000  0.4695820000000 1.0
C      1  0.5309430000000  0.5869690000000  0.5069890000000 1.0
C      1  0.4514790000000  0.4856070000000  0.4432420000000 1.0
C      1  0.5058290000000  0.4809180000000  0.4457030000000 1.0
C      1  0.4465340000000  0.4362500000000  0.5042150000000 1.0
C      1  0.4546540000000  0.4231570000000  0.4769960000000 1.0
C      1  0.4944480000000  0.5905430000000  0.4712730000000 1.0
C      1  0.5380670000000  0.5047140000000  0.4669570000000 1.0
C      1  0.5208930000000  0.4733760000000  0.5172470000000 1.0
C      1  0.4845700000000  0.5475180000000  0.5879700000000 1.0
C      1  0.5625250000000  0.4662830000000  0.5468330000000 1.0
C      1  0.5186460000000  0.4722130000000  0.4045220000000 1.0
C      1  0.5188090000000  0.5234330000000  0.5286660000000 1.0
C      1  0.5160610000000  0.4311260000000  0.4371330000000 1.0
C      1  0.5279350000000  0.3999160000000  0.5122840000000 1.0
C      1  0.5211030000000  0.5103360000000  0.4877430000000 1.0
C      1  0.4499080000000  0.5139650000000  0.4353580000000 1.0
C      1  0.5249140000000  0.5016880000000  0.4412950000000 1.0
C      1  0.5756150000000  0.5570060000000  0.5286210000000 1.0
C      1  0.5544570000000  0.4605620000000  0.4219240000000 1.0
C      1  0.4477220000000  0.5130050000000  0.4990100000000 1.0
C      1  0.4862660000000  0.5469200000000  0.5015730000000 1.0
C      1  0.5613270000000  0.5119530000000  0.4182680000000 1.0
C      1  0.5039130000000  0.4769160000000  0.5399600000000 1.0
C      1  0.4982090000000  0.4081400000000  0.5070900000000 1.0
END
