TITL C-4164242-3624-487 17.1534263683785 125000 -16204.0410085578 0 0 111 (C1) n - 1
REM
REM in /home/nfs/bkarasulu/CARBON/AIRSS/Generating-Clusters/ReaxFF-fromJPCA2015/Units_Real/with-SteepDescent/Only-C1/SD-CG/Try1-3A/FIRE-CG
REM
REM
REM
REM
REM
REM ./C.cell (11c1c37f851c82e70ff6c80c92926a4b)
REM
REM compiler GCC version 9.2.1 20190827 (Red Hat 9.2.1-1)
REM options -cpp -mtune=generic -march=x86-64 -g -O0 -fpre-include=/usr/include/finclude/math-vector-fortran.h
REM seed 1739930124 289182127 -686486296 734777812 -355334575 -1937058453 -123790541 -1530965846 472543192 2044095443 1364672885 2083215175 725562812 -1935609865 -999608701 704715303 333876006 665905072 373917909 -1680616902 547297903 707840497 2023379000 -351157810 -1912570334 1462107690 2136957275 2055257434 481005224 -1651693597 -1219641768 546101615 253938997
REM
CELL 1.54180   50.00000   50.00000   50.00000   90.00000   90.00000   90.00000
LATT -1
SFAC C  
C      1  0.5321840000000  0.4338540000000  0.4309510000000 1.0
C      1  0.4955250000000  0.4686010000000  0.5498760000000 1.0
C      1  0.4744070000000  0.4850190000000  0.5625460000000 1.0
C      1  0.5365350000000  0.5517560000000  0.5678060000000 1.0
C      1  0.5022660000000  0.5272690000000  0.4752660000000 1.0
C      1  0.4209570000000  0.4545310000000  0.4834570000000 1.0
C      1  0.5382980000000  0.5162750000000  0.5225760000000 1.0
C      1  0.5476050000000  0.4369980000000  0.4540740000000 1.0
C      1  0.4468490000000  0.5793600000000  0.5050330000000 1.0
C      1  0.4844910000000  0.4305900000000  0.5263330000000 1.0
C      1  0.5372710000000  0.4981870000000  0.5680230000000 1.0
C      1  0.5864010000000  0.4914030000000  0.4865870000000 1.0
C      1  0.4898630000000  0.5130020000000  0.5772230000000 1.0
C      1  0.5117840000000  0.5091780000000  0.5577440000000 1.0
C      1  0.4079810000000  0.5157720000000  0.4988430000000 1.0
C      1  0.5378170000000  0.5778970000000  0.4584450000000 1.0
C      1  0.5605960000000  0.4785100000000  0.4888910000000 1.0
C      1  0.5152540000000  0.4096680000000  0.4842290000000 1.0
C      1  0.4081030000000  0.4759510000000  0.4685530000000 1.0
C      1  0.4605090000000  0.4927410000000  0.5363360000000 1.0
C      1  0.4000780000000  0.4940040000000  0.5436900000000 1.0
C      1  0.5641070000000  0.4838650000000  0.4097900000000 1.0
C      1  0.5766870000000  0.5485550000000  0.4849310000000 1.0
C      1  0.4693150000000  0.5409340000000  0.5469510000000 1.0
C      1  0.5079000000000  0.5765500000000  0.4599390000000 1.0
C      1  0.5103000000000  0.4477340000000  0.5652340000000 1.0
C      1  0.5449080000000  0.5599400000000  0.5214180000000 1.0
C      1  0.5881880000000  0.5078490000000  0.5109940000000 1.0
C      1  0.4980350000000  0.5470920000000  0.5291480000000 1.0
C      1  0.5440920000000  0.5363720000000  0.5045850000000 1.0
C      1  0.4881080000000  0.5006040000000  0.5175970000000 1.0
C      1  0.4876310000000  0.5444160000000  0.4304770000000 1.0
C      1  0.4767300000000  0.4211580000000  0.4539620000000 1.0
C      1  0.4622850000000  0.5558260000000  0.4606620000000 1.0
C      1  0.5314980000000  0.5237080000000  0.4829040000000 1.0
C      1  0.5114130000000  0.4806390000000  0.4129210000000 1.0
C      1  0.5520830000000  0.4700850000000  0.5627960000000 1.0
C      1  0.4397360000000  0.5110100000000  0.4644650000000 1.0
C      1  0.4997410000000  0.4755730000000  0.5224460000000 1.0
C      1  0.4725910000000  0.5832460000000  0.5175550000000 1.0
C      1  0.5618110000000  0.5429780000000  0.5558320000000 1.0
C      1  0.4508600000000  0.5321090000000  0.4474030000000 1.0
C      1  0.5768930000000  0.4751240000000  0.4652830000000 1.0
C      1  0.4899920000000  0.4612580000000  0.4141500000000 1.0
C      1  0.4470730000000  0.4500000000000  0.4712960000000 1.0
C      1  0.5574120000000  0.5139260000000  0.5462520000000 1.0
C      1  0.3989390000000  0.4779520000000  0.5184630000000 1.0
C      1  0.5063390000000  0.4382920000000  0.4214780000000 1.0
C      1  0.5575640000000  0.4521280000000  0.5144050000000 1.0
C      1  0.5785280000000  0.4945540000000  0.5349120000000 1.0
C      1  0.4666610000000  0.5632080000000  0.5625000000000 1.0
C      1  0.5681250000000  0.4677820000000  0.5387830000000 1.0
C      1  0.5567920000000  0.4209420000000  0.5116940000000 1.0
C      1  0.5132650000000  0.4610030000000  0.5014210000000 1.0
C      1  0.4867950000000  0.4041510000000  0.4762760000000 1.0
C      1  0.5300420000000  0.4098900000000  0.5114790000000 1.0
C      1  0.4445220000000  0.5190180000000  0.5371550000000 1.0
C      1  0.4672730000000  0.4685450000000  0.4838560000000 1.0
C      1  0.5303590000000  0.4867260000000  0.5947930000000 1.0
C      1  0.4744610000000  0.5388010000000  0.5743410000000 1.0
C      1  0.5060560000000  0.5081210000000  0.4072400000000 1.0
C      1  0.5348250000000  0.5656420000000  0.4300830000000 1.0
C      1  0.5822980000000  0.5359230000000  0.4580060000000 1.0
C      1  0.4354290000000  0.5254530000000  0.5067670000000 1.0
C      1  0.5132850000000  0.5106310000000  0.5985830000000 1.0
C      1  0.5433630000000  0.4761940000000  0.4216480000000 1.0
C      1  0.4193870000000  0.5139060000000  0.5535630000000 1.0
C      1  0.3951900000000  0.4904690000000  0.4913730000000 1.0
C      1  0.4905850000000  0.4272410000000  0.5739930000000 1.0
C      1  0.5056890000000  0.5683990000000  0.4321000000000 1.0
C      1  0.4480190000000  0.4663120000000  0.5247670000000 1.0
C      1  0.5698120000000  0.5343840000000  0.4391050000000 1.0
C      1  0.4428490000000  0.5689740000000  0.4776830000000 1.0
C      1  0.4987710000000  0.4425050000000  0.4538250000000 1.0
C      1  0.4468730000000  0.4862760000000  0.4293540000000 1.0
C      1  0.4320270000000  0.5550020000000  0.5013650000000 1.0
C      1  0.5100790000000  0.5181050000000  0.5304230000000 1.0
C      1  0.4690050000000  0.4509140000000  0.5125820000000 1.0
C      1  0.4556340000000  0.4399800000000  0.4451640000000 1.0
C      1  0.4627300000000  0.4345180000000  0.5755880000000 1.0
C      1  0.4761230000000  0.5852880000000  0.5463860000000 1.0
C      1  0.4901640000000  0.5584940000000  0.4771970000000 1.0
C      1  0.5583970000000  0.5713680000000  0.4780360000000 1.0
C      1  0.4625520000000  0.4619540000000  0.4266690000000 1.0
C      1  0.5453130000000  0.5389980000000  0.4242370000000 1.0
C      1  0.5718160000000  0.5539720000000  0.5309410000000 1.0
C      1  0.4887980000000  0.5629190000000  0.5065450000000 1.0
C      1  0.5232640000000  0.4350290000000  0.4719750000000 1.0
C      1  0.5320510000000  0.4601720000000  0.5813650000000 1.0
C      1  0.5019430000000  0.6092270000000  0.5252250000000 1.0
C      1  0.4253680000000  0.4901340000000  0.4496150000000 1.0
C      1  0.5055900000000  0.5905640000000  0.5451440000000 1.0
C      1  0.4390200000000  0.4721390000000  0.5978630000000 1.0
C      1  0.4807500000000  0.5237940000000  0.4102920000000 1.0
C      1  0.4565390000000  0.5014770000000  0.4864760000000 1.0
C      1  0.4219570000000  0.4611620000000  0.5125020000000 1.0
C      1  0.4900360000000  0.4693580000000  0.4651620000000 1.0
C      1  0.4724510000000  0.4209790000000  0.5517650000000 1.0
C      1  0.4830310000000  0.5108300000000  0.4915520000000 1.0
C      1  0.5855880000000  0.5372570000000  0.5109700000000 1.0
C      1  0.5142640000000  0.4276920000000  0.5292570000000 1.0
C      1  0.5236580000000  0.5347910000000  0.5871480000000 1.0
C      1  0.5372610000000  0.4956440000000  0.4795730000000 1.0
C      1  0.4578920000000  0.5135680000000  0.4253620000000 1.0
C      1  0.5230650000000  0.5633470000000  0.5419040000000 1.0
C      1  0.5296850000000  0.4498030000000  0.5200640000000 1.0
C      1  0.5245480000000  0.5179900000000  0.4281730000000 1.0
C      1  0.5020670000000  0.5244340000000  0.4459250000000 1.0
C      1  0.5590210000000  0.4628450000000  0.4452640000000 1.0
C      1  0.5154280000000  0.4773820000000  0.4764770000000 1.0
C      1  0.4566220000000  0.4643310000000  0.5806910000000 1.0
END
