TITL C-4164238-4211-679 7.58401988442132 125000 -25044.6669441085 0 0 166 (C1) n - 1
REM
REM in /home/nfs/bkarasulu/CARBON/AIRSS/Generating-Clusters/ReaxFF-fromJPCA2015/Units_Real/with-SteepDescent/Only-C1/SD-CG/Try1-3A/FIRE-CG
REM
REM
REM
REM
REM
REM ./C.cell (11c1c37f851c82e70ff6c80c92926a4b)
REM
REM compiler GCC version 9.2.1 20190827 (Red Hat 9.2.1-1)
REM options -cpp -mtune=generic -march=x86-64 -g -O0 -fpre-include=/usr/include/finclude/math-vector-fortran.h
REM seed 1713234582 1201944944 -973124959 905545715 1561663297 1869589233 -502542443 -1297612727 -1100770353 870875396 -535107393 89032286 -1248041616 302492962 491632400 -2028944572 522088691 2001235310 1614797982 2092622540 2025844033 841259678 807390834 1434920155 -645310660 2077286029 -1322830242 1375461934 578658419 1873188188 550632810 1314666396 -1080157557
REM
CELL 1.54180   50.00000   50.00000   50.00000   90.00000   90.00000   90.00000
LATT -1
SFAC C  
C      1  0.5197470000000  0.4849630000000  0.3891000000000 1.0
C      1  0.3839090000000  0.5048660000000  0.5197650000000 1.0
C      1  0.5536510000000  0.4075110000000  0.5281220000000 1.0
C      1  0.5488350000000  0.4304200000000  0.5753880000000 1.0
C      1  0.5303580000000  0.5598920000000  0.5441030000000 1.0
C      1  0.4493730000000  0.5808910000000  0.5537420000000 1.0
C      1  0.4586210000000  0.4720160000000  0.4727540000000 1.0
C      1  0.5046400000000  0.4367670000000  0.4085310000000 1.0
C      1  0.4711880000000  0.5398260000000  0.5716490000000 1.0
C      1  0.4760310000000  0.5308550000000  0.5380380000000 1.0
C      1  0.4561360000000  0.5970570000000  0.5292990000000 1.0
C      1  0.5471140000000  0.5247490000000  0.5637450000000 1.0
C      1  0.4200660000000  0.4877840000000  0.5142020000000 1.0
C      1  0.4555570000000  0.4377020000000  0.4365510000000 1.0
C      1  0.4384250000000  0.4848570000000  0.4275020000000 1.0
C      1  0.5123630000000  0.4999270000000  0.5182100000000 1.0
C      1  0.5640750000000  0.5285460000000  0.5897120000000 1.0
C      1  0.4588190000000  0.5597220000000  0.5047500000000 1.0
C      1  0.5297250000000  0.5886950000000  0.5345960000000 1.0
C      1  0.5520660000000  0.6032260000000  0.4660520000000 1.0
C      1  0.5093510000000  0.3919080000000  0.5061290000000 1.0
C      1  0.4657010000000  0.5764630000000  0.4333110000000 1.0
C      1  0.4291450000000  0.5120280000000  0.4356890000000 1.0
C      1  0.5334140000000  0.5941190000000  0.4453690000000 1.0
C      1  0.4401400000000  0.5360160000000  0.4237060000000 1.0
C      1  0.4627060000000  0.5420480000000  0.4825400000000 1.0
C      1  0.5361300000000  0.4973660000000  0.4994920000000 1.0
C      1  0.4254150000000  0.5391560000000  0.5709590000000 1.0
C      1  0.5815850000000  0.5485270000000  0.5793490000000 1.0
C      1  0.5144790000000  0.5626930000000  0.4949390000000 1.0
C      1  0.4327080000000  0.4597930000000  0.4407860000000 1.0
C      1  0.5014490000000  0.5452970000000  0.4176660000000 1.0
C      1  0.5527140000000  0.5364000000000  0.5382350000000 1.0
C      1  0.5308810000000  0.4207060000000  0.4782060000000 1.0
C      1  0.5167010000000  0.4804770000000  0.4343320000000 1.0
C      1  0.4855490000000  0.3983450000000  0.4604450000000 1.0
C      1  0.5725780000000  0.4256340000000  0.5116330000000 1.0
C      1  0.5011640000000  0.5242640000000  0.5259150000000 1.0
C      1  0.4879740000000  0.5068240000000  0.4535580000000 1.0
C      1  0.4128160000000  0.4424040000000  0.4853220000000 1.0
C      1  0.5722320000000  0.5715920000000  0.5109580000000 1.0
C      1  0.5856590000000  0.4322860000000  0.5374830000000 1.0
C      1  0.5114640000000  0.5469630000000  0.4728120000000 1.0
C      1  0.5000840000000  0.4167280000000  0.5419590000000 1.0
C      1  0.5687560000000  0.4982340000000  0.4318370000000 1.0
C      1  0.4850680000000  0.5458620000000  0.4648900000000 1.0
C      1  0.3944400000000  0.5127710000000  0.5413820000000 1.0
C      1  0.4546620000000  0.4613150000000  0.4974940000000 1.0
C      1  0.4952030000000  0.4993050000000  0.3804920000000 1.0
C      1  0.4773330000000  0.4455300000000  0.4158070000000 1.0
C      1  0.4727420000000  0.4550170000000  0.4545310000000 1.0
C      1  0.5583060000000  0.4144600000000  0.4754300000000 1.0
C      1  0.4241670000000  0.4804140000000  0.5419450000000 1.0
C      1  0.5799290000000  0.5228850000000  0.4258630000000 1.0
C      1  0.5132240000000  0.5916510000000  0.4891640000000 1.0
C      1  0.5920800000000  0.5089850000000  0.5457620000000 1.0
C      1  0.5226030000000  0.4391140000000  0.4980540000000 1.0
C      1  0.4513960000000  0.4516450000000  0.5204470000000 1.0
C      1  0.4866170000000  0.4969310000000  0.5823970000000 1.0
C      1  0.4798670000000  0.5997030000000  0.5133190000000 1.0
C      1  0.4532450000000  0.5144890000000  0.5320920000000 1.0
C      1  0.5556960000000  0.5334960000000  0.4768010000000 1.0
C      1  0.4473400000000  0.5235880000000  0.5829410000000 1.0
C      1  0.4397090000000  0.5091420000000  0.5086430000000 1.0
C      1  0.5311800000000  0.5307190000000  0.4607010000000 1.0
C      1  0.5905400000000  0.5425180000000  0.4469790000000 1.0
C      1  0.4311220000000  0.4606670000000  0.5801840000000 1.0
C      1  0.4047240000000  0.4898860000000  0.4715150000000 1.0
C      1  0.4733570000000  0.4600430000000  0.5423230000000 1.0
C      1  0.5576940000000  0.4735730000000  0.4385060000000 1.0
C      1  0.5667490000000  0.5603650000000  0.4843630000000 1.0
C      1  0.5959770000000  0.4808710000000  0.5084760000000 1.0
C      1  0.4714400000000  0.5083450000000  0.3958660000000 1.0
C      1  0.5158800000000  0.4996340000000  0.4566300000000 1.0
C      1  0.5369510000000  0.4945980000000  0.5945460000000 1.0
C      1  0.6017690000000  0.5334720000000  0.5033250000000 1.0
C      1  0.5647090000000  0.4547210000000  0.5104410000000 1.0
C      1  0.5257950000000  0.4614700000000  0.5420610000000 1.0
C      1  0.5647020000000  0.4183180000000  0.5527340000000 1.0
C      1  0.5472940000000  0.5721330000000  0.4320760000000 1.0
C      1  0.4272880000000  0.5670020000000  0.4635770000000 1.0
C      1  0.5479220000000  0.4580170000000  0.5671530000000 1.0
C      1  0.4147330000000  0.4635650000000  0.4633730000000 1.0
C      1  0.5210510000000  0.4294900000000  0.5857450000000 1.0
C      1  0.4714110000000  0.4972160000000  0.4750240000000 1.0
C      1  0.5250820000000  0.4565090000000  0.3985810000000 1.0
C      1  0.4400350000000  0.5882260000000  0.4807290000000 1.0
C      1  0.4568790000000  0.4114850000000  0.5557130000000 1.0
C      1  0.4144560000000  0.5647070000000  0.5253020000000 1.0
C      1  0.4131820000000  0.4597110000000  0.5591010000000 1.0
C      1  0.5521530000000  0.5933260000000  0.5164580000000 1.0
C      1  0.5007540000000  0.5951840000000  0.5340920000000 1.0
C      1  0.4789210000000  0.5915440000000  0.4558440000000 1.0
C      1  0.5246120000000  0.4011080000000  0.5259870000000 1.0
C      1  0.4641900000000  0.4853810000000  0.4128400000000 1.0
C      1  0.5094200000000  0.4194580000000  0.4570060000000 1.0
C      1  0.4678470000000  0.5949920000000  0.4825060000000 1.0
C      1  0.5111320000000  0.4811850000000  0.5942950000000 1.0
C      1  0.5061110000000  0.5514320000000  0.5200270000000 1.0
C      1  0.5760320000000  0.4374300000000  0.4720880000000 1.0
C      1  0.5564670000000  0.5316210000000  0.4106420000000 1.0
C      1  0.4694960000000  0.4828710000000  0.5577230000000 1.0
C      1  0.4213790000000  0.4419350000000  0.5164490000000 1.0
C      1  0.4288830000000  0.4222750000000  0.4796390000000 1.0
C      1  0.4781980000000  0.5608530000000  0.4108070000000 1.0
C      1  0.4412620000000  0.5624430000000  0.4382220000000 1.0
C      1  0.5611590000000  0.5083900000000  0.4908820000000 1.0
C      1  0.4481000000000  0.4022840000000  0.4798180000000 1.0
C      1  0.5267760000000  0.4975830000000  0.4144530000000 1.0
C      1  0.5040270000000  0.4532560000000  0.5950760000000 1.0
C      1  0.5242620000000  0.4893910000000  0.5399710000000 1.0
C      1  0.5715080000000  0.4653200000000  0.4646810000000 1.0
C      1  0.6023230000000  0.5072310000000  0.5187770000000 1.0
C      1  0.5397940000000  0.6045100000000  0.4926740000000 1.0
C      1  0.4753760000000  0.4478250000000  0.5930840000000 1.0
C      1  0.5479120000000  0.4531710000000  0.4162120000000 1.0
C      1  0.5749400000000  0.5673080000000  0.4403950000000 1.0
C      1  0.5208460000000  0.4220500000000  0.4273930000000 1.0
C      1  0.4711360000000  0.4049200000000  0.5315130000000 1.0
C      1  0.4984780000000  0.4464680000000  0.5413240000000 1.0
C      1  0.4772420000000  0.5568480000000  0.5255940000000 1.0
C      1  0.5180210000000  0.5626220000000  0.5707950000000 1.0
C      1  0.5730110000000  0.5825220000000  0.4648840000000 1.0
C      1  0.5788650000000  0.4854920000000  0.5555920000000 1.0
C      1  0.4495490000000  0.5166790000000  0.4825070000000 1.0
C      1  0.5075840000000  0.5955950000000  0.4602980000000 1.0
C      1  0.4193090000000  0.5148930000000  0.4635840000000 1.0
C      1  0.5007160000000  0.4137100000000  0.5727610000000 1.0
C      1  0.5495150000000  0.4264380000000  0.4274150000000 1.0
C      1  0.4526860000000  0.4685180000000  0.5955600000000 1.0
C      1  0.5338670000000  0.5514280000000  0.4140340000000 1.0
C      1  0.4970070000000  0.5812710000000  0.5613150000000 1.0
C      1  0.4872100000000  0.4711660000000  0.4268250000000 1.0
C      1  0.5372650000000  0.5228640000000  0.6028460000000 1.0
C      1  0.4663710000000  0.3952080000000  0.5041040000000 1.0
C      1  0.4927430000000  0.5255790000000  0.5833440000000 1.0
C      1  0.4269390000000  0.5621690000000  0.5516000000000 1.0
C      1  0.4606150000000  0.4097140000000  0.4539310000000 1.0
C      1  0.4052860000000  0.4359880000000  0.5396120000000 1.0
C      1  0.4933340000000  0.4419170000000  0.4669590000000 1.0
C      1  0.4983410000000  0.4521040000000  0.4914640000000 1.0
C      1  0.3940940000000  0.4890490000000  0.4988540000000 1.0
C      1  0.6001270000000  0.5362140000000  0.4738600000000 1.0
C      1  0.4713410000000  0.5703290000000  0.5690010000000 1.0
C      1  0.5603140000000  0.4816060000000  0.5779590000000 1.0
C      1  0.5910510000000  0.5529440000000  0.5226760000000 1.0
C      1  0.4372090000000  0.5820060000000  0.5105830000000 1.0
C      1  0.4451300000000  0.4959890000000  0.5513280000000 1.0
C      1  0.5162640000000  0.5393850000000  0.5893790000000 1.0
C      1  0.4620580000000  0.5359460000000  0.4046530000000 1.0
C      1  0.4737790000000  0.4220980000000  0.5796000000000 1.0
C      1  0.5446390000000  0.5071950000000  0.5432040000000 1.0
C      1  0.4886230000000  0.3859870000000  0.4879460000000 1.0
C      1  0.5843070000000  0.4636650000000  0.5316670000000 1.0
C      1  0.5832330000000  0.5388650000000  0.5481990000000 1.0
C      1  0.5349360000000  0.5237160000000  0.4263020000000 1.0
C      1  0.4106420000000  0.5517620000000  0.5010070000000 1.0
C      1  0.4120870000000  0.5444350000000  0.4747400000000 1.0
C      1  0.4125980000000  0.5167700000000  0.5604460000000 1.0
C      1  0.5378690000000  0.4519270000000  0.5175600000000 1.0
C      1  0.4578800000000  0.4983970000000  0.5940430000000 1.0
C      1  0.5677600000000  0.4202770000000  0.4497640000000 1.0
C      1  0.5794960000000  0.4851470000000  0.4842410000000 1.0
C      1  0.5183670000000  0.4875440000000  0.4812140000000 1.0
C      1  0.4935680000000  0.4816030000000  0.4959830000000 1.0
C      1  0.4866150000000  0.5315640000000  0.4389700000000 1.0
END
