TITL C-4164244-2836-606 109.363687255131 125000 -23434.6908466257 0 0 159 (C1) n - 1
REM
REM in /home/nfs/bkarasulu/CARBON/AIRSS/Generating-Clusters/ReaxFF-fromJPCA2015/Units_Real/with-SteepDescent/Only-C1/SD-CG/Try1-3A/FIRE-CG
REM
REM
REM
REM
REM
REM ./C.cell (11c1c37f851c82e70ff6c80c92926a4b)
REM
REM compiler GCC version 9.2.1 20190827 (Red Hat 9.2.1-1)
REM options -cpp -mtune=generic -march=x86-64 -g -O0 -fpre-include=/usr/include/finclude/math-vector-fortran.h
REM seed -946427738 1953626312 2022669214 -544158838 -1415367629 1351177214 1317835399 -1603186315 1607113383 2134229247 1129657079 -1054615199 -1436348139 -1603856483 1212289426 1226922155 -1456636965 -1387138025 -1806068490 1649781760 1081277134 -1880568389 -1323613553 -1724513907 554085878 1296396575 -1906034793 -1368249979 989205870 2031653697 -1743885466 -116810717 341807106
REM
CELL 1.54180   50.00000   50.00000   50.00000   90.00000   90.00000   90.00000
LATT -1
SFAC C  
C      1  0.4960010000000  0.5402820000000  0.5868350000000 1.0
C      1  0.6029230000000  0.5242870000000  0.5341420000000 1.0
C      1  0.4899930000000  0.4752790000000  0.4272710000000 1.0
C      1  0.5892310000000  0.5128190000000  0.4879360000000 1.0
C      1  0.5215720000000  0.5207390000000  0.5515180000000 1.0
C      1  0.4219810000000  0.4274480000000  0.5322600000000 1.0
C      1  0.5083280000000  0.5801570000000  0.4414360000000 1.0
C      1  0.5028020000000  0.5256750000000  0.4480950000000 1.0
C      1  0.5864620000000  0.4438320000000  0.4636680000000 1.0
C      1  0.5729990000000  0.4365350000000  0.5352310000000 1.0
C      1  0.5550690000000  0.5953510000000  0.5053090000000 1.0
C      1  0.5441720000000  0.4655230000000  0.5826620000000 1.0
C      1  0.4753920000000  0.4873690000000  0.4036860000000 1.0
C      1  0.4746680000000  0.5822630000000  0.5791540000000 1.0
C      1  0.5330260000000  0.4316060000000  0.5414630000000 1.0
C      1  0.5184160000000  0.4028360000000  0.4730900000000 1.0
C      1  0.4749540000000  0.5017330000000  0.5446320000000 1.0
C      1  0.5492880000000  0.4529770000000  0.5332320000000 1.0
C      1  0.5717130000000  0.4252490000000  0.4805180000000 1.0
C      1  0.5939600000000  0.4992580000000  0.5459010000000 1.0
C      1  0.5795960000000  0.4531950000000  0.4360410000000 1.0
C      1  0.5575040000000  0.5460200000000  0.4542330000000 1.0
C      1  0.4473840000000  0.5197730000000  0.5879650000000 1.0
C      1  0.4720860000000  0.5907180000000  0.4681100000000 1.0
C      1  0.3970990000000  0.5177250000000  0.5227090000000 1.0
C      1  0.5641090000000  0.5516810000000  0.5556720000000 1.0
C      1  0.5184440000000  0.4671120000000  0.4368990000000 1.0
C      1  0.5867210000000  0.5477960000000  0.5378780000000 1.0
C      1  0.4654460000000  0.4267480000000  0.5492630000000 1.0
C      1  0.5025430000000  0.4926490000000  0.3899500000000 1.0
C      1  0.4473080000000  0.4915210000000  0.4594320000000 1.0
C      1  0.5183110000000  0.4181630000000  0.4975720000000 1.0
C      1  0.4969080000000  0.4624710000000  0.5320390000000 1.0
C      1  0.5900170000000  0.5090560000000  0.4269050000000 1.0
C      1  0.5051120000000  0.5349470000000  0.4183680000000 1.0
C      1  0.5597930000000  0.5281990000000  0.5728410000000 1.0
C      1  0.4783140000000  0.5801640000000  0.4411320000000 1.0
C      1  0.4292360000000  0.5813970000000  0.4791620000000 1.0
C      1  0.5002100000000  0.4883840000000  0.5003490000000 1.0
C      1  0.4024000000000  0.4665490000000  0.5044950000000 1.0
C      1  0.4163400000000  0.4270770000000  0.4725910000000 1.0
C      1  0.4310100000000  0.4089820000000  0.5120690000000 1.0
C      1  0.5695040000000  0.5727510000000  0.4940750000000 1.0
C      1  0.4283210000000  0.5543220000000  0.5554750000000 1.0
C      1  0.5189190000000  0.4956910000000  0.5659670000000 1.0
C      1  0.5371110000000  0.5904660000000  0.5280180000000 1.0
C      1  0.5992950000000  0.4715470000000  0.5354120000000 1.0
C      1  0.5807930000000  0.5328580000000  0.4423840000000 1.0
C      1  0.5516570000000  0.4217410000000  0.4430790000000 1.0
C      1  0.4993280000000  0.4419720000000  0.5789500000000 1.0
C      1  0.5367310000000  0.5322000000000  0.5911470000000 1.0
C      1  0.5463190000000  0.4746930000000  0.5149150000000 1.0
C      1  0.4140110000000  0.5378890000000  0.4570140000000 1.0
C      1  0.5245790000000  0.4426210000000  0.4835470000000 1.0
C      1  0.4624080000000  0.5917320000000  0.5543630000000 1.0
C      1  0.4456800000000  0.6022420000000  0.4765550000000 1.0
C      1  0.5422850000000  0.4637130000000  0.4903620000000 1.0
C      1  0.5465920000000  0.5584650000000  0.4826440000000 1.0
C      1  0.4756120000000  0.4792850000000  0.5951750000000 1.0
C      1  0.5099930000000  0.4469140000000  0.4570910000000 1.0
C      1  0.5195140000000  0.5151010000000  0.3985180000000 1.0
C      1  0.4728160000000  0.5619280000000  0.4772660000000 1.0
C      1  0.4133150000000  0.5082890000000  0.4269380000000 1.0
C      1  0.4438180000000  0.4477740000000  0.5780860000000 1.0
C      1  0.4554420000000  0.5008200000000  0.5007450000000 1.0
C      1  0.5275630000000  0.5828340000000  0.4641130000000 1.0
C      1  0.4892420000000  0.6015400000000  0.5450150000000 1.0
C      1  0.5797190000000  0.4814740000000  0.4264880000000 1.0
C      1  0.5527210000000  0.4917460000000  0.4249630000000 1.0
C      1  0.6057650000000  0.5296630000000  0.5056300000000 1.0
C      1  0.4646720000000  0.4386550000000  0.5096710000000 1.0
C      1  0.5228230000000  0.4744330000000  0.3956190000000 1.0
C      1  0.4891770000000  0.5476080000000  0.5314040000000 1.0
C      1  0.5053670000000  0.4894570000000  0.5932510000000 1.0
C      1  0.4251340000000  0.4832460000000  0.5532550000000 1.0
C      1  0.4624560000000  0.5569170000000  0.5260440000000 1.0
C      1  0.4297010000000  0.4730390000000  0.5788680000000 1.0
C      1  0.4175860000000  0.5561040000000  0.4804930000000 1.0
C      1  0.5459680000000  0.5525120000000  0.4310240000000 1.0
C      1  0.5830070000000  0.4322960000000  0.5075430000000 1.0
C      1  0.4685890000000  0.4546420000000  0.5347120000000 1.0
C      1  0.5445920000000  0.5742600000000  0.5510360000000 1.0
C      1  0.4619840000000  0.5133810000000  0.4057110000000 1.0
C      1  0.4382900000000  0.4474120000000  0.4378380000000 1.0
C      1  0.4888050000000  0.6053200000000  0.5038680000000 1.0
C      1  0.4698050000000  0.5555190000000  0.5893300000000 1.0
C      1  0.4338050000000  0.5231710000000  0.4138290000000 1.0
C      1  0.4632350000000  0.6176160000000  0.4988610000000 1.0
C      1  0.4735060000000  0.4479600000000  0.4874620000000 1.0
C      1  0.4067650000000  0.5119820000000  0.4687010000000 1.0
C      1  0.5205700000000  0.5097620000000  0.4974490000000 1.0
C      1  0.4973480000000  0.5550000000000  0.4872070000000 1.0
C      1  0.4496360000000  0.4927880000000  0.5931380000000 1.0
C      1  0.4494270000000  0.4832390000000  0.5385330000000 1.0
C      1  0.4564610000000  0.4546820000000  0.4175420000000 1.0
C      1  0.4970860000000  0.4266130000000  0.4376660000000 1.0
C      1  0.4350470000000  0.5441410000000  0.4344170000000 1.0
C      1  0.5834250000000  0.5493730000000  0.5088900000000 1.0
C      1  0.5850270000000  0.4558430000000  0.5540280000000 1.0
C      1  0.5550810000000  0.4787250000000  0.4709840000000 1.0
C      1  0.5689910000000  0.4736320000000  0.5728990000000 1.0
C      1  0.4786810000000  0.4996510000000  0.5160670000000 1.0
C      1  0.5052820000000  0.4010840000000  0.5427580000000 1.0
C      1  0.4827370000000  0.4450970000000  0.4202030000000 1.0
C      1  0.4936200000000  0.5303080000000  0.5542000000000 1.0
C      1  0.4172830000000  0.5342920000000  0.5374330000000 1.0
C      1  0.5178410000000  0.5078910000000  0.4637630000000 1.0
C      1  0.4910730000000  0.5447530000000  0.4642780000000 1.0
C      1  0.4267340000000  0.4704980000000  0.4555890000000 1.0
C      1  0.4818750000000  0.4567170000000  0.4665140000000 1.0
C      1  0.4044090000000  0.4922280000000  0.4482000000000 1.0
C      1  0.5327030000000  0.4551250000000  0.4126650000000 1.0
C      1  0.5193560000000  0.4600100000000  0.5916230000000 1.0
C      1  0.4430890000000  0.5455900000000  0.5810580000000 1.0
C      1  0.5397940000000  0.5986400000000  0.4809300000000 1.0
C      1  0.5207520000000  0.5619620000000  0.4228490000000 1.0
C      1  0.4493840000000  0.3996320000000  0.4890830000000 1.0
C      1  0.5994890000000  0.4638650000000  0.4813260000000 1.0
C      1  0.5068330000000  0.5407900000000  0.5080040000000 1.0
C      1  0.4722170000000  0.4526300000000  0.5869620000000 1.0
C      1  0.5207650000000  0.5559400000000  0.5882520000000 1.0
C      1  0.4636610000000  0.4068710000000  0.4647320000000 1.0
C      1  0.4860230000000  0.4090540000000  0.5587710000000 1.0
C      1  0.4579020000000  0.4099510000000  0.5133260000000 1.0
C      1  0.5717740000000  0.5286960000000  0.4138960000000 1.0
C      1  0.4410720000000  0.4225680000000  0.4549000000000 1.0
C      1  0.5086690000000  0.5990190000000  0.5230970000000 1.0
C      1  0.5346890000000  0.5479560000000  0.5102200000000 1.0
C      1  0.4045890000000  0.4503050000000  0.5272870000000 1.0
C      1  0.5740090000000  0.5025210000000  0.5667270000000 1.0
C      1  0.4351500000000  0.5345380000000  0.4917430000000 1.0
C      1  0.5482380000000  0.4096420000000  0.4670390000000 1.0
C      1  0.5246930000000  0.5770640000000  0.5713680000000 1.0
C      1  0.5655400000000  0.5236120000000  0.4989670000000 1.0
C      1  0.4745360000000  0.5382970000000  0.4124910000000 1.0
C      1  0.4482570000000  0.5146080000000  0.4760570000000 1.0
C      1  0.4463530000000  0.5717390000000  0.5424240000000 1.0
C      1  0.4075530000000  0.4679130000000  0.5449110000000 1.0
C      1  0.4610040000000  0.5572960000000  0.4300600000000 1.0
C      1  0.5402670000000  0.5278360000000  0.5303420000000 1.0
C      1  0.5997120000000  0.4560900000000  0.5095330000000 1.0
C      1  0.5827850000000  0.4872070000000  0.4759230000000 1.0
C      1  0.4927150000000  0.4061450000000  0.4570830000000 1.0
C      1  0.5074590000000  0.4418440000000  0.5500740000000 1.0
C      1  0.5368030000000  0.4879070000000  0.4500530000000 1.0
C      1  0.5257030000000  0.4082260000000  0.5248470000000 1.0
C      1  0.4348240000000  0.4925780000000  0.5157530000000 1.0
C      1  0.4746820000000  0.4836960000000  0.4550330000000 1.0
C      1  0.4066160000000  0.4990240000000  0.5014380000000 1.0
C      1  0.4375160000000  0.4280930000000  0.5574000000000 1.0
C      1  0.5480940000000  0.5048600000000  0.5140930000000 1.0
C      1  0.5129500000000  0.5177190000000  0.6004220000000 1.0
C      1  0.4122500000000  0.4549480000000  0.4804290000000 1.0
C      1  0.5574690000000  0.4395580000000  0.4224580000000 1.0
C      1  0.5477260000000  0.5121220000000  0.4052940000000 1.0
C      1  0.5006370000000  0.5923330000000  0.5700310000000 1.0
C      1  0.4940190000000  0.4948240000000  0.4716550000000 1.0
C      1  0.4981220000000  0.4849880000000  0.5495940000000 1.0
C      1  0.4407590000000  0.5385090000000  0.5198460000000 1.0
END
