TITL C-4164233-775-289 4.94158917363232 125000 -9839.00253491835 0 0 65 (C1) n - 1
REM
REM in /home/nfs/bkarasulu/CARBON/AIRSS/Generating-Clusters/ReaxFF-fromJPCA2015/Units_Real/with-SteepDescent/Only-C1/SD-CG/Try1-3A/FIRE-CG
REM
REM
REM
REM
REM
REM ./C.cell (11c1c37f851c82e70ff6c80c92926a4b)
REM
REM compiler GCC version 9.2.1 20190827 (Red Hat 9.2.1-1)
REM options -cpp -mtune=generic -march=x86-64 -g -O0 -fpre-include=/usr/include/finclude/math-vector-fortran.h
REM seed 544841185 -1390821895 -514531501 2018796695 -738956477 -1636014861 -208171826 -2011145624 1762223129 -310335849 -768489662 -1170699030 -170607567 1259900541 298601162 186606146 2061551498 -1056713195 -228078460 2000065100 -573505053 -142096729 -1290730423 -797678718 1437825152 -1101860333 -738969785 1597336442 -666375508 909612824 634218624 1064333864 494531432
REM
CELL 1.54180   50.00000   50.00000   50.00000   90.00000   90.00000   90.00000
LATT -1
SFAC C  
C      1  0.4673130000000  0.5303250000000  0.4231060000000 1.0
C      1  0.5144240000000  0.4226800000000  0.4777150000000 1.0
C      1  0.4970500000000  0.5321920000000  0.4277670000000 1.0
C      1  0.4716070000000  0.5113080000000  0.4705110000000 1.0
C      1  0.4731990000000  0.5363790000000  0.5748040000000 1.0
C      1  0.4803020000000  0.5104570000000  0.5865660000000 1.0
C      1  0.5361970000000  0.5243440000000  0.4556040000000 1.0
C      1  0.5656450000000  0.4773110000000  0.5440510000000 1.0
C      1  0.4835300000000  0.4739840000000  0.5251800000000 1.0
C      1  0.5563340000000  0.4806790000000  0.4568490000000 1.0
C      1  0.4480830000000  0.5402380000000  0.5266380000000 1.0
C      1  0.4619010000000  0.5392800000000  0.4664250000000 1.0
C      1  0.5407440000000  0.4771480000000  0.5026900000000 1.0
C      1  0.4766210000000  0.4475510000000  0.4473070000000 1.0
C      1  0.4989600000000  0.5009550000000  0.5149390000000 1.0
C      1  0.5024420000000  0.5428210000000  0.5699480000000 1.0
C      1  0.5284060000000  0.4673140000000  0.4551850000000 1.0
C      1  0.4880440000000  0.4697070000000  0.4279110000000 1.0
C      1  0.5117290000000  0.5593460000000  0.5181730000000 1.0
C      1  0.4376590000000  0.4929490000000  0.5289020000000 1.0
C      1  0.5024230000000  0.5585630000000  0.4723150000000 1.0
C      1  0.5164760000000  0.5120930000000  0.4371980000000 1.0
C      1  0.5131190000000  0.4322430000000  0.5068990000000 1.0
C      1  0.4301720000000  0.5219200000000  0.4859270000000 1.0
C      1  0.4535020000000  0.4498310000000  0.4656310000000 1.0
C      1  0.5283560000000  0.5451100000000  0.4758410000000 1.0
C      1  0.5478230000000  0.5247820000000  0.5195100000000 1.0
C      1  0.4421370000000  0.5484400000000  0.4860720000000 1.0
C      1  0.4846600000000  0.4703120000000  0.5564170000000 1.0
C      1  0.5315260000000  0.4356650000000  0.4574540000000 1.0
C      1  0.5345370000000  0.5471770000000  0.5038480000000 1.0
C      1  0.4454510000000  0.4599900000000  0.4923160000000 1.0
C      1  0.5328650000000  0.4363270000000  0.5293630000000 1.0
C      1  0.5103120000000  0.4664050000000  0.5701750000000 1.0
C      1  0.5209260000000  0.4480630000000  0.5518520000000 1.0
C      1  0.5276580000000  0.5009460000000  0.5155660000000 1.0
C      1  0.5614670000000  0.5098650000000  0.4573020000000 1.0
C      1  0.5088800000000  0.5149440000000  0.5834990000000 1.0
C      1  0.4889950000000  0.5617000000000  0.4982040000000 1.0
C      1  0.4637820000000  0.5539650000000  0.4406490000000 1.0
C      1  0.4532780000000  0.5310540000000  0.5540060000000 1.0
C      1  0.5781750000000  0.5053630000000  0.4826690000000 1.0
C      1  0.4505750000000  0.5077600000000  0.4329220000000 1.0
C      1  0.5514080000000  0.4956060000000  0.5636940000000 1.0
C      1  0.4686370000000  0.4888670000000  0.4263150000000 1.0
C      1  0.4324790000000  0.5181450000000  0.5141040000000 1.0
C      1  0.4432350000000  0.5013910000000  0.4647820000000 1.0
C      1  0.4543110000000  0.4728230000000  0.5165650000000 1.0
C      1  0.4469020000000  0.5024200000000  0.5548650000000 1.0
C      1  0.4383850000000  0.4732660000000  0.4694270000000 1.0
C      1  0.4674440000000  0.4885010000000  0.5704000000000 1.0
C      1  0.5070100000000  0.5509570000000  0.5444900000000 1.0
C      1  0.4907570000000  0.4316270000000  0.4640550000000 1.0
C      1  0.5762390000000  0.5168670000000  0.5092140000000 1.0
C      1  0.4612950000000  0.5574340000000  0.5066770000000 1.0
C      1  0.4927870000000  0.5564720000000  0.4441060000000 1.0
C      1  0.4940030000000  0.5002210000000  0.4858900000000 1.0
C      1  0.5659760000000  0.4786000000000  0.4840070000000 1.0
C      1  0.5105330000000  0.4747720000000  0.4833530000000 1.0
C      1  0.5131040000000  0.4830620000000  0.4344140000000 1.0
C      1  0.5618230000000  0.5184520000000  0.5485200000000 1.0
C      1  0.5804520000000  0.5016770000000  0.5337820000000 1.0
C      1  0.5252850000000  0.4926190000000  0.5761880000000 1.0
C      1  0.5513830000000  0.4597590000000  0.5254870000000 1.0
C      1  0.4992680000000  0.4569750000000  0.5037570000000 1.0
END
