TITL C-4164247-2821-483 -2.74202116709922 125000 -11219.6101386586 0 0 76 (C1) n - 1
REM
REM in /home/nfs/bkarasulu/CARBON/AIRSS/Generating-Clusters/ReaxFF-fromJPCA2015/Units_Real/with-SteepDescent/Only-C1/SD-CG/Try1-3A/FIRE-CG
REM
REM
REM
REM
REM
REM ./C.cell (11c1c37f851c82e70ff6c80c92926a4b)
REM
REM compiler GCC version 9.2.1 20190827 (Red Hat 9.2.1-1)
REM options -cpp -mtune=generic -march=x86-64 -g -O0 -fpre-include=/usr/include/finclude/math-vector-fortran.h
REM seed -142882742 -1503058512 1519530952 206391580 853302369 1291518415 1550667753 -625882974 -1721234493 -1337248264 1318615064 847154119 1157689099 746745244 -162578241 -1043431109 -612767632 -602123124 -662668767 1305014385 2143844269 -1004169014 937341412 179124194 2126476807 139254396 2117328695 -1245115580 -834671722 1641586647 -659286882 1805436351 222602149
REM
CELL 1.54180   50.00000   50.00000   50.00000   90.00000   90.00000   90.00000
LATT -1
SFAC C  
C      1  0.4972140000000  0.4227520000000  0.5363000000000 1.0
C      1  0.4531860000000  0.4950500000000  0.5660310000000 1.0
C      1  0.4460260000000  0.5346970000000  0.4827320000000 1.0
C      1  0.5430120000000  0.4900230000000  0.4903820000000 1.0
C      1  0.5081720000000  0.5563700000000  0.4847610000000 1.0
C      1  0.5405560000000  0.5650520000000  0.4882410000000 1.0
C      1  0.4529960000000  0.4460070000000  0.5250980000000 1.0
C      1  0.4247510000000  0.5164280000000  0.4700470000000 1.0
C      1  0.4497330000000  0.5453060000000  0.4533190000000 1.0
C      1  0.4653940000000  0.4693180000000  0.5154500000000 1.0
C      1  0.5005310000000  0.5625930000000  0.4561490000000 1.0
C      1  0.4924660000000  0.5705920000000  0.5076440000000 1.0
C      1  0.5394300000000  0.4530570000000  0.4592670000000 1.0
C      1  0.4815170000000  0.4855170000000  0.5315750000000 1.0
C      1  0.5721060000000  0.4996790000000  0.4938760000000 1.0
C      1  0.4884510000000  0.4530550000000  0.5656840000000 1.0
C      1  0.5085560000000  0.4828200000000  0.4230380000000 1.0
C      1  0.5333320000000  0.4419450000000  0.5429860000000 1.0
C      1  0.4205550000000  0.4680270000000  0.4842170000000 1.0
C      1  0.5527370000000  0.4599640000000  0.5298840000000 1.0
C      1  0.5203480000000  0.5171480000000  0.5315460000000 1.0
C      1  0.5309400000000  0.5196410000000  0.5048960000000 1.0
C      1  0.5321280000000  0.4326530000000  0.4802160000000 1.0
C      1  0.4339890000000  0.5065310000000  0.5462200000000 1.0
C      1  0.4893600000000  0.5032340000000  0.4137890000000 1.0
C      1  0.4643370000000  0.5039420000000  0.4353130000000 1.0
C      1  0.5713610000000  0.5253310000000  0.4809640000000 1.0
C      1  0.4738150000000  0.5102020000000  0.6147460000000 1.0
C      1  0.4631210000000  0.5128800000000  0.5868520000000 1.0
C      1  0.5523010000000  0.4924690000000  0.5625910000000 1.0
C      1  0.4819800000000  0.5168110000000  0.4565870000000 1.0
C      1  0.4936860000000  0.5172380000000  0.5925560000000 1.0
C      1  0.5684400000000  0.4825450000000  0.5408100000000 1.0
C      1  0.4390970000000  0.5197760000000  0.4448730000000 1.0
C      1  0.5195810000000  0.4275380000000  0.5202490000000 1.0
C      1  0.4932580000000  0.5094140000000  0.5280610000000 1.0
C      1  0.5712310000000  0.5321110000000  0.5287670000000 1.0
C      1  0.5180880000000  0.5063330000000  0.5823310000000 1.0
C      1  0.5378820000000  0.4681450000000  0.5078230000000 1.0
C      1  0.4639780000000  0.4727120000000  0.4297980000000 1.0
C      1  0.4886220000000  0.5104630000000  0.5012090000000 1.0
C      1  0.4690200000000  0.5146460000000  0.4825360000000 1.0
C      1  0.4785810000000  0.5451860000000  0.4481290000000 1.0
C      1  0.4448430000000  0.4522610000000  0.4748990000000 1.0
C      1  0.5551040000000  0.5389680000000  0.5024840000000 1.0
C      1  0.5081310000000  0.5233230000000  0.4130030000000 1.0
C      1  0.5295320000000  0.4800820000000  0.5757590000000 1.0
C      1  0.4748560000000  0.4776290000000  0.5576610000000 1.0
C      1  0.4763190000000  0.4268590000000  0.5551480000000 1.0
C      1  0.4680200000000  0.5618670000000  0.5133560000000 1.0
C      1  0.5111710000000  0.5922890000000  0.5193470000000 1.0
C      1  0.4446080000000  0.5485110000000  0.5114370000000 1.0
C      1  0.5364090000000  0.5908490000000  0.5045430000000 1.0
C      1  0.5297400000000  0.4784410000000  0.4666460000000 1.0
C      1  0.5353640000000  0.5184370000000  0.5570960000000 1.0
C      1  0.4697640000000  0.4593790000000  0.4902330000000 1.0
C      1  0.5085640000000  0.5252190000000  0.4871450000000 1.0
C      1  0.5600540000000  0.5393420000000  0.5538700000000 1.0
C      1  0.5475230000000  0.5600320000000  0.4593910000000 1.0
C      1  0.4945780000000  0.4452740000000  0.4533710000000 1.0
C      1  0.4191490000000  0.4961760000000  0.4914870000000 1.0
C      1  0.5296070000000  0.5383320000000  0.4220010000000 1.0
C      1  0.4550910000000  0.4542770000000  0.4487440000000 1.0
C      1  0.4907660000000  0.4602080000000  0.4291850000000 1.0
C      1  0.4495690000000  0.4274610000000  0.5427970000000 1.0
C      1  0.4194640000000  0.5058450000000  0.5210210000000 1.0
C      1  0.5197550000000  0.4320120000000  0.4540630000000 1.0
C      1  0.5313660000000  0.4894890000000  0.4411680000000 1.0
C      1  0.5170610000000  0.4503530000000  0.4984950000000 1.0
C      1  0.5590110000000  0.5330790000000  0.4555670000000 1.0
C      1  0.4955890000000  0.4604750000000  0.4777890000000 1.0
C      1  0.4298190000000  0.5312230000000  0.5303890000000 1.0
C      1  0.5429640000000  0.5166700000000  0.4372130000000 1.0
C      1  0.5776470000000  0.5031340000000  0.5220550000000 1.0
C      1  0.5174050000000  0.4555900000000  0.5639290000000 1.0
C      1  0.5252920000000  0.5617120000000  0.4411660000000 1.0
END
