TITL C-4164245-3996-424 14.715011895894 125000 -14973.5144466182 0 0 101 (C1) n - 1
REM
REM in /home/nfs/bkarasulu/CARBON/AIRSS/Generating-Clusters/ReaxFF-fromJPCA2015/Units_Real/with-SteepDescent/Only-C1/SD-CG/Try1-3A/FIRE-CG
REM
REM
REM
REM
REM
REM ./C.cell (11c1c37f851c82e70ff6c80c92926a4b)
REM
REM compiler GCC version 9.2.1 20190827 (Red Hat 9.2.1-1)
REM options -cpp -mtune=generic -march=x86-64 -g -O0 -fpre-include=/usr/include/finclude/math-vector-fortran.h
REM seed 1116899716 2035987886 -237914642 52616190 -1558142248 -1627054846 1824959523 2063803198 55992066 217899659 -1263332682 -263201799 -927371738 1980367259 -1463056434 -1168758416 1336646402 897575511 681535813 90249287 -1390518350 119550511 1741550734 893097767 2048357734 9085236 -2118849553 615049036 2036945284 922254828 -1883750376 -1007571860 -1458426972
REM
CELL 1.54180   50.00000   50.00000   50.00000   90.00000   90.00000   90.00000
LATT -1
SFAC C  
C      1  0.5067670000000  0.5486230000000  0.5260470000000 1.0
C      1  0.5466230000000  0.4890480000000  0.4933090000000 1.0
C      1  0.4973470000000  0.5188190000000  0.4247670000000 1.0
C      1  0.5482040000000  0.5700260000000  0.4870210000000 1.0
C      1  0.4594040000000  0.4345720000000  0.4751730000000 1.0
C      1  0.5163240000000  0.5954790000000  0.4589620000000 1.0
C      1  0.4254170000000  0.5291200000000  0.5234650000000 1.0
C      1  0.4638560000000  0.5023540000000  0.5203940000000 1.0
C      1  0.4932350000000  0.5979460000000  0.5306750000000 1.0
C      1  0.5024910000000  0.4157040000000  0.5302240000000 1.0
C      1  0.5393170000000  0.4235680000000  0.4934930000000 1.0
C      1  0.5005690000000  0.4186370000000  0.4631180000000 1.0
C      1  0.5624400000000  0.4672720000000  0.5055160000000 1.0
C      1  0.4370310000000  0.4565980000000  0.5465120000000 1.0
C      1  0.5598900000000  0.5475570000000  0.5277870000000 1.0
C      1  0.4322100000000  0.5519160000000  0.4773780000000 1.0
C      1  0.5221550000000  0.5031990000000  0.5053510000000 1.0
C      1  0.4529010000000  0.5106420000000  0.5692290000000 1.0
C      1  0.4644060000000  0.5091230000000  0.4902210000000 1.0
C      1  0.4102960000000  0.5137870000000  0.4778040000000 1.0
C      1  0.5464050000000  0.4349400000000  0.5433260000000 1.0
C      1  0.4802750000000  0.4900930000000  0.4754990000000 1.0
C      1  0.5167970000000  0.4090130000000  0.5056500000000 1.0
C      1  0.4275890000000  0.4858540000000  0.5880780000000 1.0
C      1  0.5717310000000  0.5039230000000  0.5529650000000 1.0
C      1  0.5849830000000  0.4659620000000  0.4410610000000 1.0
C      1  0.4355700000000  0.4521370000000  0.4740820000000 1.0
C      1  0.5418840000000  0.4845430000000  0.4653560000000 1.0
C      1  0.5142460000000  0.4499710000000  0.4187140000000 1.0
C      1  0.4950630000000  0.4612890000000  0.4431950000000 1.0
C      1  0.4943630000000  0.4046670000000  0.4874000000000 1.0
C      1  0.4568520000000  0.5650320000000  0.5199150000000 1.0
C      1  0.5220240000000  0.4686590000000  0.5297430000000 1.0
C      1  0.5114050000000  0.5946770000000  0.5060070000000 1.0
C      1  0.4439260000000  0.5465850000000  0.5378480000000 1.0
C      1  0.5327220000000  0.5549790000000  0.4399460000000 1.0
C      1  0.4316550000000  0.4669610000000  0.4487810000000 1.0
C      1  0.4624580000000  0.5037890000000  0.4308540000000 1.0
C      1  0.5182680000000  0.4668370000000  0.4659210000000 1.0
C      1  0.4845850000000  0.5695510000000  0.5303070000000 1.0
C      1  0.5492560000000  0.5355130000000  0.4320650000000 1.0
C      1  0.5042320000000  0.4797890000000  0.6110700000000 1.0
C      1  0.4738320000000  0.4201700000000  0.5245560000000 1.0
C      1  0.5016960000000  0.5004050000000  0.5746990000000 1.0
C      1  0.5215100000000  0.5090520000000  0.4191960000000 1.0
C      1  0.4581450000000  0.4351840000000  0.5446190000000 1.0
C      1  0.5036740000000  0.5432000000000  0.4344820000000 1.0
C      1  0.4157910000000  0.5361550000000  0.4961720000000 1.0
C      1  0.4353100000000  0.5393440000000  0.4505010000000 1.0
C      1  0.4272710000000  0.4743830000000  0.5248300000000 1.0
C      1  0.4796510000000  0.4863910000000  0.4480050000000 1.0
C      1  0.4960270000000  0.5936020000000  0.4390720000000 1.0
C      1  0.5715370000000  0.4432190000000  0.4463840000000 1.0
C      1  0.5074470000000  0.5307880000000  0.5028650000000 1.0
C      1  0.4345010000000  0.4937700000000  0.4369620000000 1.0
C      1  0.4798760000000  0.5619090000000  0.4750840000000 1.0
C      1  0.4537690000000  0.5657630000000  0.4905900000000 1.0
C      1  0.5357980000000  0.5788740000000  0.5120460000000 1.0
C      1  0.4836870000000  0.5346670000000  0.4877680000000 1.0
C      1  0.5789160000000  0.5118880000000  0.4659850000000 1.0
C      1  0.5826980000000  0.5259690000000  0.4905310000000 1.0
C      1  0.4279840000000  0.4716370000000  0.4957910000000 1.0
C      1  0.4335450000000  0.4982160000000  0.4849160000000 1.0
C      1  0.4750830000000  0.5828340000000  0.4245680000000 1.0
C      1  0.4975960000000  0.4647100000000  0.5149180000000 1.0
C      1  0.4802310000000  0.4810950000000  0.5311180000000 1.0
C      1  0.4985710000000  0.5875470000000  0.4806840000000 1.0
C      1  0.4342380000000  0.5096610000000  0.5844540000000 1.0
C      1  0.5890670000000  0.5118430000000  0.5159060000000 1.0
C      1  0.6087720000000  0.4660640000000  0.5259520000000 1.0
C      1  0.5792480000000  0.5269020000000  0.5383370000000 1.0
C      1  0.4600830000000  0.5331220000000  0.4366030000000 1.0
C      1  0.4803480000000  0.4366740000000  0.4549950000000 1.0
C      1  0.5223300000000  0.4950720000000  0.5326860000000 1.0
C      1  0.4686030000000  0.4161260000000  0.4964550000000 1.0
C      1  0.4727850000000  0.4462980000000  0.5653900000000 1.0
C      1  0.5129020000000  0.5501520000000  0.5656700000000 1.0
C      1  0.5651610000000  0.4929930000000  0.4469250000000 1.0
C      1  0.4583240000000  0.5377190000000  0.5628980000000 1.0
C      1  0.5354190000000  0.4365040000000  0.4304180000000 1.0
C      1  0.4357510000000  0.5022360000000  0.5291190000000 1.0
C      1  0.4969550000000  0.5007820000000  0.5455890000000 1.0
C      1  0.5333490000000  0.5590350000000  0.5356220000000 1.0
C      1  0.4183770000000  0.5158450000000  0.4492350000000 1.0
C      1  0.5895600000000  0.4801840000000  0.5155100000000 1.0
C      1  0.4438800000000  0.4712420000000  0.5709320000000 1.0
C      1  0.5383610000000  0.5758090000000  0.4599380000000 1.0
C      1  0.5264040000000  0.4348610000000  0.4701400000000 1.0
C      1  0.4788120000000  0.5544480000000  0.4421090000000 1.0
C      1  0.5582690000000  0.4854260000000  0.5569030000000 1.0
C      1  0.5532900000000  0.4405130000000  0.5123450000000 1.0
C      1  0.5021480000000  0.4783090000000  0.4890490000000 1.0
C      1  0.5064860000000  0.5280700000000  0.5831760000000 1.0
C      1  0.5385920000000  0.4649980000000  0.5534170000000 1.0
C      1  0.5498310000000  0.5098190000000  0.4230970000000 1.0
C      1  0.4995810000000  0.4442790000000  0.5710240000000 1.0
C      1  0.5495370000000  0.4264640000000  0.4532990000000 1.0
C      1  0.5159790000000  0.4290320000000  0.5522630000000 1.0
C      1  0.4855720000000  0.5475050000000  0.5733130000000 1.0
C      1  0.5647040000000  0.5498230000000  0.4997230000000 1.0
C      1  0.5059640000000  0.4726610000000  0.5869430000000 1.0
END
