TITL C-4164236-1577-605 33.2959505854379 125000 -17478.5452700721 0 0 119 (C1) n - 1
REM
REM in /home/nfs/bkarasulu/CARBON/AIRSS/Generating-Clusters/ReaxFF-fromJPCA2015/Units_Real/with-SteepDescent/Only-C1/SD-CG/Try1-3A/FIRE-CG
REM
REM
REM
REM
REM
REM ./C.cell (11c1c37f851c82e70ff6c80c92926a4b)
REM
REM compiler GCC version 9.2.1 20190827 (Red Hat 9.2.1-1)
REM options -cpp -mtune=generic -march=x86-64 -g -O0 -fpre-include=/usr/include/finclude/math-vector-fortran.h
REM seed -1356364453 672808316 -125579318 -1433328864 1381749736 1220914977 1978271433 -949287676 -2045824555 1830235329 -364975076 -1319042489 864790018 -19470333 -581355541 -1443506081 -490309476 -849499153 1193871494 -1450677279 81262522 600225711 -1940760408 1963986613 227415735 -1182886540 1240669862 -1739886818 1540115846 1463830172 -86746543 -1287603034 -1851568508
REM
CELL 1.54180   50.00000   50.00000   50.00000   90.00000   90.00000   90.00000
LATT -1
SFAC C  
C      1  0.5865620000000  0.5414460000000  0.4742460000000 1.0
C      1  0.4187980000000  0.4563060000000  0.5057040000000 1.0
C      1  0.4500560000000  0.5792560000000  0.4623230000000 1.0
C      1  0.5208800000000  0.4872470000000  0.4002870000000 1.0
C      1  0.4906360000000  0.4521810000000  0.5110460000000 1.0
C      1  0.4248120000000  0.4281450000000  0.4991370000000 1.0
C      1  0.4924840000000  0.4892380000000  0.4001930000000 1.0
C      1  0.5270530000000  0.4779040000000  0.4393840000000 1.0
C      1  0.4763770000000  0.4391790000000  0.4156570000000 1.0
C      1  0.4631290000000  0.4097120000000  0.4772510000000 1.0
C      1  0.5805630000000  0.5545140000000  0.5002620000000 1.0
C      1  0.5476250000000  0.4299420000000  0.4705710000000 1.0
C      1  0.5169110000000  0.5833660000000  0.4659120000000 1.0
C      1  0.5214680000000  0.4475410000000  0.4417580000000 1.0
C      1  0.4271990000000  0.5639890000000  0.4683890000000 1.0
C      1  0.5889650000000  0.5130180000000  0.4756860000000 1.0
C      1  0.4373930000000  0.4571340000000  0.5283760000000 1.0
C      1  0.4635660000000  0.5926260000000  0.4863920000000 1.0
C      1  0.5113670000000  0.4113400000000  0.5467280000000 1.0
C      1  0.5512890000000  0.4206550000000  0.5287530000000 1.0
C      1  0.4804010000000  0.4444230000000  0.5679980000000 1.0
C      1  0.5333490000000  0.5238930000000  0.5629340000000 1.0
C      1  0.4473350000000  0.4238860000000  0.4553200000000 1.0
C      1  0.5223700000000  0.5039480000000  0.5446170000000 1.0
C      1  0.4358230000000  0.5584080000000  0.5174750000000 1.0
C      1  0.4291950000000  0.4770910000000  0.5488550000000 1.0
C      1  0.5109980000000  0.3946490000000  0.4994010000000 1.0
C      1  0.5295280000000  0.4372010000000  0.5737270000000 1.0
C      1  0.5512490000000  0.5452040000000  0.5532790000000 1.0
C      1  0.4605360000000  0.4806360000000  0.4759070000000 1.0
C      1  0.5010980000000  0.4621630000000  0.5580150000000 1.0
C      1  0.5686670000000  0.5559120000000  0.4554440000000 1.0
C      1  0.4421400000000  0.4699980000000  0.4367040000000 1.0
C      1  0.5653600000000  0.5558370000000  0.4273170000000 1.0
C      1  0.5240950000000  0.4743120000000  0.4854980000000 1.0
C      1  0.5201230000000  0.5952910000000  0.4940360000000 1.0
C      1  0.4883540000000  0.4618100000000  0.4021520000000 1.0
C      1  0.4650530000000  0.5273150000000  0.5920940000000 1.0
C      1  0.5254680000000  0.4038730000000  0.5255770000000 1.0
C      1  0.4216510000000  0.4831910000000  0.4544150000000 1.0
C      1  0.4076380000000  0.5184850000000  0.4858750000000 1.0
C      1  0.5865410000000  0.5075290000000  0.5073070000000 1.0
C      1  0.5185700000000  0.5824880000000  0.5502760000000 1.0
C      1  0.4991240000000  0.4358960000000  0.4320840000000 1.0
C      1  0.4922220000000  0.5326380000000  0.5084230000000 1.0
C      1  0.4924640000000  0.5123710000000  0.5963620000000 1.0
C      1  0.5395070000000  0.5853950000000  0.5149080000000 1.0
C      1  0.5786110000000  0.4925510000000  0.4578440000000 1.0
C      1  0.5872410000000  0.5352190000000  0.5198700000000 1.0
C      1  0.4858100000000  0.5510250000000  0.4373390000000 1.0
C      1  0.5961760000000  0.4918680000000  0.5310150000000 1.0
C      1  0.4064390000000  0.5054540000000  0.5115950000000 1.0
C      1  0.5195050000000  0.4303790000000  0.4677410000000 1.0
C      1  0.5098370000000  0.4628350000000  0.5320490000000 1.0
C      1  0.4521320000000  0.4169560000000  0.5045510000000 1.0
C      1  0.4729450000000  0.5513860000000  0.5801410000000 1.0
C      1  0.4516910000000  0.5167460000000  0.5186380000000 1.0
C      1  0.5569070000000  0.4974560000000  0.5065270000000 1.0
C      1  0.4488700000000  0.5267970000000  0.4924330000000 1.0
C      1  0.4657120000000  0.5104190000000  0.4757860000000 1.0
C      1  0.5428540000000  0.5738320000000  0.5420210000000 1.0
C      1  0.4257810000000  0.5216860000000  0.5570130000000 1.0
C      1  0.5274430000000  0.4908730000000  0.5893080000000 1.0
C      1  0.4591250000000  0.5749930000000  0.5095470000000 1.0
C      1  0.4714820000000  0.4949890000000  0.5220940000000 1.0
C      1  0.4578510000000  0.5564140000000  0.4439790000000 1.0
C      1  0.5552920000000  0.4668890000000  0.5458620000000 1.0
C      1  0.5495530000000  0.4389950000000  0.5524580000000 1.0
C      1  0.5355290000000  0.5425360000000  0.5081140000000 1.0
C      1  0.4945010000000  0.5217090000000  0.4359200000000 1.0
C      1  0.5870070000000  0.5058780000000  0.5539720000000 1.0
C      1  0.5146650000000  0.5024390000000  0.4820940000000 1.0
C      1  0.5441230000000  0.5434060000000  0.4594380000000 1.0
C      1  0.5214110000000  0.5179690000000  0.5906450000000 1.0
C      1  0.4743440000000  0.5036430000000  0.4246330000000 1.0
C      1  0.4889640000000  0.5756860000000  0.5132840000000 1.0
C      1  0.5423940000000  0.5237910000000  0.4389530000000 1.0
C      1  0.5485020000000  0.5441940000000  0.4103610000000 1.0
C      1  0.5620670000000  0.5011680000000  0.4346600000000 1.0
C      1  0.5766610000000  0.5330250000000  0.5467300000000 1.0
C      1  0.4403530000000  0.5376770000000  0.5371150000000 1.0
C      1  0.4959430000000  0.5768090000000  0.5623740000000 1.0
C      1  0.4513020000000  0.4420470000000  0.4331810000000 1.0
C      1  0.4253750000000  0.4353800000000  0.4704880000000 1.0
C      1  0.5729860000000  0.4393730000000  0.4783660000000 1.0
C      1  0.4752360000000  0.4759980000000  0.5017420000000 1.0
C      1  0.4880220000000  0.5320670000000  0.5363030000000 1.0
C      1  0.4359020000000  0.5326620000000  0.4422150000000 1.0
C      1  0.5537480000000  0.5630000000000  0.5045280000000 1.0
C      1  0.4427590000000  0.4826990000000  0.5737430000000 1.0
C      1  0.5366180000000  0.5161420000000  0.4987670000000 1.0
C      1  0.5163080000000  0.5059720000000  0.4477540000000 1.0
C      1  0.4686430000000  0.4686540000000  0.5800700000000 1.0
C      1  0.5081420000000  0.4507470000000  0.4861170000000 1.0
C      1  0.4840710000000  0.4935150000000  0.5762800000000 1.0
C      1  0.5212560000000  0.4647740000000  0.5816810000000 1.0
C      1  0.5448840000000  0.4841510000000  0.4168720000000 1.0
C      1  0.5096670000000  0.5525850000000  0.4998140000000 1.0
C      1  0.5026210000000  0.4240060000000  0.5699070000000 1.0
C      1  0.4595040000000  0.4402640000000  0.5192510000000 1.0
C      1  0.4466580000000  0.5194710000000  0.4195530000000 1.0
C      1  0.4895780000000  0.5118610000000  0.4912290000000 1.0
C      1  0.4198360000000  0.5112880000000  0.4599940000000 1.0
C      1  0.4667800000000  0.4816230000000  0.4464650000000 1.0
C      1  0.5681980000000  0.4273560000000  0.5060940000000 1.0
C      1  0.5205540000000  0.5547850000000  0.4708160000000 1.0
C      1  0.4924330000000  0.5042230000000  0.5461400000000 1.0
C      1  0.5806790000000  0.4787020000000  0.5500380000000 1.0
C      1  0.5325760000000  0.4799270000000  0.5335240000000 1.0
C      1  0.5514630000000  0.4750020000000  0.4914540000000 1.0
C      1  0.4135810000000  0.5003700000000  0.5399710000000 1.0
C      1  0.4956830000000  0.5753060000000  0.4483580000000 1.0
C      1  0.4215760000000  0.5476590000000  0.4915770000000 1.0
C      1  0.4793610000000  0.5556290000000  0.5535670000000 1.0
C      1  0.4274120000000  0.4654860000000  0.4777920000000 1.0
C      1  0.5717810000000  0.4688800000000  0.4743060000000 1.0
C      1  0.4422690000000  0.5113000000000  0.5784210000000 1.0
C      1  0.4872810000000  0.4016540000000  0.4862560000000 1.0
C      1  0.4915420000000  0.5991640000000  0.4972020000000 1.0
END
