TITL C-4164234-2335-407 19.6839311010746 125000 -17652.1282078148 0 0 121 (C1) n - 1
REM
REM in /home/nfs/bkarasulu/CARBON/AIRSS/Generating-Clusters/ReaxFF-fromJPCA2015/Units_Real/with-SteepDescent/Only-C1/SD-CG/Try1-3A/FIRE-CG
REM
REM
REM
REM
REM
REM ./C.cell (11c1c37f851c82e70ff6c80c92926a4b)
REM
REM compiler GCC version 9.2.1 20190827 (Red Hat 9.2.1-1)
REM options -cpp -mtune=generic -march=x86-64 -g -O0 -fpre-include=/usr/include/finclude/math-vector-fortran.h
REM seed -530789837 -1274936095 2106655690 -1034042567 1887014881 867205425 -2072547327 933828169 -304510925 -92596825 1390575 -1916320016 -797217055 -1106813456 1197718773 1279531134 356352280 -1162840789 2076869635 341589567 1720107192 1267338229 -1406535047 1029984468 557934017 1843316669 -464128156 886197822 -98204097 -1410661775 87957257 -1826181247 -1398290586
REM
CELL 1.54180   50.00000   50.00000   50.00000   90.00000   90.00000   90.00000
LATT -1
SFAC C  
C      1  0.5576380000000  0.5699660000000  0.4887110000000 1.0
C      1  0.5592820000000  0.5708060000000  0.5156880000000 1.0
C      1  0.4591210000000  0.5285980000000  0.4227710000000 1.0
C      1  0.4159720000000  0.4901010000000  0.5035790000000 1.0
C      1  0.4637540000000  0.5225030000000  0.5784430000000 1.0
C      1  0.5440240000000  0.5704130000000  0.5656830000000 1.0
C      1  0.5156150000000  0.5409980000000  0.5217770000000 1.0
C      1  0.5271940000000  0.5026110000000  0.5968490000000 1.0
C      1  0.5042410000000  0.5684700000000  0.5180530000000 1.0
C      1  0.4513600000000  0.4682450000000  0.4022500000000 1.0
C      1  0.4858840000000  0.4013060000000  0.5274440000000 1.0
C      1  0.4843620000000  0.5415290000000  0.4149490000000 1.0
C      1  0.5165630000000  0.4176760000000  0.4624630000000 1.0
C      1  0.5882930000000  0.5265090000000  0.4995620000000 1.0
C      1  0.4354960000000  0.5350310000000  0.5663940000000 1.0
C      1  0.4351290000000  0.4201430000000  0.5262000000000 1.0
C      1  0.5496690000000  0.4613130000000  0.5702960000000 1.0
C      1  0.5253950000000  0.5109290000000  0.4825740000000 1.0
C      1  0.4445110000000  0.4535730000000  0.4297710000000 1.0
C      1  0.5300540000000  0.4783740000000  0.4093780000000 1.0
C      1  0.4723760000000  0.5269850000000  0.4494770000000 1.0
C      1  0.4286910000000  0.4678500000000  0.4485940000000 1.0
C      1  0.4486600000000  0.5087340000000  0.4754290000000 1.0
C      1  0.5559620000000  0.4757450000000  0.5327570000000 1.0
C      1  0.4923970000000  0.4851440000000  0.4705850000000 1.0
C      1  0.4392970000000  0.5597530000000  0.5091240000000 1.0
C      1  0.5814110000000  0.4888740000000  0.5418370000000 1.0
C      1  0.4705700000000  0.5779460000000  0.4468750000000 1.0
C      1  0.4087820000000  0.5050590000000  0.4781040000000 1.0
C      1  0.4333870000000  0.5251530000000  0.4364240000000 1.0
C      1  0.5533120000000  0.4589590000000  0.4798810000000 1.0
C      1  0.5465670000000  0.5465230000000  0.5832200000000 1.0
C      1  0.5031040000000  0.5188530000000  0.4140660000000 1.0
C      1  0.5294520000000  0.5075470000000  0.4021400000000 1.0
C      1  0.4831840000000  0.5750960000000  0.5364970000000 1.0
C      1  0.4909280000000  0.5566940000000  0.5583770000000 1.0
C      1  0.4196200000000  0.4373570000000  0.5117350000000 1.0
C      1  0.5100420000000  0.5848650000000  0.4921780000000 1.0
C      1  0.4901340000000  0.4511500000000  0.4380840000000 1.0
C      1  0.5665860000000  0.4462070000000  0.4391510000000 1.0
C      1  0.4541780000000  0.4674700000000  0.5313440000000 1.0
C      1  0.4115600000000  0.5338860000000  0.4789730000000 1.0
C      1  0.5881310000000  0.5410360000000  0.4603120000000 1.0
C      1  0.4524570000000  0.5737850000000  0.5318680000000 1.0
C      1  0.4625640000000  0.4150020000000  0.5181560000000 1.0
C      1  0.4575230000000  0.4499690000000  0.4788610000000 1.0
C      1  0.4855000000000  0.5102710000000  0.5348790000000 1.0
C      1  0.5278060000000  0.4551740000000  0.5517110000000 1.0
C      1  0.5406900000000  0.4191380000000  0.4788920000000 1.0
C      1  0.4913810000000  0.4111520000000  0.4756330000000 1.0
C      1  0.5033490000000  0.4667070000000  0.4116250000000 1.0
C      1  0.4285540000000  0.4995850000000  0.4549380000000 1.0
C      1  0.5261030000000  0.5653610000000  0.4464340000000 1.0
C      1  0.4834180000000  0.5270640000000  0.5564870000000 1.0
C      1  0.5613950000000  0.4350520000000  0.4655330000000 1.0
C      1  0.4645650000000  0.5214890000000  0.5206050000000 1.0
C      1  0.4440230000000  0.4766670000000  0.5060950000000 1.0
C      1  0.5546770000000  0.4659340000000  0.4198640000000 1.0
C      1  0.5786800000000  0.4728200000000  0.4354280000000 1.0
C      1  0.5946790000000  0.5163150000000  0.4689300000000 1.0
C      1  0.5708090000000  0.5384490000000  0.4429390000000 1.0
C      1  0.4589020000000  0.4931140000000  0.5824290000000 1.0
C      1  0.4795710000000  0.4712630000000  0.4015780000000 1.0
C      1  0.5492890000000  0.4848210000000  0.5885000000000 1.0
C      1  0.4820060000000  0.4359760000000  0.5587470000000 1.0
C      1  0.4169490000000  0.5396800000000  0.5071960000000 1.0
C      1  0.4443000000000  0.5693150000000  0.4525170000000 1.0
C      1  0.4646620000000  0.4337200000000  0.4381030000000 1.0
C      1  0.4275930000000  0.4531630000000  0.4734640000000 1.0
C      1  0.5817030000000  0.5518310000000  0.4864090000000 1.0
C      1  0.5017590000000  0.6093620000000  0.4899840000000 1.0
C      1  0.4891180000000  0.4989440000000  0.4930770000000 1.0
C      1  0.5926040000000  0.4637570000000  0.5220910000000 1.0
C      1  0.5504540000000  0.5048000000000  0.4932060000000 1.0
C      1  0.4963590000000  0.4628030000000  0.5608910000000 1.0
C      1  0.4214840000000  0.5147910000000  0.5508440000000 1.0
C      1  0.5833720000000  0.4908790000000  0.4585740000000 1.0
C      1  0.5018750000000  0.4647580000000  0.5166250000000 1.0
C      1  0.5520890000000  0.5293490000000  0.5596490000000 1.0
C      1  0.5015730000000  0.5416540000000  0.6117220000000 1.0
C      1  0.5485480000000  0.5493270000000  0.4316050000000 1.0
C      1  0.5852870000000  0.5187390000000  0.5264430000000 1.0
C      1  0.5321850000000  0.5734040000000  0.4718200000000 1.0
C      1  0.5285090000000  0.5313560000000  0.6007100000000 1.0
C      1  0.4092740000000  0.4577990000000  0.4966010000000 1.0
C      1  0.5645270000000  0.5664500000000  0.5418580000000 1.0
C      1  0.5212260000000  0.4825100000000  0.5106810000000 1.0
C      1  0.4668830000000  0.4247140000000  0.4660170000000 1.0
C      1  0.4955840000000  0.5617080000000  0.4367330000000 1.0
C      1  0.4820000000000  0.5209970000000  0.6048810000000 1.0
C      1  0.4414890000000  0.5564020000000  0.5505750000000 1.0
C      1  0.4765810000000  0.4651440000000  0.4618150000000 1.0
C      1  0.4251820000000  0.5453580000000  0.4543520000000 1.0
C      1  0.5280530000000  0.4208540000000  0.5056540000000 1.0
C      1  0.5667380000000  0.4587470000000  0.5116130000000 1.0
C      1  0.5166200000000  0.5673200000000  0.5615950000000 1.0
C      1  0.5018880000000  0.4071090000000  0.5033040000000 1.0
C      1  0.4832770000000  0.4774040000000  0.5841620000000 1.0
C      1  0.5417230000000  0.4998670000000  0.5211690000000 1.0
C      1  0.5323670000000  0.5258940000000  0.5386750000000 1.0
C      1  0.5152200000000  0.4446100000000  0.4514190000000 1.0
C      1  0.5059910000000  0.5199400000000  0.5014060000000 1.0
C      1  0.4636060000000  0.5447710000000  0.5026080000000 1.0
C      1  0.4834830000000  0.4801510000000  0.5366100000000 1.0
C      1  0.4590210000000  0.4385690000000  0.5382980000000 1.0
C      1  0.5100530000000  0.5166410000000  0.4419360000000 1.0
C      1  0.4321890000000  0.4905480000000  0.5673240000000 1.0
C      1  0.4615220000000  0.5338280000000  0.4747090000000 1.0
C      1  0.4298890000000  0.4662330000000  0.5531520000000 1.0
C      1  0.5760300000000  0.5389700000000  0.5448780000000 1.0
C      1  0.5297060000000  0.4652480000000  0.4622020000000 1.0
C      1  0.4594910000000  0.4995640000000  0.4998920000000 1.0
C      1  0.4982510000000  0.4961730000000  0.6002020000000 1.0
C      1  0.5656100000000  0.4849030000000  0.4795430000000 1.0
C      1  0.4971180000000  0.5379050000000  0.4558750000000 1.0
C      1  0.4149650000000  0.5150910000000  0.5229250000000 1.0
C      1  0.4948690000000  0.4099400000000  0.5558210000000 1.0
C      1  0.5453090000000  0.5268550000000  0.4143300000000 1.0
C      1  0.5231770000000  0.4438480000000  0.5245120000000 1.0
C      1  0.5713520000000  0.4816450000000  0.5695500000000 1.0
C      1  0.5194890000000  0.4935660000000  0.4600590000000 1.0
END
