TITL C-4164243-3780-451 -2.22183052827316 125000 -9615.07285050298 0 0 64 (C1) n - 1
REM
REM in /home/nfs/bkarasulu/CARBON/AIRSS/Generating-Clusters/ReaxFF-fromJPCA2015/Units_Real/with-SteepDescent/Only-C1/SD-CG/Try1-3A/FIRE-CG
REM
REM
REM
REM
REM
REM ./C.cell (11c1c37f851c82e70ff6c80c92926a4b)
REM
REM compiler GCC version 9.2.1 20190827 (Red Hat 9.2.1-1)
REM options -cpp -mtune=generic -march=x86-64 -g -O0 -fpre-include=/usr/include/finclude/math-vector-fortran.h
REM seed -335941762 1881985787 -1008182625 -1262507058 840994552 1818758907 345061915 -722534379 301870778 997224757 2082069343 2142823709 1865148273 1504272071 1053993777 -1899108362 47339868 -1318970585 1377521371 776602207 -2071892041 939641180 1135388488 -606189959 -1145323279 1560097899 -481524691 -1480425029 -1412279868 -1887159056 1505791136 -1257473008 -261455469
REM
CELL 1.54180   50.00000   50.00000   50.00000   90.00000   90.00000   90.00000
LATT -1
SFAC C  
C      1  0.4725630000000  0.4706910000000  0.4350950000000 1.0
C      1  0.5750830000000  0.4681550000000  0.5019820000000 1.0
C      1  0.5259990000000  0.4970760000000  0.5864260000000 1.0
C      1  0.5533980000000  0.4800300000000  0.5474940000000 1.0
C      1  0.4811870000000  0.5528900000000  0.5345700000000 1.0
C      1  0.4803300000000  0.5429080000000  0.4280500000000 1.0
C      1  0.4270140000000  0.4960260000000  0.5409770000000 1.0
C      1  0.4601840000000  0.4947640000000  0.4228300000000 1.0
C      1  0.5436090000000  0.5307810000000  0.5428460000000 1.0
C      1  0.5316460000000  0.5713110000000  0.4889910000000 1.0
C      1  0.5283920000000  0.5070520000000  0.4434590000000 1.0
C      1  0.5231710000000  0.4789370000000  0.4369480000000 1.0
C      1  0.4462690000000  0.4719210000000  0.5475140000000 1.0
C      1  0.4807750000000  0.5263470000000  0.5442030000000 1.0
C      1  0.5806920000000  0.4972360000000  0.4911740000000 1.0
C      1  0.4579500000000  0.5583420000000  0.5158150000000 1.0
C      1  0.5258770000000  0.4658610000000  0.4627440000000 1.0
C      1  0.5111540000000  0.4613660000000  0.5741600000000 1.0
C      1  0.5256970000000  0.4881680000000  0.5155480000000 1.0
C      1  0.4969700000000  0.5306890000000  0.5662420000000 1.0
C      1  0.5236220000000  0.4337000000000  0.4999410000000 1.0
C      1  0.4977990000000  0.5282040000000  0.4123070000000 1.0
C      1  0.4689220000000  0.4350600000000  0.5170560000000 1.0
C      1  0.5367000000000  0.4418590000000  0.4741590000000 1.0
C      1  0.4365020000000  0.5021920000000  0.4659020000000 1.0
C      1  0.5030110000000  0.4561920000000  0.5468750000000 1.0
C      1  0.4684000000000  0.4690460000000  0.4644630000000 1.0
C      1  0.4675780000000  0.5539100000000  0.4664020000000 1.0
C      1  0.5673090000000  0.5206210000000  0.4852680000000 1.0
C      1  0.4964210000000  0.4263950000000  0.5080630000000 1.0
C      1  0.4460150000000  0.5130580000000  0.4412110000000 1.0
C      1  0.4882340000000  0.4801170000000  0.5825670000000 1.0
C      1  0.4262720000000  0.4971170000000  0.5121860000000 1.0
C      1  0.5301530000000  0.5563840000000  0.5360900000000 1.0
C      1  0.5055930000000  0.5638210000000  0.5220480000000 1.0
C      1  0.5022500000000  0.4816950000000  0.5310660000000 1.0
C      1  0.5498690000000  0.4366240000000  0.5138900000000 1.0
C      1  0.4662230000000  0.4762680000000  0.5658150000000 1.0
C      1  0.5451850000000  0.5032950000000  0.5313360000000 1.0
C      1  0.4510640000000  0.5465550000000  0.4902850000000 1.0
C      1  0.4341150000000  0.4706000000000  0.5015030000000 1.0
C      1  0.4907970000000  0.4317710000000  0.5361500000000 1.0
C      1  0.5632700000000  0.4444540000000  0.4886300000000 1.0
C      1  0.5162410000000  0.4856570000000  0.4847990000000 1.0
C      1  0.5450960000000  0.5526890000000  0.4718360000000 1.0
C      1  0.5048170000000  0.5758340000000  0.4944450000000 1.0
C      1  0.4821780000000  0.5036340000000  0.5272950000000 1.0
C      1  0.4842350000000  0.4845920000000  0.4830450000000 1.0
C      1  0.5002950000000  0.5081630000000  0.5856230000000 1.0
C      1  0.5629270000000  0.4605100000000  0.5276620000000 1.0
C      1  0.5239100000000  0.5422210000000  0.5607600000000 1.0
C      1  0.5413360000000  0.5274770000000  0.4851370000000 1.0
C      1  0.5198290000000  0.5531020000000  0.4536430000000 1.0
C      1  0.4858570000000  0.5005900000000  0.4090870000000 1.0
C      1  0.4405310000000  0.4740630000000  0.4730500000000 1.0
C      1  0.4981020000000  0.4765520000000  0.4211800000000 1.0
C      1  0.4562350000000  0.5415930000000  0.4417570000000 1.0
C      1  0.4437850000000  0.5154150000000  0.4923630000000 1.0
C      1  0.5255310000000  0.5091270000000  0.4719050000000 1.0
C      1  0.4499280000000  0.4566440000000  0.5216170000000 1.0
C      1  0.5202080000000  0.5330430000000  0.4319430000000 1.0
C      1  0.4961470000000  0.5615330000000  0.4688010000000 1.0
C      1  0.4717330000000  0.5028950000000  0.5005900000000 1.0
C      1  0.5378160000000  0.4751770000000  0.5731820000000 1.0
END
