TITL C-4164240-4114-495 -1.33342274536707 125000 -4171.65422298879 0 0 30 (C1) n - 1
REM
REM in /home/nfs/bkarasulu/CARBON/AIRSS/Generating-Clusters/ReaxFF-fromJPCA2015/Units_Real/with-SteepDescent/Only-C1/SD-CG/Try1-3A/FIRE-CG
REM
REM
REM
REM
REM
REM ./C.cell (11c1c37f851c82e70ff6c80c92926a4b)
REM
REM compiler GCC version 9.2.1 20190827 (Red Hat 9.2.1-1)
REM options -cpp -mtune=generic -march=x86-64 -g -O0 -fpre-include=/usr/include/finclude/math-vector-fortran.h
REM seed 381822023 -302982493 336691200 -417793221 -1347220809 1396546901 -822727159 -166680571 -1758271518 1840485120 -1880245774 2000875516 -875877028 1620983007 331723771 1351780957 703340383 -1214346322 259583760 526174184 1575922757 -90565500 1463543064 -967326256 -842261530 -1591839082 2026320490 -266616898 1681395864 -1710803404 -947596831 -1751500035 1828804980
REM
CELL 1.54180   50.00000   50.00000   50.00000   90.00000   90.00000   90.00000
LATT -1
SFAC C  
C      1  0.5170860000000  0.5176940000000  0.4493650000000 1.0
C      1  0.5213130000000  0.5245990000000  0.5340590000000 1.0
C      1  0.5352550000000  0.4870870000000  0.5038550000000 1.0
C      1  0.4975750000000  0.5217550000000  0.4655090000000 1.0
C      1  0.5658330000000  0.4730730000000  0.4795640000000 1.0
C      1  0.4716270000000  0.5250440000000  0.5349600000000 1.0
C      1  0.4969710000000  0.4571500000000  0.4483020000000 1.0
C      1  0.5357170000000  0.4995550000000  0.5310570000000 1.0
C      1  0.4550710000000  0.5233490000000  0.5124610000000 1.0
C      1  0.4630710000000  0.4953190000000  0.5012660000000 1.0
C      1  0.5476390000000  0.4657870000000  0.4644600000000 1.0
C      1  0.4818010000000  0.5482260000000  0.4595970000000 1.0
C      1  0.4949310000000  0.5119870000000  0.5262410000000 1.0
C      1  0.4886090000000  0.4898110000000  0.5430680000000 1.0
C      1  0.4938220000000  0.4542560000000  0.4904490000000 1.0
C      1  0.4617840000000  0.5508900000000  0.5060020000000 1.0
C      1  0.4868100000000  0.4527800000000  0.5195180000000 1.0
C      1  0.5242840000000  0.4605450000000  0.4536300000000 1.0
C      1  0.5593130000000  0.4837280000000  0.5002850000000 1.0
C      1  0.5066970000000  0.5651930000000  0.5015080000000 1.0
C      1  0.4803450000000  0.5619560000000  0.4851950000000 1.0
C      1  0.5108350000000  0.4521550000000  0.5385190000000 1.0
C      1  0.4533810000000  0.4778780000000  0.4756850000000 1.0
C      1  0.4724080000000  0.4579040000000  0.4697420000000 1.0
C      1  0.4711300000000  0.4763050000000  0.5244920000000 1.0
C      1  0.5087750000000  0.4793940000000  0.4869210000000 1.0
C      1  0.4924520000000  0.5029250000000  0.4917280000000 1.0
C      1  0.4789120000000  0.5524020000000  0.5300850000000 1.0
C      1  0.5097650000000  0.5510320000000  0.5270030000000 1.0
C      1  0.5167870000000  0.4802230000000  0.5454720000000 1.0
END
