TITL C-4164238-4211-551 34.6803777455228 125000 -23140.7435973802 0 0 156 (C1) n - 1
REM
REM in /home/nfs/bkarasulu/CARBON/AIRSS/Generating-Clusters/ReaxFF-fromJPCA2015/Units_Real/with-SteepDescent/Only-C1/SD-CG/Try1-3A/FIRE-CG
REM
REM
REM
REM
REM
REM ./C.cell (11c1c37f851c82e70ff6c80c92926a4b)
REM
REM compiler GCC version 9.2.1 20190827 (Red Hat 9.2.1-1)
REM options -cpp -mtune=generic -march=x86-64 -g -O0 -fpre-include=/usr/include/finclude/math-vector-fortran.h
REM seed -1078914797 128546387 885561059 -2146139646 1446426403 1293294699 -1777098868 45899377 543332077 229307026 1654103881 106866377 92055757 2021227168 -1417483741 1235116367 -375222680 1387237803 1921476361 -1956470504 -1904867211 1394453827 -870144572 1000534274 -1261480724 1480769539 815902604 -350334880 275910194 1718517886 -368477449 1448882500 -1476490384
REM
CELL 1.54180   50.00000   50.00000   50.00000   90.00000   90.00000   90.00000
LATT -1
SFAC C  
C      1  0.5340710000000  0.4029830000000  0.5358540000000 1.0
C      1  0.4226930000000  0.5072650000000  0.5672100000000 1.0
C      1  0.5603270000000  0.4865450000000  0.5862870000000 1.0
C      1  0.5059110000000  0.4609750000000  0.5039390000000 1.0
C      1  0.5328690000000  0.4568570000000  0.5577350000000 1.0
C      1  0.5253100000000  0.4626920000000  0.4542170000000 1.0
C      1  0.5435320000000  0.5098720000000  0.5947520000000 1.0
C      1  0.6014640000000  0.4913270000000  0.4680440000000 1.0
C      1  0.4122410000000  0.4451440000000  0.5265250000000 1.0
C      1  0.4853680000000  0.4654250000000  0.4860060000000 1.0
C      1  0.4947610000000  0.5277560000000  0.4992410000000 1.0
C      1  0.5580790000000  0.5867370000000  0.5000410000000 1.0
C      1  0.5516180000000  0.5049660000000  0.4455420000000 1.0
C      1  0.5900570000000  0.5383790000000  0.5467420000000 1.0
C      1  0.5173520000000  0.4181810000000  0.5479240000000 1.0
C      1  0.4843570000000  0.5184110000000  0.5488270000000 1.0
C      1  0.4900120000000  0.4652650000000  0.5564260000000 1.0
C      1  0.4037500000000  0.5007900000000  0.5182840000000 1.0
C      1  0.5203030000000  0.5408850000000  0.5015350000000 1.0
C      1  0.4290180000000  0.4670550000000  0.5736810000000 1.0
C      1  0.4271460000000  0.5632890000000  0.4680390000000 1.0
C      1  0.4993820000000  0.5261140000000  0.4158540000000 1.0
C      1  0.5463500000000  0.5401310000000  0.4081210000000 1.0
C      1  0.4799120000000  0.4031100000000  0.5243060000000 1.0
C      1  0.4442660000000  0.4827100000000  0.4869360000000 1.0
C      1  0.5443120000000  0.5490740000000  0.4551680000000 1.0
C      1  0.5858700000000  0.5518120000000  0.4972610000000 1.0
C      1  0.4009570000000  0.5300890000000  0.5136390000000 1.0
C      1  0.4589800000000  0.5510790000000  0.5158800000000 1.0
C      1  0.4748500000000  0.4813770000000  0.4454450000000 1.0
C      1  0.4509500000000  0.5065690000000  0.5245170000000 1.0
C      1  0.4414790000000  0.4096670000000  0.5018920000000 1.0
C      1  0.4522980000000  0.4342090000000  0.5434330000000 1.0
C      1  0.4920420000000  0.5006670000000  0.4055040000000 1.0
C      1  0.5413700000000  0.4040310000000  0.4795840000000 1.0
C      1  0.5107970000000  0.4353610000000  0.4951440000000 1.0
C      1  0.5319170000000  0.5795030000000  0.5118520000000 1.0
C      1  0.4401740000000  0.4899040000000  0.5841900000000 1.0
C      1  0.5423750000000  0.5343940000000  0.4808690000000 1.0
C      1  0.5604470000000  0.4208590000000  0.4661040000000 1.0
C      1  0.4699680000000  0.4023700000000  0.4999920000000 1.0
C      1  0.4916220000000  0.5316860000000  0.4452650000000 1.0
C      1  0.5146570000000  0.5075640000000  0.5926860000000 1.0
C      1  0.5265810000000  0.4189820000000  0.5709830000000 1.0
C      1  0.6000690000000  0.5465540000000  0.4525320000000 1.0
C      1  0.5346350000000  0.5325970000000  0.5532260000000 1.0
C      1  0.5252880000000  0.4436590000000  0.5841170000000 1.0
C      1  0.4036840000000  0.4551180000000  0.5008250000000 1.0
C      1  0.5190400000000  0.4129090000000  0.4384340000000 1.0
C      1  0.4582600000000  0.5308540000000  0.5369080000000 1.0
C      1  0.5702900000000  0.5021220000000  0.4993570000000 1.0
C      1  0.5005950000000  0.5564380000000  0.5788480000000 1.0
C      1  0.4889330000000  0.4055780000000  0.5495750000000 1.0
C      1  0.4277410000000  0.4166530000000  0.4788060000000 1.0
C      1  0.5905860000000  0.4620660000000  0.4986570000000 1.0
C      1  0.5391620000000  0.5216830000000  0.3877720000000 1.0
C      1  0.4904950000000  0.4176740000000  0.4795560000000 1.0
C      1  0.5855740000000  0.4714240000000  0.4530740000000 1.0
C      1  0.5313050000000  0.5047920000000  0.4684170000000 1.0
C      1  0.4723490000000  0.5510790000000  0.5888580000000 1.0
C      1  0.4100850000000  0.4828610000000  0.4578570000000 1.0
C      1  0.4599860000000  0.4616970000000  0.4978140000000 1.0
C      1  0.5103350000000  0.4557100000000  0.5381830000000 1.0
C      1  0.5226040000000  0.4848380000000  0.4983100000000 1.0
C      1  0.4147040000000  0.5454560000000  0.5333850000000 1.0
C      1  0.4489740000000  0.5788920000000  0.5597970000000 1.0
C      1  0.5447730000000  0.5776330000000  0.4508920000000 1.0
C      1  0.5649360000000  0.5845620000000  0.4715580000000 1.0
C      1  0.5416860000000  0.4530390000000  0.4085260000000 1.0
C      1  0.5810210000000  0.4562010000000  0.5254310000000 1.0
C      1  0.4801280000000  0.4470750000000  0.5783800000000 1.0
C      1  0.4917980000000  0.5834770000000  0.4728650000000 1.0
C      1  0.5014670000000  0.4570980000000  0.5954830000000 1.0
C      1  0.4215570000000  0.4614950000000  0.4450190000000 1.0
C      1  0.5442430000000  0.4040480000000  0.5103080000000 1.0
C      1  0.5414910000000  0.4486310000000  0.4354700000000 1.0
C      1  0.4122390000000  0.4380630000000  0.4791680000000 1.0
C      1  0.3946840000000  0.4831350000000  0.4960820000000 1.0
C      1  0.5707230000000  0.4999130000000  0.5290330000000 1.0
C      1  0.5201830000000  0.5871760000000  0.4355660000000 1.0
C      1  0.4648830000000  0.6118070000000  0.4996320000000 1.0
C      1  0.4377440000000  0.5892400000000  0.5357030000000 1.0
C      1  0.5947420000000  0.5165220000000  0.5295660000000 1.0
C      1  0.4927260000000  0.5813570000000  0.4432600000000 1.0
C      1  0.5467330000000  0.5731710000000  0.5573130000000 1.0
C      1  0.4363250000000  0.4369400000000  0.4599800000000 1.0
C      1  0.5023830000000  0.4309850000000  0.4198940000000 1.0
C      1  0.4587300000000  0.4838100000000  0.5377900000000 1.0
C      1  0.4498980000000  0.4738480000000  0.3987250000000 1.0
C      1  0.5687180000000  0.4848920000000  0.4329590000000 1.0
C      1  0.4535450000000  0.4922200000000  0.4610930000000 1.0
C      1  0.4702410000000  0.4236310000000  0.5641260000000 1.0
C      1  0.4815370000000  0.4311000000000  0.4373920000000 1.0
C      1  0.5432950000000  0.4824040000000  0.5631900000000 1.0
C      1  0.5837220000000  0.4913490000000  0.5696010000000 1.0
C      1  0.4977170000000  0.5136290000000  0.5233960000000 1.0
C      1  0.5571970000000  0.4773690000000  0.4062720000000 1.0
C      1  0.4458210000000  0.5554900000000  0.5756890000000 1.0
C      1  0.5679040000000  0.5294300000000  0.4925850000000 1.0
C      1  0.5291930000000  0.5532560000000  0.5254130000000 1.0
C      1  0.5113670000000  0.5935110000000  0.4936150000000 1.0
C      1  0.4115260000000  0.4628010000000  0.5515910000000 1.0
C      1  0.4162710000000  0.5565460000000  0.4873980000000 1.0
C      1  0.4677610000000  0.4979680000000  0.5982730000000 1.0
C      1  0.4710810000000  0.5409780000000  0.4918230000000 1.0
C      1  0.4760060000000  0.5782540000000  0.5387990000000 1.0
C      1  0.4510850000000  0.5208620000000  0.4234040000000 1.0
C      1  0.6050840000000  0.5181280000000  0.4561350000000 1.0
C      1  0.4310970000000  0.5646470000000  0.5177930000000 1.0
C      1  0.5471990000000  0.4218530000000  0.4411510000000 1.0
C      1  0.5373010000000  0.4927250000000  0.3920280000000 1.0
C      1  0.5772000000000  0.5722270000000  0.5166820000000 1.0
C      1  0.5173420000000  0.5765880000000  0.5648870000000 1.0
C      1  0.5133650000000  0.4528510000000  0.4029290000000 1.0
C      1  0.4962160000000  0.4694660000000  0.4591260000000 1.0
C      1  0.5107430000000  0.4812490000000  0.3969270000000 1.0
C      1  0.4669950000000  0.5378660000000  0.4634610000000 1.0
C      1  0.5744560000000  0.4504680000000  0.4718420000000 1.0
C      1  0.4638200000000  0.5733320000000  0.4344200000000 1.0
C      1  0.4458990000000  0.5799700000000  0.4571440000000 1.0
C      1  0.5108370000000  0.5185810000000  0.4552560000000 1.0
C      1  0.4310500000000  0.5353640000000  0.5566480000000 1.0
C      1  0.3999910000000  0.5016430000000  0.4750090000000 1.0
C      1  0.4778630000000  0.4908690000000  0.5561030000000 1.0
C      1  0.4639170000000  0.6023660000000  0.5288710000000 1.0
C      1  0.5538870000000  0.5297600000000  0.5758740000000 1.0
C      1  0.4039600000000  0.5333380000000  0.4851220000000 1.0
C      1  0.4316200000000  0.5004190000000  0.5057360000000 1.0
C      1  0.4648910000000  0.5940750000000  0.4762800000000 1.0
C      1  0.4314440000000  0.4233450000000  0.5258480000000 1.0
C      1  0.5358230000000  0.4324040000000  0.5083220000000 1.0
C      1  0.4675210000000  0.5244570000000  0.5941130000000 1.0
C      1  0.5522490000000  0.5321340000000  0.4347040000000 1.0
C      1  0.5177110000000  0.4937080000000  0.5255990000000 1.0
C      1  0.5482880000000  0.4759370000000  0.4970830000000 1.0
C      1  0.4684360000000  0.4286500000000  0.4588370000000 1.0
C      1  0.5882820000000  0.4787400000000  0.5436490000000 1.0
C      1  0.5466720000000  0.4626310000000  0.4722710000000 1.0
C      1  0.5970520000000  0.4905510000000  0.4976630000000 1.0
C      1  0.4070280000000  0.4913760000000  0.5491660000000 1.0
C      1  0.5709380000000  0.5646740000000  0.5443070000000 1.0
C      1  0.5814260000000  0.5215180000000  0.5690750000000 1.0
C      1  0.5535580000000  0.4541330000000  0.5156860000000 1.0
C      1  0.5398340000000  0.5039660000000  0.5429560000000 1.0
C      1  0.5086370000000  0.5290960000000  0.5702200000000 1.0
C      1  0.5879180000000  0.5663180000000  0.4721480000000 1.0
C      1  0.4572100000000  0.5480190000000  0.4233320000000 1.0
C      1  0.4953240000000  0.5850300000000  0.5494130000000 1.0
C      1  0.5148840000000  0.4050850000000  0.4658660000000 1.0
C      1  0.4958730000000  0.4864110000000  0.5987420000000 1.0
C      1  0.4574270000000  0.4572460000000  0.5262780000000 1.0
C      1  0.4929360000000  0.6131600000000  0.5016330000000 1.0
C      1  0.5202720000000  0.5382640000000  0.4009630000000 1.0
C      1  0.4675870000000  0.4936290000000  0.4166510000000 1.0
C      1  0.4465510000000  0.5199000000000  0.4520760000000 1.0
C      1  0.4288190000000  0.4641980000000  0.4159330000000 1.0
END
