TITL C-4164242-3624-241 32.0829600771417 125000 -14852.9004233265 0 0 102 (C1) n - 1
REM
REM in /home/nfs/bkarasulu/CARBON/AIRSS/Generating-Clusters/ReaxFF-fromJPCA2015/Units_Real/with-SteepDescent/Only-C1/SD-CG/Try1-3A/FIRE-CG
REM
REM
REM
REM
REM
REM ./C.cell (11c1c37f851c82e70ff6c80c92926a4b)
REM
REM compiler GCC version 9.2.1 20190827 (Red Hat 9.2.1-1)
REM options -cpp -mtune=generic -march=x86-64 -g -O0 -fpre-include=/usr/include/finclude/math-vector-fortran.h
REM seed -49321297 -1629076833 -1613002972 748134720 -1821993312 -301841328 395057823 1764892806 -1624952852 -1207260711 -2072364298 1981674821 -765712111 525206741 864511134 1962515252 -1954909429 -2079525350 -1370202274 -1086412537 -920145964 798793580 1524454734 688951845 91296928 1349702646 -1279811786 -1055292927 -1767167136 -1661161947 1168649250 450217135 393461514
REM
CELL 1.54180   50.00000   50.00000   50.00000   90.00000   90.00000   90.00000
LATT -1
SFAC C  
C      1  0.5843990000000  0.5132210000000  0.5137980000000 1.0
C      1  0.4898990000000  0.5022250000000  0.5086590000000 1.0
C      1  0.5267650000000  0.5535400000000  0.5577940000000 1.0
C      1  0.5274630000000  0.4832720000000  0.4259970000000 1.0
C      1  0.5549530000000  0.5151480000000  0.5538980000000 1.0
C      1  0.5041400000000  0.4725700000000  0.5761520000000 1.0
C      1  0.5767210000000  0.5279270000000  0.5383130000000 1.0
C      1  0.5226980000000  0.5341260000000  0.5187690000000 1.0
C      1  0.4877890000000  0.5335000000000  0.4713650000000 1.0
C      1  0.5335270000000  0.5780700000000  0.4672200000000 1.0
C      1  0.5544570000000  0.4744670000000  0.4342040000000 1.0
C      1  0.4317650000000  0.5557990000000  0.5031910000000 1.0
C      1  0.4235820000000  0.4991520000000  0.5156970000000 1.0
C      1  0.4711850000000  0.5408500000000  0.4935050000000 1.0
C      1  0.4398080000000  0.5291890000000  0.4385840000000 1.0
C      1  0.4437890000000  0.4380250000000  0.4545630000000 1.0
C      1  0.4353880000000  0.5062850000000  0.5626250000000 1.0
C      1  0.5827880000000  0.5233350000000  0.4614250000000 1.0
C      1  0.4805870000000  0.5872740000000  0.4712350000000 1.0
C      1  0.4607740000000  0.4590820000000  0.5552050000000 1.0
C      1  0.5511630000000  0.4478250000000  0.4433670000000 1.0
C      1  0.4508490000000  0.5778190000000  0.5147950000000 1.0
C      1  0.5233080000000  0.5069000000000  0.5895170000000 1.0
C      1  0.4551340000000  0.4479880000000  0.4298960000000 1.0
C      1  0.4894720000000  0.4926280000000  0.4119240000000 1.0
C      1  0.5083040000000  0.4305340000000  0.5572190000000 1.0
C      1  0.5197060000000  0.4253680000000  0.4901550000000 1.0
C      1  0.5025320000000  0.5516600000000  0.5791610000000 1.0
C      1  0.4739960000000  0.5708060000000  0.4485150000000 1.0
C      1  0.4635750000000  0.5308960000000  0.5361180000000 1.0
C      1  0.4563190000000  0.4878390000000  0.5531340000000 1.0
C      1  0.5254160000000  0.5647000000000  0.5130250000000 1.0
C      1  0.4914030000000  0.5738480000000  0.5523210000000 1.0
C      1  0.4965800000000  0.5130820000000  0.4524770000000 1.0
C      1  0.5359130000000  0.4459810000000  0.4722630000000 1.0
C      1  0.4863720000000  0.4464540000000  0.4302020000000 1.0
C      1  0.4549060000000  0.5242330000000  0.5736880000000 1.0
C      1  0.4362830000000  0.5406460000000  0.5292300000000 1.0
C      1  0.4679530000000  0.5778150000000  0.5379860000000 1.0
C      1  0.4604620000000  0.4053310000000  0.5210960000000 1.0
C      1  0.4689350000000  0.4270610000000  0.4685250000000 1.0
C      1  0.5078740000000  0.5893950000000  0.4613090000000 1.0
C      1  0.5028640000000  0.5704110000000  0.4403580000000 1.0
C      1  0.5446630000000  0.4515950000000  0.5341650000000 1.0
C      1  0.4872290000000  0.5335150000000  0.5184210000000 1.0
C      1  0.5779850000000  0.4794080000000  0.4693760000000 1.0
C      1  0.4232300000000  0.4691000000000  0.5183880000000 1.0
C      1  0.5550670000000  0.4867670000000  0.5607620000000 1.0
C      1  0.4247830000000  0.4569900000000  0.4677720000000 1.0
C      1  0.5288600000000  0.4115420000000  0.5139840000000 1.0
C      1  0.5760570000000  0.4960080000000  0.4494350000000 1.0
C      1  0.5670900000000  0.4730000000000  0.5387580000000 1.0
C      1  0.4888840000000  0.4638490000000  0.4568180000000 1.0
C      1  0.5335530000000  0.4442870000000  0.5617580000000 1.0
C      1  0.4289790000000  0.5103460000000  0.4590220000000 1.0
C      1  0.5342980000000  0.5127000000000  0.4734420000000 1.0
C      1  0.5294090000000  0.5272730000000  0.5457780000000 1.0
C      1  0.4534870000000  0.4998580000000  0.4751930000000 1.0
C      1  0.4414840000000  0.4515200000000  0.5342650000000 1.0
C      1  0.5319220000000  0.5125690000000  0.5011120000000 1.0
C      1  0.4488890000000  0.5542500000000  0.4522800000000 1.0
C      1  0.4833160000000  0.5058530000000  0.4773340000000 1.0
C      1  0.5168190000000  0.4908630000000  0.5147820000000 1.0
C      1  0.4839820000000  0.5126770000000  0.4250090000000 1.0
C      1  0.5630250000000  0.5353760000000  0.4461880000000 1.0
C      1  0.4646210000000  0.5001350000000  0.5252570000000 1.0
C      1  0.4827650000000  0.5275340000000  0.5766160000000 1.0
C      1  0.5197850000000  0.5331990000000  0.5936800000000 1.0
C      1  0.5731600000000  0.5564220000000  0.5309550000000 1.0
C      1  0.5809280000000  0.5312290000000  0.4909330000000 1.0
C      1  0.4641080000000  0.4775550000000  0.4565740000000 1.0
C      1  0.4476950000000  0.5092310000000  0.5027310000000 1.0
C      1  0.5013580000000  0.4439260000000  0.5041890000000 1.0
C      1  0.4346030000000  0.5476210000000  0.4755160000000 1.0
C      1  0.4490880000000  0.4333930000000  0.5113110000000 1.0
C      1  0.5699200000000  0.5564330000000  0.5006960000000 1.0
C      1  0.5527220000000  0.5606730000000  0.5502860000000 1.0
C      1  0.5187250000000  0.4628520000000  0.5182130000000 1.0
C      1  0.5045460000000  0.4696680000000  0.4154150000000 1.0
C      1  0.4817120000000  0.4027630000000  0.5287770000000 1.0
C      1  0.4241240000000  0.4517760000000  0.4959310000000 1.0
C      1  0.5208440000000  0.4938820000000  0.4566200000000 1.0
C      1  0.4224770000000  0.4828600000000  0.4522330000000 1.0
C      1  0.4446920000000  0.4748460000000  0.4344790000000 1.0
C      1  0.5799940000000  0.4650120000000  0.4928600000000 1.0
C      1  0.4737960000000  0.4395550000000  0.4949740000000 1.0
C      1  0.4702810000000  0.5710170000000  0.4938200000000 1.0
C      1  0.5142800000000  0.4676790000000  0.4693880000000 1.0
C      1  0.4883090000000  0.4514330000000  0.5633010000000 1.0
C      1  0.5302810000000  0.5591650000000  0.4458330000000 1.0
C      1  0.5339430000000  0.4698610000000  0.5752930000000 1.0
C      1  0.4213570000000  0.5170240000000  0.5383780000000 1.0
C      1  0.5597360000000  0.4433900000000  0.4923630000000 1.0
C      1  0.4612580000000  0.5180050000000  0.4237670000000 1.0
C      1  0.4902230000000  0.4216770000000  0.4488280000000 1.0
C      1  0.5088460000000  0.4095950000000  0.5361680000000 1.0
C      1  0.5459750000000  0.5714720000000  0.4931330000000 1.0
C      1  0.5068330000000  0.5770870000000  0.5295700000000 1.0
C      1  0.5531440000000  0.4278440000000  0.5155660000000 1.0
C      1  0.5371190000000  0.5326990000000  0.4524980000000 1.0
C      1  0.5008800000000  0.5017690000000  0.5749320000000 1.0
C      1  0.5810660000000  0.4840920000000  0.5163930000000 1.0
END
