TITL C-4164236-1577-16 2.54687651782772 125000 -5936.7827117521 0 0 41 (C1) n - 1
REM
REM in /home/nfs/bkarasulu/CARBON/AIRSS/Generating-Clusters/ReaxFF-fromJPCA2015/Units_Real/with-SteepDescent/Only-C1/SD-CG/Try1-3A/FIRE-CG
REM
REM
REM
REM
REM
REM ./C.cell (11c1c37f851c82e70ff6c80c92926a4b)
REM
REM compiler GCC version 9.2.1 20190827 (Red Hat 9.2.1-1)
REM options -cpp -mtune=generic -march=x86-64 -g -O0 -fpre-include=/usr/include/finclude/math-vector-fortran.h
REM seed 233512682 1867487119 -1365344056 -395523334 591090920 2051374371 683638679 1160423660 1059921139 -2145742571 -342686422 749304870 -1506530229 -1970272913 -1795013052 -1714221447 1103378906 235731235 -1717840717 165448920 230649346 -978356293 -390988289 409699978 1168785647 1479316619 160606996 -1921410101 243555705 -2082090481 1914339513 1076827959 -430610032
REM
CELL 1.54180   50.00000   50.00000   50.00000   90.00000   90.00000   90.00000
LATT -1
SFAC C  
C      1  0.4673540000000  0.4549720000000  0.4568030000000 1.0
C      1  0.4856530000000  0.4951780000000  0.5234640000000 1.0
C      1  0.5765370000000  0.5158880000000  0.5191210000000 1.0
C      1  0.4872460000000  0.5046820000000  0.5482920000000 1.0
C      1  0.5154160000000  0.4943430000000  0.4368870000000 1.0
C      1  0.4642530000000  0.4531770000000  0.4869850000000 1.0
C      1  0.5075710000000  0.4449560000000  0.4681310000000 1.0
C      1  0.4507880000000  0.5573840000000  0.5036440000000 1.0
C      1  0.5576920000000  0.4775390000000  0.4864020000000 1.0
C      1  0.5170670000000  0.5321460000000  0.5053070000000 1.0
C      1  0.4912460000000  0.5515590000000  0.5562300000000 1.0
C      1  0.4418440000000  0.4669830000000  0.5010740000000 1.0
C      1  0.5188770000000  0.5384110000000  0.5577650000000 1.0
C      1  0.4575020000000  0.5465560000000  0.4781860000000 1.0
C      1  0.4557260000000  0.4679750000000  0.5255730000000 1.0
C      1  0.5380610000000  0.5498580000000  0.5117330000000 1.0
C      1  0.5590980000000  0.5202700000000  0.5438790000000 1.0
C      1  0.4936170000000  0.4782150000000  0.4317070000000 1.0
C      1  0.4938600000000  0.4494300000000  0.4442770000000 1.0
C      1  0.4723340000000  0.5307320000000  0.5475680000000 1.0
C      1  0.4615330000000  0.4953050000000  0.4766730000000 1.0
C      1  0.4503360000000  0.5026670000000  0.4523000000000 1.0
C      1  0.5492110000000  0.4761010000000  0.5279030000000 1.0
C      1  0.5494310000000  0.4945710000000  0.4656270000000 1.0
C      1  0.4651270000000  0.4794270000000  0.4403700000000 1.0
C      1  0.5154820000000  0.5093250000000  0.5560080000000 1.0
C      1  0.4648430000000  0.5295750000000  0.4573190000000 1.0
C      1  0.5710400000000  0.4876500000000  0.5117730000000 1.0
C      1  0.4418310000000  0.5161190000000  0.5109600000000 1.0
C      1  0.5640380000000  0.5383420000000  0.5074760000000 1.0
C      1  0.5429640000000  0.5448120000000  0.5421750000000 1.0
C      1  0.4872900000000  0.4501410000000  0.5049100000000 1.0
C      1  0.5153060000000  0.4458050000000  0.4949070000000 1.0
C      1  0.4842770000000  0.4683050000000  0.5293250000000 1.0
C      1  0.5397440000000  0.5111990000000  0.4426990000000 1.0
C      1  0.4372450000000  0.4961760000000  0.4913420000000 1.0
C      1  0.4974210000000  0.5138770000000  0.5015560000000 1.0
C      1  0.4827010000000  0.5140140000000  0.4755010000000 1.0
C      1  0.5384260000000  0.4629670000000  0.5039040000000 1.0
C      1  0.4497310000000  0.5357150000000  0.5275770000000 1.0
C      1  0.5402820000000  0.4976550000000  0.5466650000000 1.0
END
