TITL C-4164243-3780-452 88.8883465736508 125000 -24092.3943679612 0 0 165 (C1) n - 1
REM
REM in /home/nfs/bkarasulu/CARBON/AIRSS/Generating-Clusters/ReaxFF-fromJPCA2015/Units_Real/with-SteepDescent/Only-C1/SD-CG/Try1-3A/FIRE-CG
REM
REM
REM
REM
REM
REM ./C.cell (11c1c37f851c82e70ff6c80c92926a4b)
REM
REM compiler GCC version 9.2.1 20190827 (Red Hat 9.2.1-1)
REM options -cpp -mtune=generic -march=x86-64 -g -O0 -fpre-include=/usr/include/finclude/math-vector-fortran.h
REM seed 792219374 1631059909 37160359 -1140717677 1581727497 1305973772 -1576017797 1724371606 1604046914 -1002068535 -1050702534 51719010 -556892706 -141710101 -1861465503 1879657641 767822864 464017835 -586360901 1631449562 682804879 -51436180 1686459887 35328863 1809673908 -1181259989 1847711494 -851321056 -676000786 67285098 -300375452 1954748946 -2035333981
REM
CELL 1.54180   50.00000   50.00000   50.00000   90.00000   90.00000   90.00000
LATT -1
SFAC C  
C      1  0.4402520000000  0.5581330000000  0.4379870000000 1.0
C      1  0.3978920000000  0.4836490000000  0.4758600000000 1.0
C      1  0.4607050000000  0.4425350000000  0.4993560000000 1.0
C      1  0.5082690000000  0.4320720000000  0.4858480000000 1.0
C      1  0.5331060000000  0.4884290000000  0.5202560000000 1.0
C      1  0.4770920000000  0.5541070000000  0.5306670000000 1.0
C      1  0.4756200000000  0.5569070000000  0.5860270000000 1.0
C      1  0.4535770000000  0.4961550000000  0.5257950000000 1.0
C      1  0.4314120000000  0.5345230000000  0.4244660000000 1.0
C      1  0.5670090000000  0.4445460000000  0.5594100000000 1.0
C      1  0.4607650000000  0.4475900000000  0.4080670000000 1.0
C      1  0.4709760000000  0.5573270000000  0.4376810000000 1.0
C      1  0.6000100000000  0.5256040000000  0.5518930000000 1.0
C      1  0.5436530000000  0.5182740000000  0.4613480000000 1.0
C      1  0.4473020000000  0.4459220000000  0.5222890000000 1.0
C      1  0.4155000000000  0.5137380000000  0.5642030000000 1.0
C      1  0.5637120000000  0.5500520000000  0.4891310000000 1.0
C      1  0.4790460000000  0.4807340000000  0.4374540000000 1.0
C      1  0.4753920000000  0.6014230000000  0.5342360000000 1.0
C      1  0.4826740000000  0.5351020000000  0.3992190000000 1.0
C      1  0.4831050000000  0.6048790000000  0.5063580000000 1.0
C      1  0.4851030000000  0.4498300000000  0.5970490000000 1.0
C      1  0.5012910000000  0.3919250000000  0.4923080000000 1.0
C      1  0.4652400000000  0.5106120000000  0.5798460000000 1.0
C      1  0.5321040000000  0.4163330000000  0.4537640000000 1.0
C      1  0.4540130000000  0.4670530000000  0.4889160000000 1.0
C      1  0.4380740000000  0.5234130000000  0.5807690000000 1.0
C      1  0.5427350000000  0.5147210000000  0.5134460000000 1.0
C      1  0.5201050000000  0.3904660000000  0.5153430000000 1.0
C      1  0.4162200000000  0.5364450000000  0.5294470000000 1.0
C      1  0.5880470000000  0.4604860000000  0.4753570000000 1.0
C      1  0.4119550000000  0.4863660000000  0.5553710000000 1.0
C      1  0.5432410000000  0.4302000000000  0.5682790000000 1.0
C      1  0.4788870000000  0.5330840000000  0.4529950000000 1.0
C      1  0.5357080000000  0.5876030000000  0.5366440000000 1.0
C      1  0.4480770000000  0.4998710000000  0.4127810000000 1.0
C      1  0.5224230000000  0.4501190000000  0.5749610000000 1.0
C      1  0.4758530000000  0.4752070000000  0.3812270000000 1.0
C      1  0.4498090000000  0.3998660000000  0.5082360000000 1.0
C      1  0.5733840000000  0.5711550000000  0.5121570000000 1.0
C      1  0.5235770000000  0.4779830000000  0.4490070000000 1.0
C      1  0.5213610000000  0.5019770000000  0.4106580000000 1.0
C      1  0.4969910000000  0.5901680000000  0.5513460000000 1.0
C      1  0.5234420000000  0.5371430000000  0.5930830000000 1.0
C      1  0.4548990000000  0.5238920000000  0.4079990000000 1.0
C      1  0.5586660000000  0.4961620000000  0.5790330000000 1.0
C      1  0.4408230000000  0.4189980000000  0.5331500000000 1.0
C      1  0.4590560000000  0.4354170000000  0.5802910000000 1.0
C      1  0.4470290000000  0.5497740000000  0.5769980000000 1.0
C      1  0.5089900000000  0.5203550000000  0.5512370000000 1.0
C      1  0.4915720000000  0.4414870000000  0.5079180000000 1.0
C      1  0.4810440000000  0.5828720000000  0.4488950000000 1.0
C      1  0.4472950000000  0.5792260000000  0.5033050000000 1.0
C      1  0.5471620000000  0.6010630000000  0.4843430000000 1.0
C      1  0.4128450000000  0.4642790000000  0.5743040000000 1.0
C      1  0.5988030000000  0.5187730000000  0.4718720000000 1.0
C      1  0.5109060000000  0.3924640000000  0.5440260000000 1.0
C      1  0.4852330000000  0.4073660000000  0.5467000000000 1.0
C      1  0.5738540000000  0.4423690000000  0.4569510000000 1.0
C      1  0.4601470000000  0.4165510000000  0.5586090000000 1.0
C      1  0.4036790000000  0.4914860000000  0.5790120000000 1.0
C      1  0.5526980000000  0.4271690000000  0.4720490000000 1.0
C      1  0.4415730000000  0.4983190000000  0.4559710000000 1.0
C      1  0.4971380000000  0.5734260000000  0.5761810000000 1.0
C      1  0.5334100000000  0.5094970000000  0.5916400000000 1.0
C      1  0.4587160000000  0.5916010000000  0.4632150000000 1.0
C      1  0.4349920000000  0.5748450000000  0.4607000000000 1.0
C      1  0.4940380000000  0.5109080000000  0.4837420000000 1.0
C      1  0.5912600000000  0.5550310000000  0.5255570000000 1.0
C      1  0.4325030000000  0.4466350000000  0.4576670000000 1.0
C      1  0.5478070000000  0.5254320000000  0.4891700000000 1.0
C      1  0.4445100000000  0.4174520000000  0.4861410000000 1.0
C      1  0.5039970000000  0.4111780000000  0.4650320000000 1.0
C      1  0.6009310000000  0.4873490000000  0.5131190000000 1.0
C      1  0.4490340000000  0.4909900000000  0.4995010000000 1.0
C      1  0.4871900000000  0.5103100000000  0.6004210000000 1.0
C      1  0.4556540000000  0.4825180000000  0.5723900000000 1.0
C      1  0.5379380000000  0.4319750000000  0.4304840000000 1.0
C      1  0.4771740000000  0.4191390000000  0.4476810000000 1.0
C      1  0.5143260000000  0.4943520000000  0.5412100000000 1.0
C      1  0.5124710000000  0.4625360000000  0.5999000000000 1.0
C      1  0.5106270000000  0.5255990000000  0.3973270000000 1.0
C      1  0.5766460000000  0.5626150000000  0.4527870000000 1.0
C      1  0.5601050000000  0.5396000000000  0.4446000000000 1.0
C      1  0.5092400000000  0.5848370000000  0.4462730000000 1.0
C      1  0.4635400000000  0.4775730000000  0.4126420000000 1.0
C      1  0.5331210000000  0.4454720000000  0.4846190000000 1.0
C      1  0.5114510000000  0.5734250000000  0.5345110000000 1.0
C      1  0.4809310000000  0.5274850000000  0.5532750000000 1.0
C      1  0.5372460000000  0.4798890000000  0.4002310000000 1.0
C      1  0.4959120000000  0.5211870000000  0.5094230000000 1.0
C      1  0.5210430000000  0.5450500000000  0.5384990000000 1.0
C      1  0.5589080000000  0.4921580000000  0.4638910000000 1.0
C      1  0.5506830000000  0.5424160000000  0.5501650000000 1.0
C      1  0.4673730000000  0.5531650000000  0.5042970000000 1.0
C      1  0.5117560000000  0.4436690000000  0.4172870000000 1.0
C      1  0.4202070000000  0.5110850000000  0.4401500000000 1.0
C      1  0.5273280000000  0.4587640000000  0.4007990000000 1.0
C      1  0.4605790000000  0.6005180000000  0.4890300000000 1.0
C      1  0.5207910000000  0.6015950000000  0.4690870000000 1.0
C      1  0.5459950000000  0.5696300000000  0.5584280000000 1.0
C      1  0.5067540000000  0.5922830000000  0.4932200000000 1.0
C      1  0.5575370000000  0.5835580000000  0.4624810000000 1.0
C      1  0.5905870000000  0.5466170000000  0.4722060000000 1.0
C      1  0.5608400000000  0.4504480000000  0.4324210000000 1.0
C      1  0.5022790000000  0.4842230000000  0.4897380000000 1.0
C      1  0.4070140000000  0.4548930000000  0.5054160000000 1.0
C      1  0.4752640000000  0.4719630000000  0.5897770000000 1.0
C      1  0.4755260000000  0.3938050000000  0.5013160000000 1.0
C      1  0.6021150000000  0.4598510000000  0.5008820000000 1.0
C      1  0.4473050000000  0.5906750000000  0.5337180000000 1.0
C      1  0.5593390000000  0.4693810000000  0.5708640000000 1.0
C      1  0.4384520000000  0.4553700000000  0.5826950000000 1.0
C      1  0.5256900000000  0.4725880000000  0.4773010000000 1.0
C      1  0.4246220000000  0.5705790000000  0.4874640000000 1.0
C      1  0.3991460000000  0.4835270000000  0.5051740000000 1.0
C      1  0.5303870000000  0.5426700000000  0.4119150000000 1.0
C      1  0.4640560000000  0.4486550000000  0.3773480000000 1.0
C      1  0.5606390000000  0.4765750000000  0.4172310000000 1.0
C      1  0.5017650000000  0.4627720000000  0.4379610000000 1.0
C      1  0.5705950000000  0.5031330000000  0.4253980000000 1.0
C      1  0.5661260000000  0.4211620000000  0.5099480000000 1.0
C      1  0.5921220000000  0.4352960000000  0.5132760000000 1.0
C      1  0.4702700000000  0.5302630000000  0.4801680000000 1.0
C      1  0.4483110000000  0.5112350000000  0.4809620000000 1.0
C      1  0.4754490000000  0.5139880000000  0.5277480000000 1.0
C      1  0.5134950000000  0.5423240000000  0.5097200000000 1.0
C      1  0.5256520000000  0.5626340000000  0.5788910000000 1.0
C      1  0.4498040000000  0.4219410000000  0.4580640000000 1.0
C      1  0.4520030000000  0.4699110000000  0.4585390000000 1.0
C      1  0.5822170000000  0.5120580000000  0.5689520000000 1.0
C      1  0.5157640000000  0.5666360000000  0.4230680000000 1.0
C      1  0.5451380000000  0.4046570000000  0.5226680000000 1.0
C      1  0.4895820000000  0.5079770000000  0.4433910000000 1.0
C      1  0.5839580000000  0.5016150000000  0.4515480000000 1.0
C      1  0.5524670000000  0.5916440000000  0.5124530000000 1.0
C      1  0.5785210000000  0.4946310000000  0.5315010000000 1.0
C      1  0.5176050000000  0.5645330000000  0.4907840000000 1.0
C      1  0.6062380000000  0.5321880000000  0.5239230000000 1.0
C      1  0.5363540000000  0.4070970000000  0.5504550000000 1.0
C      1  0.4107920000000  0.4559000000000  0.4753740000000 1.0
C      1  0.4209770000000  0.4409900000000  0.5264830000000 1.0
C      1  0.4543800000000  0.5698550000000  0.5440200000000 1.0
C      1  0.5661800000000  0.4759590000000  0.4875600000000 1.0
C      1  0.5599780000000  0.4782230000000  0.5163310000000 1.0
C      1  0.5110500000000  0.4929240000000  0.5989960000000 1.0
C      1  0.6060950000000  0.5124690000000  0.4998450000000 1.0
C      1  0.4045460000000  0.5244760000000  0.4905350000000 1.0
C      1  0.4102170000000  0.5104360000000  0.5158680000000 1.0
C      1  0.4020260000000  0.5104480000000  0.4640140000000 1.0
C      1  0.4648530000000  0.4797370000000  0.5452130000000 1.0
C      1  0.4801630000000  0.4311060000000  0.4221260000000 1.0
C      1  0.5571270000000  0.5293300000000  0.4178700000000 1.0
C      1  0.5415530000000  0.5622810000000  0.4747520000000 1.0
C      1  0.4983510000000  0.4304780000000  0.5344570000000 1.0
C      1  0.4107190000000  0.5504220000000  0.5032550000000 1.0
C      1  0.4941340000000  0.5382880000000  0.6001390000000 1.0
C      1  0.4983600000000  0.4691790000000  0.5139190000000 1.0
C      1  0.4345700000000  0.5550780000000  0.5507720000000 1.0
C      1  0.5034450000000  0.4505160000000  0.5532560000000 1.0
C      1  0.5184950000000  0.5047600000000  0.4402090000000 1.0
C      1  0.5770300000000  0.4319300000000  0.5341300000000 1.0
C      1  0.4932410000000  0.4748940000000  0.5419560000000 1.0
C      1  0.4898990000000  0.5597600000000  0.4112280000000 1.0
C      1  0.5632780000000  0.5225650000000  0.5328280000000 1.0
END
