TITL C-4164247-2821-424 30.5491161733273 125000 -27483.9153735864 0 0 182 (C1) n - 1
REM
REM in /home/nfs/bkarasulu/CARBON/AIRSS/Generating-Clusters/ReaxFF-fromJPCA2015/Units_Real/with-SteepDescent/Only-C1/SD-CG/Try1-3A/FIRE-CG
REM
REM
REM
REM
REM
REM ./C.cell (11c1c37f851c82e70ff6c80c92926a4b)
REM
REM compiler GCC version 9.2.1 20190827 (Red Hat 9.2.1-1)
REM options -cpp -mtune=generic -march=x86-64 -g -O0 -fpre-include=/usr/include/finclude/math-vector-fortran.h
REM seed 73171496 -1613163922 1474757699 1744022056 -470135990 1695895948 -1126091390 1295763222 -635304177 -1290934081 -1778009460 1633595904 2040645319 508394596 13490937 1431196942 -702657665 -523728274 845484261 1524908428 119198990 772834845 -2076613960 495803433 -1143203398 -668194428 -162131845 1395874386 -1466732663 -717390050 2103250916 -1822669963 1245392553
REM
CELL 1.54180   50.00000   50.00000   50.00000   90.00000   90.00000   90.00000
LATT -1
SFAC C  
C      1  0.5810580000000  0.4882780000000  0.4483580000000 1.0
C      1  0.5528650000000  0.5859950000000  0.4826450000000 1.0
C      1  0.5519750000000  0.4070970000000  0.4661010000000 1.0
C      1  0.5285280000000  0.4659510000000  0.3967180000000 1.0
C      1  0.5049920000000  0.4528230000000  0.6063440000000 1.0
C      1  0.5177370000000  0.3888690000000  0.4993200000000 1.0
C      1  0.4510660000000  0.5678990000000  0.5831740000000 1.0
C      1  0.4963380000000  0.4937840000000  0.4264560000000 1.0
C      1  0.4320580000000  0.5793610000000  0.5644410000000 1.0
C      1  0.4746600000000  0.5914320000000  0.4724630000000 1.0
C      1  0.4820560000000  0.5651300000000  0.4150870000000 1.0
C      1  0.5352660000000  0.5213150000000  0.6010700000000 1.0
C      1  0.5125330000000  0.4807540000000  0.6137310000000 1.0
C      1  0.4774420000000  0.3999510000000  0.5317830000000 1.0
C      1  0.5194400000000  0.6147120000000  0.4586200000000 1.0
C      1  0.4623080000000  0.4040600000000  0.4561990000000 1.0
C      1  0.5027320000000  0.4837800000000  0.3940740000000 1.0
C      1  0.4792890000000  0.4713890000000  0.4408310000000 1.0
C      1  0.4128670000000  0.5073070000000  0.4747700000000 1.0
C      1  0.5588600000000  0.4631290000000  0.5676340000000 1.0
C      1  0.4961460000000  0.5130470000000  0.5279630000000 1.0
C      1  0.3792060000000  0.4852390000000  0.5284440000000 1.0
C      1  0.4558050000000  0.4948080000000  0.3968350000000 1.0
C      1  0.4953370000000  0.5487120000000  0.5576750000000 1.0
C      1  0.4052610000000  0.4583430000000  0.4608340000000 1.0
C      1  0.5600020000000  0.4919290000000  0.4682820000000 1.0
C      1  0.4490820000000  0.5368160000000  0.5809170000000 1.0
C      1  0.5348480000000  0.5768770000000  0.4336620000000 1.0
C      1  0.5509790000000  0.4832740000000  0.5467440000000 1.0
C      1  0.5626910000000  0.4062530000000  0.5150020000000 1.0
C      1  0.4165270000000  0.4941020000000  0.4982510000000 1.0
C      1  0.5817250000000  0.5569970000000  0.5136610000000 1.0
C      1  0.5936530000000  0.5158020000000  0.5395730000000 1.0
C      1  0.4704940000000  0.4463510000000  0.4050160000000 1.0
C      1  0.4202270000000  0.5624800000000  0.5416060000000 1.0
C      1  0.4995940000000  0.4622070000000  0.4537200000000 1.0
C      1  0.4072580000000  0.4288190000000  0.5007700000000 1.0
C      1  0.4807410000000  0.4892530000000  0.5821580000000 1.0
C      1  0.6065690000000  0.5033240000000  0.5163630000000 1.0
C      1  0.5178320000000  0.5311680000000  0.3902060000000 1.0
C      1  0.5833930000000  0.5389180000000  0.4353360000000 1.0
C      1  0.5755670000000  0.5030440000000  0.5877700000000 1.0
C      1  0.5007110000000  0.5918510000000  0.5759160000000 1.0
C      1  0.6048200000000  0.4774980000000  0.5541370000000 1.0
C      1  0.4491970000000  0.4016210000000  0.4834310000000 1.0
C      1  0.4560290000000  0.5302230000000  0.5538300000000 1.0
C      1  0.5225150000000  0.5751130000000  0.5710020000000 1.0
C      1  0.4738730000000  0.4172830000000  0.5560680000000 1.0
C      1  0.5751200000000  0.5393270000000  0.5380260000000 1.0
C      1  0.4782250000000  0.4448610000000  0.6045390000000 1.0
C      1  0.4792390000000  0.5155570000000  0.4300790000000 1.0
C      1  0.4801160000000  0.5756630000000  0.5899740000000 1.0
C      1  0.5053780000000  0.3966180000000  0.5244770000000 1.0
C      1  0.4491640000000  0.5931380000000  0.4872750000000 1.0
C      1  0.5938790000000  0.5423090000000  0.4900270000000 1.0
C      1  0.5828410000000  0.4413480000000  0.5266400000000 1.0
C      1  0.4542110000000  0.5225430000000  0.4985160000000 1.0
C      1  0.5505620000000  0.4140940000000  0.5419030000000 1.0
C      1  0.4431750000000  0.5451890000000  0.5350730000000 1.0
C      1  0.4907770000000  0.3992960000000  0.4517880000000 1.0
C      1  0.4485490000000  0.4269420000000  0.5682670000000 1.0
C      1  0.6036960000000  0.4648110000000  0.4862280000000 1.0
C      1  0.4315950000000  0.5679100000000  0.4895730000000 1.0
C      1  0.5002290000000  0.4285090000000  0.5595990000000 1.0
C      1  0.5439250000000  0.5576990000000  0.4874050000000 1.0
C      1  0.5608440000000  0.4787710000000  0.5929940000000 1.0
C      1  0.5502060000000  0.5979620000000  0.5294020000000 1.0
C      1  0.4858720000000  0.4876880000000  0.5188550000000 1.0
C      1  0.4965480000000  0.3981280000000  0.4806810000000 1.0
C      1  0.4253730000000  0.4629270000000  0.4235280000000 1.0
C      1  0.5048310000000  0.6145420000000  0.4349320000000 1.0
C      1  0.3927240000000  0.5060240000000  0.5453670000000 1.0
C      1  0.4564440000000  0.4067440000000  0.5120120000000 1.0
C      1  0.4532630000000  0.4754400000000  0.5827220000000 1.0
C      1  0.5234780000000  0.4999470000000  0.4848100000000 1.0
C      1  0.4214800000000  0.4328650000000  0.5550990000000 1.0
C      1  0.4538080000000  0.5501570000000  0.5080670000000 1.0
C      1  0.5917530000000  0.4374870000000  0.4825260000000 1.0
C      1  0.4967950000000  0.5978690000000  0.5451010000000 1.0
C      1  0.5513120000000  0.5027190000000  0.4943690000000 1.0
C      1  0.6025040000000  0.5139790000000  0.4899690000000 1.0
C      1  0.4110750000000  0.5653510000000  0.5134450000000 1.0
C      1  0.4072750000000  0.4882340000000  0.5677980000000 1.0
C      1  0.4991230000000  0.5494960000000  0.4669960000000 1.0
C      1  0.4802130000000  0.5227230000000  0.4594430000000 1.0
C      1  0.5131560000000  0.6064740000000  0.5030020000000 1.0
C      1  0.4818650000000  0.5256300000000  0.5491570000000 1.0
C      1  0.5094960000000  0.4139590000000  0.4339210000000 1.0
C      1  0.5103810000000  0.5077360000000  0.3752330000000 1.0
C      1  0.5259170000000  0.4946320000000  0.5560950000000 1.0
C      1  0.4361710000000  0.5040690000000  0.4582130000000 1.0
C      1  0.4049380000000  0.5344670000000  0.4771380000000 1.0
C      1  0.5564490000000  0.4841970000000  0.5179220000000 1.0
C      1  0.5445330000000  0.5396870000000  0.4467760000000 1.0
C      1  0.4600710000000  0.4825960000000  0.5233590000000 1.0
C      1  0.4572800000000  0.5567700000000  0.4256610000000 1.0
C      1  0.4219940000000  0.4226480000000  0.4528910000000 1.0
C      1  0.4302850000000  0.5170010000000  0.5853350000000 1.0
C      1  0.4559220000000  0.4572590000000  0.5330230000000 1.0
C      1  0.4888380000000  0.5932830000000  0.4976540000000 1.0
C      1  0.5319650000000  0.4413700000000  0.5148920000000 1.0
C      1  0.4535350000000  0.4742470000000  0.4565800000000 1.0
C      1  0.5387180000000  0.4924890000000  0.6071590000000 1.0
C      1  0.5392640000000  0.5396520000000  0.5349060000000 1.0
C      1  0.5188020000000  0.5037230000000  0.4404750000000 1.0
C      1  0.3977230000000  0.5296470000000  0.5305310000000 1.0
C      1  0.5457990000000  0.5297210000000  0.4014410000000 1.0
C      1  0.4458960000000  0.4410500000000  0.4182510000000 1.0
C      1  0.5573930000000  0.5797580000000  0.4512270000000 1.0
C      1  0.5825320000000  0.5484990000000  0.4636730000000 1.0
C      1  0.5707970000000  0.5744320000000  0.5685840000000 1.0
C      1  0.4669320000000  0.5217740000000  0.4044520000000 1.0
C      1  0.6006250000000  0.4899300000000  0.4720410000000 1.0
C      1  0.3954690000000  0.4524240000000  0.4862330000000 1.0
C      1  0.4879510000000  0.5480160000000  0.5909460000000 1.0
C      1  0.4890110000000  0.5705810000000  0.5387600000000 1.0
C      1  0.4889840000000  0.5412860000000  0.3998380000000 1.0
C      1  0.5610650000000  0.5281420000000  0.5888420000000 1.0
C      1  0.6124040000000  0.4744520000000  0.5127160000000 1.0
C      1  0.5722590000000  0.5471760000000  0.5684090000000 1.0
C      1  0.5030510000000  0.4784730000000  0.5667450000000 1.0
C      1  0.5580380000000  0.4548980000000  0.5157310000000 1.0
C      1  0.5539480000000  0.4770730000000  0.4082690000000 1.0
C      1  0.4898470000000  0.5740080000000  0.4568920000000 1.0
C      1  0.6071730000000  0.4564260000000  0.5357450000000 1.0
C      1  0.4874970000000  0.4833650000000  0.4918250000000 1.0
C      1  0.5030260000000  0.5498600000000  0.4968010000000 1.0
C      1  0.5321110000000  0.6091240000000  0.4821290000000 1.0
C      1  0.4535020000000  0.4357040000000  0.5146760000000 1.0
C      1  0.5281350000000  0.5492050000000  0.5092760000000 1.0
C      1  0.5747520000000  0.4262840000000  0.4617170000000 1.0
C      1  0.5675080000000  0.5821950000000  0.5109870000000 1.0
C      1  0.4540570000000  0.6066900000000  0.5123650000000 1.0
C      1  0.4422810000000  0.4677120000000  0.5556560000000 1.0
C      1  0.5373700000000  0.4180190000000  0.4432310000000 1.0
C      1  0.5171390000000  0.4436940000000  0.4061760000000 1.0
C      1  0.5255450000000  0.5512190000000  0.5585370000000 1.0
C      1  0.5089840000000  0.4508070000000  0.5761640000000 1.0
C      1  0.4224710000000  0.5528390000000  0.4642100000000 1.0
C      1  0.5970570000000  0.5014460000000  0.5653980000000 1.0
C      1  0.4839660000000  0.5655830000000  0.5114090000000 1.0
C      1  0.4661730000000  0.4397900000000  0.4890940000000 1.0
C      1  0.5814730000000  0.5115690000000  0.4276740000000 1.0
C      1  0.5211960000000  0.6039220000000  0.5286350000000 1.0
C      1  0.5638360000000  0.5895680000000  0.5521980000000 1.0
C      1  0.5868230000000  0.4210260000000  0.5065200000000 1.0
C      1  0.4326820000000  0.4919800000000  0.4143410000000 1.0
C      1  0.4967240000000  0.5068530000000  0.4789940000000 1.0
C      1  0.5167720000000  0.4428980000000  0.4913110000000 1.0
C      1  0.5452120000000  0.3973360000000  0.4933860000000 1.0
C      1  0.5064010000000  0.5285280000000  0.6027950000000 1.0
C      1  0.4285550000000  0.5153260000000  0.4306930000000 1.0
C      1  0.4744100000000  0.4725200000000  0.3930930000000 1.0
C      1  0.4652630000000  0.4678150000000  0.4820660000000 1.0
C      1  0.4340390000000  0.5441980000000  0.4372720000000 1.0
C      1  0.5581880000000  0.5474890000000  0.4215260000000 1.0
C      1  0.5174910000000  0.5313890000000  0.4472020000000 1.0
C      1  0.4537420000000  0.4441300000000  0.5911320000000 1.0
C      1  0.3956150000000  0.5429390000000  0.5055550000000 1.0
C      1  0.4937050000000  0.5016540000000  0.6055060000000 1.0
C      1  0.5334080000000  0.4866310000000  0.4598490000000 1.0
C      1  0.4680490000000  0.6120170000000  0.5340510000000 1.0
C      1  0.3940710000000  0.4762930000000  0.5041950000000 1.0
C      1  0.5618000000000  0.5060780000000  0.4072140000000 1.0
C      1  0.5565150000000  0.5367210000000  0.4729710000000 1.0
C      1  0.4962140000000  0.4292420000000  0.4113910000000 1.0
C      1  0.5215480000000  0.4566040000000  0.4650790000000 1.0
C      1  0.4554340000000  0.5212370000000  0.4705230000000 1.0
C      1  0.4258680000000  0.4548040000000  0.4494010000000 1.0
C      1  0.5670220000000  0.4646020000000  0.4297960000000 1.0
C      1  0.5609060000000  0.4380450000000  0.4383750000000 1.0
C      1  0.5202890000000  0.4199900000000  0.5371930000000 1.0
C      1  0.4445400000000  0.4173060000000  0.4361760000000 1.0
C      1  0.5023740000000  0.5814880000000  0.4332410000000 1.0
C      1  0.4138800000000  0.4302280000000  0.5282070000000 1.0
C      1  0.4406610000000  0.5001550000000  0.5115670000000 1.0
C      1  0.4261750000000  0.4943280000000  0.5864200000000 1.0
C      1  0.5239070000000  0.5157320000000  0.5369190000000 1.0
C      1  0.4922980000000  0.4262400000000  0.4888270000000 1.0
C      1  0.4229830000000  0.4127540000000  0.4801910000000 1.0
C      1  0.5585410000000  0.4340010000000  0.5619230000000 1.0
C      1  0.4135810000000  0.4619350000000  0.5557300000000 1.0
END
