TITL C-4164246-3563-324 0.586092575963748 125000 -6450.67637297279 0 0 45 (C1) n - 1
REM
REM in /home/nfs/bkarasulu/CARBON/AIRSS/Generating-Clusters/ReaxFF-fromJPCA2015/Units_Real/with-SteepDescent/Only-C1/SD-CG/Try1-3A/FIRE-CG
REM
REM
REM
REM
REM
REM ./C.cell (11c1c37f851c82e70ff6c80c92926a4b)
REM
REM compiler GCC version 9.2.1 20190827 (Red Hat 9.2.1-1)
REM options -cpp -mtune=generic -march=x86-64 -g -O0 -fpre-include=/usr/include/finclude/math-vector-fortran.h
REM seed 1087209907 -970210339 -487739064 -1668931468 1062096884 1771081445 -1794903087 1316008130 1770958447 -1358858722 -2003290393 494941200 383459978 906772649 -1212268065 -977494958 842136904 258410290 -2144477535 936729039 -1591115046 1578044044 1382341609 418046553 1032349062 1845452267 -232063484 -897674501 -929736733 949186619 -594963156 1818856806 -2087368731
REM
CELL 1.54180   50.00000   50.00000   50.00000   90.00000   90.00000   90.00000
LATT -1
SFAC C  
C      1  0.5584090000000  0.4857010000000  0.5132250000000 1.0
C      1  0.4853570000000  0.4813580000000  0.5146930000000 1.0
C      1  0.5098520000000  0.5439350000000  0.5175240000000 1.0
C      1  0.5516340000000  0.4873440000000  0.4513960000000 1.0
C      1  0.4791180000000  0.4857980000000  0.5445590000000 1.0
C      1  0.4302470000000  0.5104390000000  0.4922690000000 1.0
C      1  0.4585690000000  0.4676000000000  0.4630260000000 1.0
C      1  0.4824490000000  0.5408220000000  0.5095110000000 1.0
C      1  0.4344530000000  0.4826290000000  0.5031690000000 1.0
C      1  0.5068160000000  0.4445550000000  0.5063060000000 1.0
C      1  0.4730400000000  0.5405450000000  0.4818160000000 1.0
C      1  0.4507780000000  0.5223490000000  0.4748150000000 1.0
C      1  0.5196010000000  0.5505890000000  0.4622460000000 1.0
C      1  0.5466680000000  0.4474440000000  0.4811180000000 1.0
C      1  0.4824880000000  0.4963690000000  0.4436450000000 1.0
C      1  0.5572530000000  0.4884610000000  0.5425780000000 1.0
C      1  0.5369360000000  0.5472090000000  0.4869210000000 1.0
C      1  0.5161810000000  0.4947900000000  0.4795780000000 1.0
C      1  0.4680320000000  0.4988300000000  0.4683060000000 1.0
C      1  0.4990850000000  0.5222840000000  0.4375380000000 1.0
C      1  0.4372620000000  0.5286210000000  0.5127490000000 1.0
C      1  0.4556700000000  0.5056480000000  0.5414520000000 1.0
C      1  0.4603120000000  0.5323340000000  0.5286190000000 1.0
C      1  0.5121920000000  0.5700820000000  0.5679100000000 1.0
C      1  0.5525170000000  0.4573700000000  0.5074250000000 1.0
C      1  0.5215780000000  0.4442200000000  0.4832660000000 1.0
C      1  0.5275680000000  0.5326760000000  0.4409320000000 1.0
C      1  0.5279170000000  0.4537780000000  0.5237560000000 1.0
C      1  0.5296080000000  0.4751690000000  0.5447190000000 1.0
C      1  0.5149890000000  0.5498050000000  0.5507830000000 1.0
C      1  0.4766070000000  0.4525630000000  0.5118250000000 1.0
C      1  0.5323060000000  0.5318840000000  0.5092190000000 1.0
C      1  0.5115510000000  0.5209770000000  0.5523500000000 1.0
C      1  0.4905900000000  0.4965440000000  0.4911340000000 1.0
C      1  0.4398100000000  0.4586510000000  0.5469360000000 1.0
C      1  0.5093280000000  0.4952180000000  0.4518770000000 1.0
C      1  0.5414880000000  0.5071910000000  0.4963420000000 1.0
C      1  0.5549590000000  0.5260440000000  0.4763730000000 1.0
C      1  0.5485170000000  0.4642450000000  0.4607350000000 1.0
C      1  0.5082700000000  0.4934660000000  0.5538460000000 1.0
C      1  0.4918350000000  0.5440170000000  0.4596750000000 1.0
C      1  0.4361570000000  0.4859820000000  0.5320400000000 1.0
C      1  0.4527410000000  0.4627450000000  0.4908490000000 1.0
C      1  0.4681760000000  0.4552360000000  0.5418330000000 1.0
C      1  0.5510830000000  0.5164870000000  0.4491160000000 1.0
END
