TITL C-4164240-4114-170 242.809457261565 125000 -26437.0163677494 0 0 180 (C1) n - 1
REM
REM in /home/nfs/bkarasulu/CARBON/AIRSS/Generating-Clusters/ReaxFF-fromJPCA2015/Units_Real/with-SteepDescent/Only-C1/SD-CG/Try1-3A/FIRE-CG
REM
REM
REM
REM
REM
REM ./C.cell (11c1c37f851c82e70ff6c80c92926a4b)
REM
REM compiler GCC version 9.2.1 20190827 (Red Hat 9.2.1-1)
REM options -cpp -mtune=generic -march=x86-64 -g -O0 -fpre-include=/usr/include/finclude/math-vector-fortran.h
REM seed -99035381 -41011643 -1076665199 1453314412 -443272941 -1908711497 -1112422458 1288117062 -1920093762 -163194100 651265381 772206866 871637461 1153594348 -1678953167 903261237 -1751047545 421480655 1719843086 1908933185 1456805341 -53291024 -1509572854 -1722131985 -1659328870 1173274716 1346971127 345680255 -1342523131 1524251118 657888273 329966909 -1617331041
REM
CELL 1.54180   50.00000   50.00000   50.00000   90.00000   90.00000   90.00000
LATT -1
SFAC C  
C      1  0.5517940000000  0.4254360000000  0.5298110000000 1.0
C      1  0.4461990000000  0.5612240000000  0.4752000000000 1.0
C      1  0.5145090000000  0.5893450000000  0.4214700000000 1.0
C      1  0.5166450000000  0.5627840000000  0.5986320000000 1.0
C      1  0.4377560000000  0.3983270000000  0.5147960000000 1.0
C      1  0.5504470000000  0.5179810000000  0.3962340000000 1.0
C      1  0.5056040000000  0.4763530000000  0.4775250000000 1.0
C      1  0.5122210000000  0.4574490000000  0.5601540000000 1.0
C      1  0.4356310000000  0.5075930000000  0.5348270000000 1.0
C      1  0.4909830000000  0.3963190000000  0.5314880000000 1.0
C      1  0.4872170000000  0.5740640000000  0.4303230000000 1.0
C      1  0.5730780000000  0.5275880000000  0.4851010000000 1.0
C      1  0.4622280000000  0.3989780000000  0.5343760000000 1.0
C      1  0.4081670000000  0.4616370000000  0.5120520000000 1.0
C      1  0.5367220000000  0.4800860000000  0.5925780000000 1.0
C      1  0.5057700000000  0.4320360000000  0.4169550000000 1.0
C      1  0.4505350000000  0.5324500000000  0.4119230000000 1.0
C      1  0.5648290000000  0.4838100000000  0.5861760000000 1.0
C      1  0.4148950000000  0.4161620000000  0.5210950000000 1.0
C      1  0.5492130000000  0.4968680000000  0.4543890000000 1.0
C      1  0.4776360000000  0.5300390000000  0.4114410000000 1.0
C      1  0.5590860000000  0.5619510000000  0.4204260000000 1.0
C      1  0.6021130000000  0.4624840000000  0.4990140000000 1.0
C      1  0.5404890000000  0.5651830000000  0.5806220000000 1.0
C      1  0.5690090000000  0.5352580000000  0.4114400000000 1.0
C      1  0.5217580000000  0.5243170000000  0.4643750000000 1.0
C      1  0.5689670000000  0.4609280000000  0.5667520000000 1.0
C      1  0.4961350000000  0.4472850000000  0.4811310000000 1.0
C      1  0.5386010000000  0.4896080000000  0.5162730000000 1.0
C      1  0.5662820000000  0.5138850000000  0.5820350000000 1.0
C      1  0.4561930000000  0.4611350000000  0.4647090000000 1.0
C      1  0.4949530000000  0.5532360000000  0.4507430000000 1.0
C      1  0.5454480000000  0.5361840000000  0.5290660000000 1.0
C      1  0.5473620000000  0.5356300000000  0.5880260000000 1.0
C      1  0.4126630000000  0.4886220000000  0.4635220000000 1.0
C      1  0.4921560000000  0.6048160000000  0.4878090000000 1.0
C      1  0.4669550000000  0.5036420000000  0.5789810000000 1.0
C      1  0.4735050000000  0.4353960000000  0.4975160000000 1.0
C      1  0.5053400000000  0.5150750000000  0.6154650000000 1.0
C      1  0.5469600000000  0.4913650000000  0.4085720000000 1.0
C      1  0.4983100000000  0.4544410000000  0.4353850000000 1.0
C      1  0.5325510000000  0.5846440000000  0.5608430000000 1.0
C      1  0.4114680000000  0.5518760000000  0.5144600000000 1.0
C      1  0.4750450000000  0.4613420000000  0.4020830000000 1.0
C      1  0.4767190000000  0.5094560000000  0.6066840000000 1.0
C      1  0.4953470000000  0.4075330000000  0.4317340000000 1.0
C      1  0.4204570000000  0.4538120000000  0.5629650000000 1.0
C      1  0.4467560000000  0.4542190000000  0.5761690000000 1.0
C      1  0.4443650000000  0.5920380000000  0.5213530000000 1.0
C      1  0.4775330000000  0.5982610000000  0.5465170000000 1.0
C      1  0.5855160000000  0.4551570000000  0.4542710000000 1.0
C      1  0.5916350000000  0.4493800000000  0.5219690000000 1.0
C      1  0.5248740000000  0.5354340000000  0.6066430000000 1.0
C      1  0.5992260000000  0.5452410000000  0.5136900000000 1.0
C      1  0.5431510000000  0.4003490000000  0.4888780000000 1.0
C      1  0.4907120000000  0.5713070000000  0.5889580000000 1.0
C      1  0.5684810000000  0.5424690000000  0.5456910000000 1.0
C      1  0.6069520000000  0.4833330000000  0.4811110000000 1.0
C      1  0.5097510000000  0.4078690000000  0.5525400000000 1.0
C      1  0.5314230000000  0.4386380000000  0.5151640000000 1.0
C      1  0.4729370000000  0.4912490000000  0.5013940000000 1.0
C      1  0.4138890000000  0.5328190000000  0.4422820000000 1.0
C      1  0.5152660000000  0.5412320000000  0.5354170000000 1.0
C      1  0.3945740000000  0.4805380000000  0.5291930000000 1.0
C      1  0.5080070000000  0.5207390000000  0.5058450000000 1.0
C      1  0.3953970000000  0.5096860000000  0.4796010000000 1.0
C      1  0.5861200000000  0.4689590000000  0.5452350000000 1.0
C      1  0.5164520000000  0.3898080000000  0.4838270000000 1.0
C      1  0.5653470000000  0.5840070000000  0.5205450000000 1.0
C      1  0.4387120000000  0.4563580000000  0.4398460000000 1.0
C      1  0.4060270000000  0.4783000000000  0.5552050000000 1.0
C      1  0.4372360000000  0.4574690000000  0.5174550000000 1.0
C      1  0.4698020000000  0.4050840000000  0.4880610000000 1.0
C      1  0.4921650000000  0.3923100000000  0.5025190000000 1.0
C      1  0.4527280000000  0.4180320000000  0.5538320000000 1.0
C      1  0.5226400000000  0.5229070000000  0.3892670000000 1.0
C      1  0.5946240000000  0.4984140000000  0.5432490000000 1.0
C      1  0.5095660000000  0.4029180000000  0.4573170000000 1.0
C      1  0.4682970000000  0.4736300000000  0.5247560000000 1.0
C      1  0.5640900000000  0.4663730000000  0.4897500000000 1.0
C      1  0.4314310000000  0.5286340000000  0.5806870000000 1.0
C      1  0.5146770000000  0.4877540000000  0.6110810000000 1.0
C      1  0.4725230000000  0.5246730000000  0.5608150000000 1.0
C      1  0.5698620000000  0.4744990000000  0.4151030000000 1.0
C      1  0.5329540000000  0.4975300000000  0.5431590000000 1.0
C      1  0.5222440000000  0.4366920000000  0.5817760000000 1.0
C      1  0.5399430000000  0.4137410000000  0.5527840000000 1.0
C      1  0.4203180000000  0.4322500000000  0.4775480000000 1.0
C      1  0.5411210000000  0.5392710000000  0.4496690000000 1.0
C      1  0.5874790000000  0.5033240000000  0.4976310000000 1.0
C      1  0.5391240000000  0.5921100000000  0.5331160000000 1.0
C      1  0.5680860000000  0.4155910000000  0.4883890000000 1.0
C      1  0.4265310000000  0.5004780000000  0.5624550000000 1.0
C      1  0.5002920000000  0.5271460000000  0.5563520000000 1.0
C      1  0.4880360000000  0.4798860000000  0.6023920000000 1.0
C      1  0.4746280000000  0.5608400000000  0.4843660000000 1.0
C      1  0.4827450000000  0.4478500000000  0.5212120000000 1.0
C      1  0.5158900000000  0.4930860000000  0.4986120000000 1.0
C      1  0.5032340000000  0.5642040000000  0.4758600000000 1.0
C      1  0.5491790000000  0.5354950000000  0.5015500000000 1.0
C      1  0.5215430000000  0.6025940000000  0.5119970000000 1.0
C      1  0.4410070000000  0.4065930000000  0.4878370000000 1.0
C      1  0.5150780000000  0.4277960000000  0.4711610000000 1.0
C      1  0.5087020000000  0.4471410000000  0.5306040000000 1.0
C      1  0.5567170000000  0.5639380000000  0.4495960000000 1.0
C      1  0.4468880000000  0.4472570000000  0.4909700000000 1.0
C      1  0.5022190000000  0.5669740000000  0.5403210000000 1.0
C      1  0.4651440000000  0.5887020000000  0.4478220000000 1.0
C      1  0.4433450000000  0.5719620000000  0.5700350000000 1.0
C      1  0.5370910000000  0.6040640000000  0.4886010000000 1.0
C      1  0.3947850000000  0.5077540000000  0.5109990000000 1.0
C      1  0.4171210000000  0.4554180000000  0.4581080000000 1.0
C      1  0.5906790000000  0.4905380000000  0.4293790000000 1.0
C      1  0.5292090000000  0.4944150000000  0.4328570000000 1.0
C      1  0.5751890000000  0.4283310000000  0.4611890000000 1.0
C      1  0.5133720000000  0.5946290000000  0.4729210000000 1.0
C      1  0.4531460000000  0.5351420000000  0.5977730000000 1.0
C      1  0.4831330000000  0.4829260000000  0.5494700000000 1.0
C      1  0.4852400000000  0.5538270000000  0.4054430000000 1.0
C      1  0.4468170000000  0.4830870000000  0.5760290000000 1.0
C      1  0.4423080000000  0.5050340000000  0.4206790000000 1.0
C      1  0.4569910000000  0.4438710000000  0.4178850000000 1.0
C      1  0.5654770000000  0.4862110000000  0.5072320000000 1.0
C      1  0.4636910000000  0.5354210000000  0.5127340000000 1.0
C      1  0.4030490000000  0.4341000000000  0.5017650000000 1.0
C      1  0.4920240000000  0.5256470000000  0.4597980000000 1.0
C      1  0.5653530000000  0.5220200000000  0.4545930000000 1.0
C      1  0.5416760000000  0.4507220000000  0.4904020000000 1.0
C      1  0.3927120000000  0.5340610000000  0.5244370000000 1.0
C      1  0.4930620000000  0.5062350000000  0.4181080000000 1.0
C      1  0.4054550000000  0.5523610000000  0.5418180000000 1.0
C      1  0.4290510000000  0.4350150000000  0.5406230000000 1.0
C      1  0.5035940000000  0.4690960000000  0.3954420000000 1.0
C      1  0.5323620000000  0.4777960000000  0.5635590000000 1.0
C      1  0.5167330000000  0.4725210000000  0.4496140000000 1.0
C      1  0.4241880000000  0.5049160000000  0.5083780000000 1.0
C      1  0.5661850000000  0.4750960000000  0.4635390000000 1.0
C      1  0.4683560000000  0.4927900000000  0.4279620000000 1.0
C      1  0.4228400000000  0.5518850000000  0.5659160000000 1.0
C      1  0.4193350000000  0.5048320000000  0.4377390000000 1.0
C      1  0.5831620000000  0.5628490000000  0.5308390000000 1.0
C      1  0.5757830000000  0.4260560000000  0.5148480000000 1.0
C      1  0.4330510000000  0.5500370000000  0.4283580000000 1.0
C      1  0.4050560000000  0.5356150000000  0.4705180000000 1.0
C      1  0.5010320000000  0.5858400000000  0.5643370000000 1.0
C      1  0.5842130000000  0.5186960000000  0.4300160000000 1.0
C      1  0.5487650000000  0.4361940000000  0.5690540000000 1.0
C      1  0.4875300000000  0.4701430000000  0.5746250000000 1.0
C      1  0.4807160000000  0.5181240000000  0.4973610000000 1.0
C      1  0.4488430000000  0.5931860000000  0.5497440000000 1.0
C      1  0.5046930000000  0.5015340000000  0.5463940000000 1.0
C      1  0.4630410000000  0.5616730000000  0.5896770000000 1.0
C      1  0.4725970000000  0.5047380000000  0.4538330000000 1.0
C      1  0.4970580000000  0.4227350000000  0.5734040000000 1.0
C      1  0.5238310000000  0.5374610000000  0.4888580000000 1.0
C      1  0.5526340000000  0.4505340000000  0.4185430000000 1.0
C      1  0.5834030000000  0.5201050000000  0.5596790000000 1.0
C      1  0.5748310000000  0.5710030000000  0.4730000000000 1.0
C      1  0.5309340000000  0.5698520000000  0.4088630000000 1.0
C      1  0.5539110000000  0.4316940000000  0.4417990000000 1.0
C      1  0.4599930000000  0.4895670000000  0.4758470000000 1.0
C      1  0.5124100000000  0.5492900000000  0.3967340000000 1.0
C      1  0.4434250000000  0.5894060000000  0.4935190000000 1.0
C      1  0.4674600000000  0.4167400000000  0.4260990000000 1.0
C      1  0.4190240000000  0.5556770000000  0.4869630000000 1.0
C      1  0.5057910000000  0.4984920000000  0.3929150000000 1.0
C      1  0.5255770000000  0.4499200000000  0.4054340000000 1.0
C      1  0.5352820000000  0.4450840000000  0.4623110000000 1.0
C      1  0.5911950000000  0.5509350000000  0.4862960000000 1.0
C      1  0.5638070000000  0.5893060000000  0.4924290000000 1.0
C      1  0.4560100000000  0.5250410000000  0.5381490000000 1.0
C      1  0.4677360000000  0.4315880000000  0.5730750000000 1.0
C      1  0.4432200000000  0.5709450000000  0.4456080000000 1.0
C      1  0.4847250000000  0.5800470000000  0.5252610000000 1.0
C      1  0.4696390000000  0.5621660000000  0.5098940000000 1.0
C      1  0.6049960000000  0.4768590000000  0.4522590000000 1.0
C      1  0.4666450000000  0.5991740000000  0.4759670000000 1.0
C      1  0.4336080000000  0.4958150000000  0.4838260000000 1.0
C      1  0.4815800000000  0.4516330000000  0.4577050000000 1.0
C      1  0.6014220000000  0.5163090000000  0.5213390000000 1.0
END
