TITL C-4164235-1454-576 3.73014649090468 125000 -19880.9108477309 0 0 133 (C1) n - 1
REM
REM in /home/nfs/bkarasulu/CARBON/AIRSS/Generating-Clusters/ReaxFF-fromJPCA2015/Units_Real/with-SteepDescent/Only-C1/SD-CG/Try1-3A/FIRE-CG
REM
REM
REM
REM
REM
REM ./C.cell (11c1c37f851c82e70ff6c80c92926a4b)
REM
REM compiler GCC version 9.2.1 20190827 (Red Hat 9.2.1-1)
REM options -cpp -mtune=generic -march=x86-64 -g -O0 -fpre-include=/usr/include/finclude/math-vector-fortran.h
REM seed -881092151 1618505691 -71548992 490610777 2097055599 -189895840 -1560868988 680957686 -624549869 -783820918 948696633 -677026308 437983696 -225127805 -308274680 -1662737022 851836718 1318895921 1663676193 -1456486438 972129562 208502858 1670927967 1163343044 37103474 548317505 352834999 -1998651358 300281320 1186608515 2103609165 -1119702666 844694755
REM
CELL 1.54180   50.00000   50.00000   50.00000   90.00000   90.00000   90.00000
LATT -1
SFAC C  
C      1  0.5119500000000  0.4646470000000  0.4769080000000 1.0
C      1  0.5104840000000  0.5610660000000  0.5580520000000 1.0
C      1  0.5186900000000  0.4558110000000  0.4507890000000 1.0
C      1  0.4432470000000  0.5274250000000  0.4466040000000 1.0
C      1  0.5516230000000  0.5787590000000  0.5383830000000 1.0
C      1  0.5852980000000  0.4751760000000  0.4683730000000 1.0
C      1  0.5062210000000  0.5956770000000  0.5178760000000 1.0
C      1  0.5633900000000  0.5616290000000  0.5180020000000 1.0
C      1  0.5458380000000  0.4379330000000  0.5158890000000 1.0
C      1  0.4799060000000  0.4646470000000  0.5754410000000 1.0
C      1  0.5147210000000  0.5165020000000  0.6016950000000 1.0
C      1  0.5674060000000  0.5522040000000  0.4167170000000 1.0
C      1  0.4397310000000  0.5081200000000  0.4690750000000 1.0
C      1  0.4165530000000  0.5171180000000  0.5336370000000 1.0
C      1  0.4266610000000  0.5692660000000  0.4732210000000 1.0
C      1  0.4813680000000  0.4087600000000  0.4537410000000 1.0
C      1  0.4886570000000  0.4859490000000  0.4667410000000 1.0
C      1  0.4449650000000  0.4863330000000  0.4265920000000 1.0
C      1  0.5419890000000  0.5187830000000  0.5897380000000 1.0
C      1  0.4686420000000  0.4272740000000  0.5619220000000 1.0
C      1  0.4862590000000  0.5094880000000  0.5703280000000 1.0
C      1  0.5756700000000  0.5585400000000  0.4459510000000 1.0
C      1  0.4582410000000  0.4114510000000  0.5232990000000 1.0
C      1  0.5662740000000  0.4411210000000  0.4943400000000 1.0
C      1  0.4711770000000  0.5633470000000  0.4482310000000 1.0
C      1  0.5680640000000  0.5043630000000  0.4432470000000 1.0
C      1  0.5456660000000  0.4672530000000  0.5706520000000 1.0
C      1  0.4467210000000  0.4209170000000  0.4983380000000 1.0
C      1  0.5953810000000  0.4668360000000  0.5441520000000 1.0
C      1  0.5357040000000  0.4126010000000  0.4655530000000 1.0
C      1  0.4797110000000  0.4208170000000  0.4262500000000 1.0
C      1  0.5447640000000  0.4896020000000  0.5933250000000 1.0
C      1  0.4072930000000  0.5509990000000  0.4774970000000 1.0
C      1  0.4480220000000  0.4377340000000  0.4549770000000 1.0
C      1  0.4241070000000  0.4396530000000  0.5030720000000 1.0
C      1  0.4551160000000  0.4977100000000  0.5420740000000 1.0
C      1  0.5114740000000  0.4620990000000  0.5273910000000 1.0
C      1  0.4604960000000  0.5762270000000  0.5406310000000 1.0
C      1  0.5006490000000  0.4908470000000  0.4158420000000 1.0
C      1  0.5347840000000  0.5817390000000  0.4712510000000 1.0
C      1  0.4626940000000  0.5598340000000  0.5658810000000 1.0
C      1  0.5254560000000  0.5957440000000  0.4955020000000 1.0
C      1  0.5455800000000  0.5024750000000  0.4657760000000 1.0
C      1  0.5315260000000  0.4759310000000  0.4161640000000 1.0
C      1  0.4904490000000  0.5865730000000  0.4410220000000 1.0
C      1  0.5836140000000  0.4857710000000  0.5176650000000 1.0
C      1  0.4924150000000  0.5410710000000  0.4082620000000 1.0
C      1  0.3955760000000  0.4777440000000  0.4812590000000 1.0
C      1  0.4148720000000  0.4546030000000  0.4802850000000 1.0
C      1  0.4590190000000  0.5990680000000  0.5038630000000 1.0
C      1  0.5395490000000  0.5492260000000  0.4103080000000 1.0
C      1  0.4692640000000  0.4994720000000  0.4833540000000 1.0
C      1  0.5179560000000  0.4867960000000  0.6033030000000 1.0
C      1  0.4864660000000  0.5289050000000  0.4901590000000 1.0
C      1  0.4572720000000  0.4630730000000  0.4137900000000 1.0
C      1  0.6153740000000  0.5221470000000  0.5467760000000 1.0
C      1  0.4216530000000  0.4631480000000  0.5226210000000 1.0
C      1  0.5978850000000  0.5121310000000  0.5109700000000 1.0
C      1  0.4583870000000  0.4171840000000  0.4717010000000 1.0
C      1  0.5231170000000  0.4763660000000  0.5500840000000 1.0
C      1  0.4889430000000  0.5536070000000  0.5765910000000 1.0
C      1  0.5320240000000  0.4954560000000  0.5132940000000 1.0
C      1  0.5115510000000  0.5261880000000  0.4505730000000 1.0
C      1  0.5054400000000  0.4626670000000  0.5893680000000 1.0
C      1  0.4229890000000  0.4655850000000  0.5698050000000 1.0
C      1  0.4613170000000  0.5234170000000  0.5305510000000 1.0
C      1  0.4466620000000  0.4787860000000  0.5226650000000 1.0
C      1  0.5343250000000  0.5977190000000  0.5239000000000 1.0
C      1  0.4800760000000  0.5142100000000  0.4080590000000 1.0
C      1  0.5192740000000  0.4443190000000  0.5056710000000 1.0
C      1  0.5668960000000  0.4581240000000  0.4512250000000 1.0
C      1  0.5275440000000  0.3964760000000  0.4888720000000 1.0
C      1  0.4656380000000  0.4739230000000  0.5012730000000 1.0
C      1  0.4420180000000  0.4625170000000  0.4697080000000 1.0
C      1  0.5072920000000  0.5004150000000  0.5531910000000 1.0
C      1  0.5126950000000  0.4105710000000  0.5129720000000 1.0
C      1  0.4100740000000  0.5041420000000  0.4880880000000 1.0
C      1  0.4777000000000  0.5954130000000  0.5266780000000 1.0
C      1  0.5337700000000  0.5361340000000  0.4925400000000 1.0
C      1  0.5892810000000  0.5036380000000  0.4640270000000 1.0
C      1  0.4856560000000  0.4654960000000  0.4083430000000 1.0
C      1  0.4092320000000  0.4953680000000  0.5164360000000 1.0
C      1  0.4925460000000  0.4110990000000  0.5545430000000 1.0
C      1  0.4251060000000  0.4458670000000  0.5477030000000 1.0
C      1  0.5115830000000  0.5498320000000  0.5321770000000 1.0
C      1  0.5172910000000  0.5768400000000  0.4479340000000 1.0
C      1  0.4241160000000  0.5178030000000  0.5633900000000 1.0
C      1  0.4919880000000  0.5279470000000  0.5883760000000 1.0
C      1  0.4372350000000  0.5361100000000  0.5229160000000 1.0
C      1  0.4403030000000  0.5408450000000  0.5703230000000 1.0
C      1  0.5381280000000  0.5434670000000  0.5203590000000 1.0
C      1  0.4380900000000  0.4848130000000  0.4538310000000 1.0
C      1  0.4441790000000  0.4230770000000  0.5465220000000 1.0
C      1  0.4646620000000  0.4921540000000  0.5716230000000 1.0
C      1  0.5345080000000  0.4174070000000  0.5334640000000 1.0
C      1  0.5798250000000  0.5323030000000  0.4350430000000 1.0
C      1  0.5764880000000  0.5581980000000  0.4927070000000 1.0
C      1  0.5728670000000  0.4645880000000  0.5582900000000 1.0
C      1  0.5568100000000  0.4982080000000  0.5275880000000 1.0
C      1  0.4328610000000  0.4924080000000  0.5765720000000 1.0
C      1  0.4783490000000  0.5845610000000  0.4848950000000 1.0
C      1  0.5927480000000  0.5281750000000  0.5353490000000 1.0
C      1  0.4864440000000  0.4041460000000  0.5275810000000 1.0
C      1  0.4836080000000  0.4604120000000  0.5215200000000 1.0
C      1  0.5401380000000  0.5628790000000  0.5609320000000 1.0
C      1  0.5169450000000  0.5489160000000  0.4313600000000 1.0
C      1  0.5575430000000  0.4358790000000  0.4672450000000 1.0
C      1  0.4802670000000  0.5498770000000  0.3879380000000 1.0
C      1  0.5330790000000  0.4860580000000  0.4851610000000 1.0
C      1  0.4552580000000  0.4370450000000  0.4267720000000 1.0
C      1  0.5000230000000  0.5011820000000  0.4447260000000 1.0
C      1  0.5561540000000  0.4762410000000  0.4303240000000 1.0
C      1  0.4779980000000  0.5562000000000  0.4761710000000 1.0
C      1  0.5625250000000  0.5694400000000  0.4700420000000 1.0
C      1  0.4389030000000  0.5662820000000  0.5230840000000 1.0
C      1  0.5111850000000  0.5303450000000  0.4782750000000 1.0
C      1  0.4357940000000  0.5816040000000  0.4989480000000 1.0
C      1  0.5823330000000  0.4655110000000  0.4949550000000 1.0
C      1  0.5248410000000  0.4481150000000  0.4238830000000 1.0
C      1  0.4908300000000  0.5297210000000  0.5199470000000 1.0
C      1  0.5090580000000  0.4106720000000  0.4548690000000 1.0
C      1  0.4425430000000  0.5565200000000  0.4504390000000 1.0
C      1  0.5872600000000  0.5253090000000  0.4863820000000 1.0
C      1  0.3899070000000  0.5307790000000  0.4818220000000 1.0
C      1  0.5502750000000  0.5357540000000  0.5670170000000 1.0
C      1  0.5598930000000  0.5236190000000  0.5416440000000 1.0
C      1  0.4545450000000  0.5134170000000  0.4228010000000 1.0
C      1  0.4752410000000  0.4534910000000  0.5490110000000 1.0
C      1  0.5074330000000  0.5059520000000  0.5260900000000 1.0
C      1  0.5565530000000  0.5244100000000  0.4804640000000 1.0
C      1  0.5247920000000  0.4444900000000  0.5771610000000 1.0
C      1  0.5198270000000  0.4224660000000  0.5586730000000 1.0
C      1  0.4976890000000  0.4397110000000  0.4127850000000 1.0
END
