TITL C-4164245-3996-98 -14.4141288946089 125000 -3611.59391763058 0 0 26 (C1) n - 1
REM
REM in /home/nfs/bkarasulu/CARBON/AIRSS/Generating-Clusters/ReaxFF-fromJPCA2015/Units_Real/with-SteepDescent/Only-C1/SD-CG/Try1-3A/FIRE-CG
REM
REM
REM
REM
REM
REM ./C.cell (11c1c37f851c82e70ff6c80c92926a4b)
REM
REM compiler GCC version 9.2.1 20190827 (Red Hat 9.2.1-1)
REM options -cpp -mtune=generic -march=x86-64 -g -O0 -fpre-include=/usr/include/finclude/math-vector-fortran.h
REM seed -486544843 497217977 2074347754 234931428 -2144646449 1179145730 -763591253 2060473526 -732906285 -244161390 -521516106 -1368703905 -879203477 78253788 1601673975 -1431181280 -544018788 -334524943 -1145074800 900024670 972605487 1338857451 -1758482100 -1740232622 -1149280916 -2074027402 -1814044349 723306956 1389949906 1073186890 -712712834 1546834022 -1759553463
REM
CELL 1.54180   50.00000   50.00000   50.00000   90.00000   90.00000   90.00000
LATT -1
SFAC C  
C      1  0.5337480000000  0.5482400000000  0.4606070000000 1.0
C      1  0.5264300000000  0.4645870000000  0.6099610000000 1.0
C      1  0.5252060000000  0.5270570000000  0.4713240000000 1.0
C      1  0.4550110000000  0.5297860000000  0.5090720000000 1.0
C      1  0.5472540000000  0.4828690000000  0.4693840000000 1.0
C      1  0.4846220000000  0.4812150000000  0.4517190000000 1.0
C      1  0.4653120000000  0.5253920000000  0.4590920000000 1.0
C      1  0.5034970000000  0.4691240000000  0.5162120000000 1.0
C      1  0.4742570000000  0.5286380000000  0.5286870000000 1.0
C      1  0.5153330000000  0.5197290000000  0.5186180000000 1.0
C      1  0.4231260000000  0.4957750000000  0.4834120000000 1.0
C      1  0.5380960000000  0.5014250000000  0.5197140000000 1.0
C      1  0.4990200000000  0.4692880000000  0.4658810000000 1.0
C      1  0.4615920000000  0.4974100000000  0.4484470000000 1.0
C      1  0.4961200000000  0.4837960000000  0.4927950000000 1.0
C      1  0.5283640000000  0.4726960000000  0.5604460000000 1.0
C      1  0.4745020000000  0.5313280000000  0.4864320000000 1.0
C      1  0.4346860000000  0.4868130000000  0.4577770000000 1.0
C      1  0.4302510000000  0.5130310000000  0.5063630000000 1.0
C      1  0.4987390000000  0.5279630000000  0.5440530000000 1.0
C      1  0.5012930000000  0.5165680000000  0.4927560000000 1.0
C      1  0.5280360000000  0.4767720000000  0.5336750000000 1.0
C      1  0.5536860000000  0.4966900000000  0.4954980000000 1.0
C      1  0.5515180000000  0.5124080000000  0.4712450000000 1.0
C      1  0.5228550000000  0.4731270000000  0.4610940000000 1.0
C      1  0.5274460000000  0.4682700000000  0.5857360000000 1.0
END
