TITL C-4164242-3624-425 -1.13014471739858 125000 -19083.4166997418 0 0 127 (C1) n - 1
REM
REM in /home/nfs/bkarasulu/CARBON/AIRSS/Generating-Clusters/ReaxFF-fromJPCA2015/Units_Real/with-SteepDescent/Only-C1/SD-CG/Try1-3A/FIRE-CG
REM
REM
REM
REM
REM
REM ./C.cell (11c1c37f851c82e70ff6c80c92926a4b)
REM
REM compiler GCC version 9.2.1 20190827 (Red Hat 9.2.1-1)
REM options -cpp -mtune=generic -march=x86-64 -g -O0 -fpre-include=/usr/include/finclude/math-vector-fortran.h
REM seed 88499591 -2094826962 1357201897 1424845057 -478823684 1072855787 -2096975967 728681038 967783155 2112316533 -792478894 -549748630 712815330 301718499 1584712072 853056263 -238057924 -1266080830 729609282 -1798781054 1876310140 1747928753 720642432 -1465222363 1797449935 -1251292447 -6314945 666748693 469721807 -1099086979 327849704 313169173 827208629
REM
CELL 1.54180   50.00000   50.00000   50.00000   90.00000   90.00000   90.00000
LATT -1
SFAC C  
C      1  0.5123280000000  0.4656220000000  0.5988280000000 1.0
C      1  0.4539240000000  0.5229060000000  0.4690970000000 1.0
C      1  0.5593550000000  0.4876690000000  0.5828000000000 1.0
C      1  0.4320850000000  0.5632610000000  0.5106770000000 1.0
C      1  0.5340770000000  0.4712590000000  0.5302060000000 1.0
C      1  0.4331870000000  0.4461920000000  0.5219220000000 1.0
C      1  0.5624790000000  0.5413510000000  0.4558400000000 1.0
C      1  0.4411520000000  0.5500290000000  0.5470740000000 1.0
C      1  0.5002490000000  0.4566410000000  0.4120060000000 1.0
C      1  0.5399350000000  0.4547190000000  0.5531620000000 1.0
C      1  0.5151940000000  0.4339410000000  0.4215920000000 1.0
C      1  0.4695070000000  0.4838950000000  0.5820030000000 1.0
C      1  0.5439670000000  0.5896610000000  0.5059280000000 1.0
C      1  0.5995190000000  0.5071990000000  0.5280980000000 1.0
C      1  0.4599960000000  0.4617680000000  0.4823670000000 1.0
C      1  0.5372620000000  0.5062390000000  0.4235890000000 1.0
C      1  0.5341130000000  0.4088530000000  0.4833650000000 1.0
C      1  0.4433300000000  0.4436460000000  0.4382520000000 1.0
C      1  0.5406090000000  0.5602950000000  0.4563920000000 1.0
C      1  0.4986620000000  0.5414200000000  0.4839820000000 1.0
C      1  0.4980860000000  0.5506950000000  0.5113920000000 1.0
C      1  0.5757420000000  0.5309000000000  0.4791500000000 1.0
C      1  0.5180820000000  0.6014110000000  0.5116110000000 1.0
C      1  0.5166580000000  0.4778840000000  0.4846310000000 1.0
C      1  0.4931070000000  0.5388750000000  0.5967820000000 1.0
C      1  0.5195640000000  0.5028420000000  0.5619690000000 1.0
C      1  0.4288760000000  0.4554670000000  0.4809530000000 1.0
C      1  0.5924220000000  0.4504520000000  0.4808920000000 1.0
C      1  0.4949510000000  0.4905420000000  0.4695950000000 1.0
C      1  0.5149970000000  0.4089420000000  0.5056590000000 1.0
C      1  0.5739310000000  0.5424420000000  0.5059570000000 1.0
C      1  0.5832820000000  0.5315540000000  0.5297990000000 1.0
C      1  0.4360320000000  0.5008220000000  0.5632840000000 1.0
C      1  0.5120840000000  0.5979670000000  0.4611120000000 1.0
C      1  0.5412710000000  0.4483930000000  0.4226380000000 1.0
C      1  0.4219390000000  0.4850290000000  0.5459750000000 1.0
C      1  0.5782390000000  0.4853870000000  0.5290600000000 1.0
C      1  0.4772100000000  0.4439860000000  0.5022940000000 1.0
C      1  0.4622450000000  0.5355610000000  0.4128160000000 1.0
C      1  0.5820270000000  0.5013220000000  0.4712630000000 1.0
C      1  0.4831570000000  0.4554170000000  0.4354770000000 1.0
C      1  0.5810220000000  0.4592150000000  0.5426860000000 1.0
C      1  0.4618570000000  0.4249110000000  0.4524490000000 1.0
C      1  0.4752620000000  0.5104230000000  0.4063930000000 1.0
C      1  0.4971140000000  0.5019220000000  0.5469790000000 1.0
C      1  0.5439450000000  0.4675090000000  0.4002650000000 1.0
C      1  0.4568920000000  0.4854660000000  0.4979080000000 1.0
C      1  0.4847290000000  0.5206710000000  0.4684200000000 1.0
C      1  0.4657060000000  0.4620890000000  0.5609710000000 1.0
C      1  0.5029600000000  0.5293720000000  0.4454730000000 1.0
C      1  0.5639910000000  0.4634790000000  0.5658170000000 1.0
C      1  0.4697780000000  0.5904060000000  0.5238340000000 1.0
C      1  0.5500220000000  0.5604850000000  0.5484540000000 1.0
C      1  0.5793930000000  0.4447810000000  0.4567090000000 1.0
C      1  0.5225720000000  0.5782660000000  0.4403240000000 1.0
C      1  0.5514980000000  0.4911190000000  0.5187980000000 1.0
C      1  0.5304710000000  0.4821220000000  0.5809640000000 1.0
C      1  0.4169270000000  0.4637780000000  0.5059840000000 1.0
C      1  0.4396020000000  0.4602030000000  0.5464120000000 1.0
C      1  0.4508660000000  0.5836280000000  0.5029530000000 1.0
C      1  0.5309200000000  0.6036950000000  0.4849370000000 1.0
C      1  0.4758830000000  0.5803810000000  0.5529320000000 1.0
C      1  0.4146630000000  0.4742200000000  0.4348390000000 1.0
C      1  0.5573550000000  0.4195420000000  0.4925800000000 1.0
C      1  0.5187610000000  0.5425300000000  0.4646490000000 1.0
C      1  0.4854940000000  0.4620500000000  0.5244030000000 1.0
C      1  0.4929420000000  0.4880410000000  0.5991140000000 1.0
C      1  0.5279720000000  0.5681260000000  0.5662360000000 1.0
C      1  0.4723680000000  0.5371230000000  0.5237380000000 1.0
C      1  0.6004150000000  0.4806510000000  0.4819000000000 1.0
C      1  0.5265390000000  0.5411360000000  0.5133610000000 1.0
C      1  0.5631230000000  0.5349360000000  0.5546190000000 1.0
C      1  0.4194000000000  0.4512880000000  0.4536120000000 1.0
C      1  0.4954660000000  0.4293960000000  0.4438090000000 1.0
C      1  0.5113350000000  0.4698850000000  0.5133340000000 1.0
C      1  0.5663410000000  0.4918220000000  0.4492400000000 1.0
C      1  0.5061170000000  0.5138500000000  0.6038960000000 1.0
C      1  0.6084650000000  0.4963550000000  0.5036150000000 1.0
C      1  0.4120740000000  0.4921250000000  0.5182740000000 1.0
C      1  0.4820980000000  0.4370430000000  0.5656510000000 1.0
C      1  0.4575040000000  0.5595850000000  0.5673350000000 1.0
C      1  0.5699670000000  0.4353520000000  0.5296220000000 1.0
C      1  0.4694110000000  0.4068730000000  0.5287100000000 1.0
C      1  0.5029830000000  0.5059450000000  0.4020090000000 1.0
C      1  0.4964090000000  0.5711140000000  0.4321740000000 1.0
C      1  0.5577810000000  0.5163260000000  0.4379030000000 1.0
C      1  0.5529190000000  0.4615260000000  0.4493560000000 1.0
C      1  0.4511110000000  0.4950550000000  0.4116220000000 1.0
C      1  0.4760720000000  0.4726790000000  0.4579540000000 1.0
C      1  0.4514890000000  0.5655780000000  0.4520460000000 1.0
C      1  0.4526080000000  0.4229480000000  0.5083100000000 1.0
C      1  0.4128810000000  0.5204670000000  0.5110510000000 1.0
C      1  0.4546370000000  0.5099470000000  0.5809910000000 1.0
C      1  0.4959900000000  0.5826840000000  0.5152140000000 1.0
C      1  0.4916700000000  0.4152010000000  0.5447160000000 1.0
C      1  0.5149760000000  0.4318110000000  0.4685580000000 1.0
C      1  0.4541330000000  0.4162090000000  0.4779630000000 1.0
C      1  0.4192060000000  0.5258710000000  0.4381230000000 1.0
C      1  0.5016200000000  0.5744760000000  0.5593860000000 1.0
C      1  0.4405780000000  0.5035810000000  0.4823200000000 1.0
C      1  0.4064680000000  0.5010650000000  0.4461250000000 1.0
C      1  0.4695200000000  0.4860240000000  0.5223490000000 1.0
C      1  0.4858140000000  0.5917640000000  0.4675040000000 1.0
C      1  0.5432680000000  0.4295810000000  0.5411430000000 1.0
C      1  0.4400630000000  0.4695110000000  0.4216480000000 1.0
C      1  0.5196020000000  0.4145430000000  0.5337350000000 1.0
C      1  0.4096910000000  0.4987560000000  0.4758640000000 1.0
C      1  0.5154080000000  0.4787810000000  0.4004460000000 1.0
C      1  0.4596770000000  0.5844560000000  0.4732110000000 1.0
C      1  0.4698690000000  0.5600360000000  0.4298670000000 1.0
C      1  0.5379880000000  0.5188270000000  0.5463570000000 1.0
C      1  0.5334810000000  0.5139680000000  0.5183760000000 1.0
C      1  0.4331430000000  0.5427770000000  0.4601140000000 1.0
C      1  0.5491220000000  0.5606310000000  0.5180350000000 1.0
C      1  0.4365990000000  0.5214500000000  0.4156200000000 1.0
C      1  0.5148660000000  0.5180450000000  0.4226550000000 1.0
C      1  0.4670460000000  0.5380240000000  0.5838520000000 1.0
C      1  0.4153150000000  0.5439440000000  0.4907710000000 1.0
C      1  0.4443120000000  0.5412440000000  0.5240170000000 1.0
C      1  0.5305340000000  0.4578790000000  0.4688080000000 1.0
C      1  0.5201430000000  0.5510810000000  0.5901390000000 1.0
C      1  0.5797890000000  0.4306240000000  0.5018920000000 1.0
C      1  0.5575580000000  0.5166620000000  0.5819530000000 1.0
C      1  0.5338860000000  0.5259820000000  0.5964440000000 1.0
C      1  0.4983730000000  0.4274260000000  0.4917610000000 1.0
C      1  0.4782870000000  0.5104980000000  0.5324140000000 1.0
C      1  0.4990630000000  0.4466950000000  0.5835170000000 1.0
END
